MODEL 1
REMARK VINA RESULT:      -6.7      0.000      0.000
REMARK  Name = 
REMARK  4 active torsions:
REMARK  status: ('A' for Active; 'I' for Inactive)
REMARK    1  A    between atoms: C_1  and  C_2
REMARK    2  A    between atoms: C_5  and  N_6
REMARK    3  A    between atoms: N_6  and  C_7
REMARK    4  A    between atoms: C_7  and  N_9
REMARK                            x       y       z     vdW  Elec       q    Type
REMARK                         _______ _______ _______ _____ _____    ______ ____
ROOT
ATOM      1  N   UNL     1       5.301   3.210  16.762  0.00  0.00    +0.000 N 
ATOM      2  H   UNL     1       5.752   2.313  16.886  0.00  0.00    +0.000 HD
ENDROOT
BRANCH   1   7
ATOM      3  C   UNL     1       0.888   3.997  20.322  0.00  0.00    +0.000 C 
ATOM      4  C   UNL     1       2.039   3.819  19.379  0.00  0.00    +0.000 A 
ATOM      5  C   UNL     1       1.859   3.942  17.998  0.00  0.00    +0.000 A 
ATOM      6  C   UNL     1       2.934   3.764  17.123  0.00  0.00    +0.000 A 
ATOM      7  C   UNL     1       4.207   3.467  17.614  0.00  0.00    +0.000 A 
ATOM      8  C   UNL     1       4.387   3.317  18.994  0.00  0.00    +0.000 A 
ATOM      9  C   UNL     1       3.313   3.506  19.870  0.00  0.00    +0.000 A 
ENDBRANCH   1   7
BRANCH   1  10
ATOM     10  C   UNL     1       6.057   4.107  16.022  0.00  0.00    +0.000 C 
ATOM     11  S   UNL     1       6.172   4.077  14.342  0.00  0.00    +0.000 S 
BRANCH  10  12
ATOM     12  N   UNL     1       6.639   5.104  16.809  0.00  0.00    +0.000 N 
ATOM     13  C   UNL     1       6.185   6.487  16.866  0.00  0.00    +0.000 C 
ATOM     14  C   UNL     1       7.310   7.215  17.576  0.00  0.00    +0.000 C 
ATOM     15  C   UNL     1       7.823   6.190  18.576  0.00  0.00    +0.000 C 
ATOM     16  C   UNL     1       7.555   4.840  17.920  0.00  0.00    +0.000 C 
ENDBRANCH  10  12
ENDBRANCH   1  10
TORSDOF 3
ENDMDL
MODEL 2
REMARK VINA RESULT:      -6.7      0.205      1.628
REMARK  Name = 
REMARK  4 active torsions:
REMARK  status: ('A' for Active; 'I' for Inactive)
REMARK    1  A    between atoms: C_1  and  C_2
REMARK    2  A    between atoms: C_5  and  N_6
REMARK    3  A    between atoms: N_6  and  C_7
REMARK    4  A    between atoms: C_7  and  N_9
REMARK                            x       y       z     vdW  Elec       q    Type
REMARK                         _______ _______ _______ _____ _____    ______ ____
ROOT
ATOM      1  N   UNL     1       5.235   3.166  16.788  0.00  0.00    +0.000 N 
ATOM      2  H   UNL     1       5.705   2.271  16.823  0.00  0.00    +0.000 HD
ENDROOT
BRANCH   1   7
ATOM      3  C   UNL     1       0.865   4.093  20.367  0.00  0.00    +0.000 C 
ATOM      4  C   UNL     1       2.012   3.822  19.443  0.00  0.00    +0.000 A 
ATOM      5  C   UNL     1       3.278   3.504  19.946  0.00  0.00    +0.000 A 
ATOM      6  C   UNL     1       4.347   3.263  19.078  0.00  0.00    +0.000 A 
ATOM      7  C   UNL     1       4.167   3.331  17.695  0.00  0.00    +0.000 A 
ATOM      8  C   UNL     1       2.909   3.675  17.187  0.00  0.00    +0.000 A 
ATOM      9  C   UNL     1       1.836   3.905  18.055  0.00  0.00    +0.000 A 
ENDBRANCH   1   7
BRANCH   1  10
ATOM     10  C   UNL     1       5.948   4.134  16.097  0.00  0.00    +0.000 C 
ATOM     11  S   UNL     1       5.947   4.284  14.420  0.00  0.00    +0.000 S 
BRANCH  10  12
ATOM     12  N   UNL     1       6.593   5.039  16.944  0.00  0.00    +0.000 N 
ATOM     13  C   UNL     1       7.655   4.687  17.879  0.00  0.00    +0.000 C 
ATOM     14  C   UNL     1       7.781   5.908  18.769  0.00  0.00    +0.000 C 
ATOM     15  C   UNL     1       7.493   7.067  17.827  0.00  0.00    +0.000 C 
ATOM     16  C   UNL     1       6.540   6.493  16.785  0.00  0.00    +0.000 C 
ENDBRANCH  10  12
ENDBRANCH   1  10
TORSDOF 3
ENDMDL
MODEL 3
REMARK VINA RESULT:      -6.7      0.281      1.063
REMARK  Name = 
REMARK  4 active torsions:
REMARK  status: ('A' for Active; 'I' for Inactive)
REMARK    1  A    between atoms: C_1  and  C_2
REMARK    2  A    between atoms: C_5  and  N_6
REMARK    3  A    between atoms: N_6  and  C_7
REMARK    4  A    between atoms: C_7  and  N_9
REMARK                            x       y       z     vdW  Elec       q    Type
REMARK                         _______ _______ _______ _____ _____    ______ ____
ROOT
ATOM      1  N   UNL     1       5.231   3.241  16.843  0.00  0.00    +0.000 N 
ATOM      2  H   UNL     1       5.629   2.313  16.905  0.00  0.00    +0.000 HD
ENDROOT
BRANCH   1   7
ATOM      3  C   UNL     1       0.906   4.071  20.500  0.00  0.00    +0.000 C 
ATOM      4  C   UNL     1       2.040   3.884  19.539  0.00  0.00    +0.000 A 
ATOM      5  C   UNL     1       1.945   4.345  18.221  0.00  0.00    +0.000 A 
ATOM      6  C   UNL     1       3.002   4.158  17.326  0.00  0.00    +0.000 A 
ATOM      7  C   UNL     1       4.171   3.513  17.734  0.00  0.00    +0.000 A 
ATOM      8  C   UNL     1       4.260   3.026  19.043  0.00  0.00    +0.000 A 
ATOM      9  C   UNL     1       3.207   3.224  19.943  0.00  0.00    +0.000 A 
ENDBRANCH   1   7
BRANCH   1  10
ATOM     10  C   UNL     1       6.024   4.133  16.137  0.00  0.00    +0.000 C 
ATOM     11  S   UNL     1       6.140   4.161  14.457  0.00  0.00    +0.000 S 
BRANCH  10  12
ATOM     12  N   UNL     1       6.647   5.074  16.961  0.00  0.00    +0.000 N 
ATOM     13  C   UNL     1       7.658   4.760  17.961  0.00  0.00    +0.000 C 
ATOM     14  C   UNL     1       7.765   6.027  18.787  0.00  0.00    +0.000 C 
ATOM     15  C   UNL     1       7.541   7.135  17.769  0.00  0.00    +0.000 C 
ATOM     16  C   UNL     1       6.626   6.517  16.718  0.00  0.00    +0.000 C 
ENDBRANCH  10  12
ENDBRANCH   1  10
TORSDOF 3
ENDMDL
MODEL 4
REMARK VINA RESULT:      -6.6      0.210      1.245
REMARK  Name = 
REMARK  4 active torsions:
REMARK  status: ('A' for Active; 'I' for Inactive)
REMARK    1  A    between atoms: C_1  and  C_2
REMARK    2  A    between atoms: C_5  and  N_6
REMARK    3  A    between atoms: N_6  and  C_7
REMARK    4  A    between atoms: C_7  and  N_9
REMARK                            x       y       z     vdW  Elec       q    Type
REMARK                         _______ _______ _______ _____ _____    ______ ____
ROOT
ATOM      1  N   UNL     1       5.313   3.260  16.854  0.00  0.00    +0.000 N 
ATOM      2  H   UNL     1       5.846   2.408  16.972  0.00  0.00    +0.000 HD
ENDROOT
BRANCH   1   7
ATOM      3  C   UNL     1       0.899   4.210  20.371  0.00  0.00    +0.000 C 
ATOM      4  C   UNL     1       2.053   3.932  19.457  0.00  0.00    +0.000 A 
ATOM      5  C   UNL     1       3.218   3.325  19.939  0.00  0.00    +0.000 A 
ATOM      6  C   UNL     1       4.295   3.079  19.083  0.00  0.00    +0.000 A 
ATOM      7  C   UNL     1       4.223   3.427  17.733  0.00  0.00    +0.000 A 
ATOM      8  C   UNL     1       3.070   4.057  17.252  0.00  0.00    +0.000 A 
ATOM      9  C   UNL     1       1.987   4.295  18.106  0.00  0.00    +0.000 A 
ENDBRANCH   1   7
BRANCH   1  10
ATOM     10  C   UNL     1       5.965   4.213  16.084  0.00  0.00    +0.000 C 
ATOM     11  S   UNL     1       5.924   4.251  14.401  0.00  0.00    +0.000 S 
BRANCH  10  12
ATOM     12  N   UNL     1       6.583   5.200  16.855  0.00  0.00    +0.000 N 
ATOM     13  C   UNL     1       6.171   6.597  16.901  0.00  0.00    +0.000 C 
ATOM     14  C   UNL     1       7.323   7.299  17.593  0.00  0.00    +0.000 C 
ATOM     15  C   UNL     1       7.813   6.270  18.600  0.00  0.00    +0.000 C 
ATOM     16  C   UNL     1       7.500   4.922  17.962  0.00  0.00    +0.000 C 
ENDBRANCH  10  12
ENDBRANCH   1  10
TORSDOF 3
ENDMDL
MODEL 5
REMARK VINA RESULT:      -6.2      2.831      5.664
REMARK  Name = 
REMARK  4 active torsions:
REMARK  status: ('A' for Active; 'I' for Inactive)
REMARK    1  A    between atoms: C_1  and  C_2
REMARK    2  A    between atoms: C_5  and  N_6
REMARK    3  A    between atoms: N_6  and  C_7
REMARK    4  A    between atoms: C_7  and  N_9
REMARK                            x       y       z     vdW  Elec       q    Type
REMARK                         _______ _______ _______ _____ _____    ______ ____
ROOT
ATOM      1  N   UNL     1       4.248   5.726  18.942  0.00  0.00    +0.000 N 
ATOM      2  H   UNL     1       4.917   5.554  19.681  0.00  0.00    +0.000 HD
ENDROOT
BRANCH   1   7
ATOM      3  C   UNL     1       6.170   4.150  13.786  0.00  0.00    +0.000 C 
ATOM      4  C   UNL     1       5.642   4.575  15.122  0.00  0.00    +0.000 A 
ATOM      5  C   UNL     1       5.375   5.921  15.391  0.00  0.00    +0.000 A 
ATOM      6  C   UNL     1       4.894   6.312  16.644  0.00  0.00    +0.000 A 
ATOM      7  C   UNL     1       4.665   5.365  17.643  0.00  0.00    +0.000 A 
ATOM      8  C   UNL     1       4.955   4.020  17.387  0.00  0.00    +0.000 A 
ATOM      9  C   UNL     1       5.427   3.627  16.130  0.00  0.00    +0.000 A 
ENDBRANCH   1   7
BRANCH   1  10
ATOM     10  C   UNL     1       2.964   5.966  19.407  0.00  0.00    +0.000 C 
ATOM     11  S   UNL     1       2.225   7.480  19.391  0.00  0.00    +0.000 S 
BRANCH  10  12
ATOM     12  N   UNL     1       2.305   4.800  19.805  0.00  0.00    +0.000 N 
ATOM     13  C   UNL     1       2.094   4.397  21.189  0.00  0.00    +0.000 C 
ATOM     14  C   UNL     1       1.648   2.951  21.088  0.00  0.00    +0.000 C 
ATOM     15  C   UNL     1       0.835   2.918  19.803  0.00  0.00    +0.000 C 
ATOM     16  C   UNL     1       1.454   3.999  18.924  0.00  0.00    +0.000 C 
ENDBRANCH  10  12
ENDBRANCH   1  10
TORSDOF 3
ENDMDL
MODEL 6
REMARK VINA RESULT:      -6.2      1.103      1.653
REMARK  Name = 
REMARK  4 active torsions:
REMARK  status: ('A' for Active; 'I' for Inactive)
REMARK    1  A    between atoms: C_1  and  C_2
REMARK    2  A    between atoms: C_5  and  N_6
REMARK    3  A    between atoms: N_6  and  C_7
REMARK    4  A    between atoms: C_7  and  N_9
REMARK                            x       y       z     vdW  Elec       q    Type
REMARK                         _______ _______ _______ _____ _____    ______ ____
ROOT
ATOM      1  N   UNL     1       4.349   4.541  16.486  0.00  0.00    +0.000 N 
ATOM      2  H   UNL     1       3.705   4.605  15.709  0.00  0.00    +0.000 HD
ENDROOT
BRANCH   1   7
ATOM      3  C   UNL     1       2.308   2.829  21.552  0.00  0.00    +0.000 C 
ATOM      4  C   UNL     1       2.820   3.261  20.213  0.00  0.00    +0.000 A 
ATOM      5  C   UNL     1       3.236   2.318  19.267  0.00  0.00    +0.000 A 
ATOM      6  C   UNL     1       3.724   2.727  18.022  0.00  0.00    +0.000 A 
ATOM      7  C   UNL     1       3.798   4.084  17.702  0.00  0.00    +0.000 A 
ATOM      8  C   UNL     1       3.408   5.032  18.654  0.00  0.00    +0.000 A 
ATOM      9  C   UNL     1       2.909   4.622  19.895  0.00  0.00    +0.000 A 
ENDBRANCH   1   7
BRANCH   1  10
ATOM     10  C   UNL     1       5.681   4.599  16.102  0.00  0.00    +0.000 C 
ATOM     11  S   UNL     1       6.259   4.034  14.624  0.00  0.00    +0.000 S 
BRANCH  10  12
ATOM     12  N   UNL     1       6.484   5.264  17.032  0.00  0.00    +0.000 N 
ATOM     13  C   UNL     1       7.545   4.638  17.810  0.00  0.00    +0.000 C 
ATOM     14  C   UNL     1       7.876   5.666  18.875  0.00  0.00    +0.000 C 
ATOM     15  C   UNL     1       7.682   6.994  18.161  0.00  0.00    +0.000 C 
ATOM     16  C   UNL     1       6.605   6.721  17.117  0.00  0.00    +0.000 C 
ENDBRANCH  10  12
ENDBRANCH   1  10
TORSDOF 3
ENDMDL
MODEL 7
REMARK VINA RESULT:      -6.2      1.140      1.291
REMARK  Name = 
REMARK  4 active torsions:
REMARK  status: ('A' for Active; 'I' for Inactive)
REMARK    1  A    between atoms: C_1  and  C_2
REMARK    2  A    between atoms: C_5  and  N_6
REMARK    3  A    between atoms: N_6  and  C_7
REMARK    4  A    between atoms: C_7  and  N_9
REMARK                            x       y       z     vdW  Elec       q    Type
REMARK                         _______ _______ _______ _____ _____    ______ ____
ROOT
ATOM      1  N   UNL     1       4.080   5.059  17.036  0.00  0.00    +0.000 N 
ATOM      2  H   UNL     1       3.462   5.434  16.328  0.00  0.00    +0.000 HD
ENDROOT
BRANCH   1   7
ATOM      3  C   UNL     1       1.492   2.703  21.566  0.00  0.00    +0.000 C 
ATOM      4  C   UNL     1       2.171   3.346  20.396  0.00  0.00    +0.000 A 
ATOM      5  C   UNL     1       1.623   4.477  19.781  0.00  0.00    +0.000 A 
ATOM      6  C   UNL     1       2.255   5.066  18.682  0.00  0.00    +0.000 A 
ATOM      7  C   UNL     1       3.448   4.538  18.185  0.00  0.00    +0.000 A 
ATOM      8  C   UNL     1       3.988   3.392  18.779  0.00  0.00    +0.000 A 
ATOM      9  C   UNL     1       3.360   2.809  19.886  0.00  0.00    +0.000 A 
ENDBRANCH   1   7
BRANCH   1  10
ATOM     10  C   UNL     1       5.371   4.842  16.580  0.00  0.00    +0.000 C 
ATOM     11  S   UNL     1       5.761   3.785  15.328  0.00  0.00    +0.000 S 
BRANCH  10  12
ATOM     12  N   UNL     1       6.311   5.667  17.203  0.00  0.00    +0.000 N 
ATOM     13  C   UNL     1       6.269   7.123  17.201  0.00  0.00    +0.000 C 
ATOM     14  C   UNL     1       7.640   7.532  17.703  0.00  0.00    +0.000 C 
ATOM     15  C   UNL     1       7.986   6.450  18.714  0.00  0.00    +0.000 C 
ATOM     16  C   UNL     1       7.267   5.204  18.211  0.00  0.00    +0.000 C 
ENDBRANCH  10  12
ENDBRANCH   1  10
TORSDOF 3
ENDMDL
MODEL 8
REMARK VINA RESULT:      -6.2      1.179      1.459
REMARK  Name = 
REMARK  4 active torsions:
REMARK  status: ('A' for Active; 'I' for Inactive)
REMARK    1  A    between atoms: C_1  and  C_2
REMARK    2  A    between atoms: C_5  and  N_6
REMARK    3  A    between atoms: N_6  and  C_7
REMARK    4  A    between atoms: C_7  and  N_9
REMARK                            x       y       z     vdW  Elec       q    Type
REMARK                         _______ _______ _______ _____ _____    ______ ____
ROOT
ATOM      1  N   UNL     1       4.648   5.530  16.256  0.00  0.00    +0.000 N 
ATOM      2  H   UNL     1       4.209   5.968  15.457  0.00  0.00    +0.000 HD
ENDROOT
BRANCH   1   7
ATOM      3  C   UNL     1       0.915   3.247  19.947  0.00  0.00    +0.000 C 
ATOM      4  C   UNL     1       1.909   3.854  19.005  0.00  0.00    +0.000 A 
ATOM      5  C   UNL     1       2.221   5.216  19.071  0.00  0.00    +0.000 A 
ATOM      6  C   UNL     1       3.141   5.778  18.182  0.00  0.00    +0.000 A 
ATOM      7  C   UNL     1       3.768   4.988  17.217  0.00  0.00    +0.000 A 
ATOM      8  C   UNL     1       3.441   3.630  17.130  0.00  0.00    +0.000 A 
ATOM      9  C   UNL     1       2.528   3.065  18.027  0.00  0.00    +0.000 A 
ENDBRANCH   1   7
BRANCH   1  10
ATOM     10  C   UNL     1       5.998   5.270  16.068  0.00  0.00    +0.000 C 
ATOM     11  S   UNL     1       6.628   4.517  14.700  0.00  0.00    +0.000 S 
BRANCH  10  12
ATOM     12  N   UNL     1       6.796   5.787  17.092  0.00  0.00    +0.000 N 
ATOM     13  C   UNL     1       6.896   7.200  17.433  0.00  0.00    +0.000 C 
ATOM     14  C   UNL     1       8.100   7.272  18.352  0.00  0.00    +0.000 C 
ATOM     15  C   UNL     1       8.040   5.962  19.123  0.00  0.00    +0.000 C 
ATOM     16  C   UNL     1       7.377   4.978  18.165  0.00  0.00    +0.000 C 
ENDBRANCH  10  12
ENDBRANCH   1  10
TORSDOF 3
ENDMDL
MODEL 9
REMARK VINA RESULT:      -6.2      2.806      5.627
REMARK  Name = 
REMARK  4 active torsions:
REMARK  status: ('A' for Active; 'I' for Inactive)
REMARK    1  A    between atoms: C_1  and  C_2
REMARK    2  A    between atoms: C_5  and  N_6
REMARK    3  A    between atoms: N_6  and  C_7
REMARK    4  A    between atoms: C_7  and  N_9
REMARK                            x       y       z     vdW  Elec       q    Type
REMARK                         _______ _______ _______ _____ _____    ______ ____
ROOT
ATOM      1  N   UNL     1       4.189   5.629  18.957  0.00  0.00    +0.000 N 
ATOM      2  H   UNL     1       4.805   5.364  19.714  0.00  0.00    +0.000 HD
ENDROOT
BRANCH   1   7
ATOM      3  C   UNL     1       6.250   4.216  13.808  0.00  0.00    +0.000 C 
ATOM      4  C   UNL     1       5.686   4.598  15.142  0.00  0.00    +0.000 A 
ATOM      5  C   UNL     1       5.394   5.933  15.440  0.00  0.00    +0.000 A 
ATOM      6  C   UNL     1       4.878   6.284  16.691  0.00  0.00    +0.000 A 
ATOM      7  C   UNL     1       4.641   5.308  17.660  0.00  0.00    +0.000 A 
ATOM      8  C   UNL     1       4.956   3.974  17.376  0.00  0.00    +0.000 A 
ATOM      9  C   UNL     1       5.461   3.621  16.120  0.00  0.00    +0.000 A 
ENDBRANCH   1   7
BRANCH   1  10
ATOM     10  C   UNL     1       2.905   5.945  19.378  0.00  0.00    +0.000 C 
ATOM     11  S   UNL     1       2.224   7.480  19.248  0.00  0.00    +0.000 S 
BRANCH  10  12
ATOM     12  N   UNL     1       2.196   4.831  19.836  0.00  0.00    +0.000 N 
ATOM     13  C   UNL     1       1.572   3.835  18.976  0.00  0.00    +0.000 C 
ATOM     14  C   UNL     1       0.676   3.049  19.914  0.00  0.00    +0.000 C 
ATOM     15  C   UNL     1       1.454   3.032  21.220  0.00  0.00    +0.000 C 
ATOM     16  C   UNL     1       2.259   4.327  21.209  0.00  0.00    +0.000 C 
ENDBRANCH  10  12
ENDBRANCH   1  10
TORSDOF 3
ENDMDL
