MODEL 1
REMARK VINA RESULT:      -8.0      0.000      0.000
REMARK  Name = 
REMARK  8 active torsions:
REMARK  status: ('A' for Active; 'I' for Inactive)
REMARK    1  A    between atoms: C_1  and  C_2
REMARK    2  A    between atoms: C_5  and  C_6
REMARK    3  A    between atoms: N_7  and  O_8
REMARK    4  A    between atoms: N_9  and  C_10
REMARK    5  A    between atoms: C_10  and  C_11
REMARK    6  A    between atoms: C_11  and  N_12
REMARK    7  A    between atoms: C_17  and  O_18
REMARK    8  A    between atoms: O_18  and  C_19
REMARK                            x       y       z     vdW  Elec       q    Type
REMARK                         _______ _______ _______ _____ _____    ______ ____
ROOT
ATOM      1  C   UNL     1       2.112   8.073  17.631  0.00  0.00    +0.000 C 
ATOM      2  C   UNL     1       3.355   7.241  17.578  0.00  0.00    +0.000 A 
ATOM      3  C   UNL     1       4.587   7.828  17.349  0.00  0.00    +0.000 A 
ATOM      4  C   UNL     1       5.693   7.005  17.188  0.00  0.00    +0.000 A 
ATOM      5  C   UNL     1       5.580   5.613  17.332  0.00  0.00    +0.000 A 
ATOM      6  C   UNL     1       4.309   5.107  17.601  0.00  0.00    +0.000 A 
ATOM      7  N   UNL     1       3.200   5.901  17.691  0.00  0.00    +0.000 NA
ENDROOT
BRANCH   5   8
ATOM      8  C   UNL     1       6.816   4.769  17.187  0.00  0.00    +0.000 C 
ATOM      9  N   UNL     1       7.614   4.661  18.212  0.00  0.00    +0.000 NA
ATOM     10  N   UNL     1       7.086   4.063  16.021  0.00  0.00    +0.000 N 
ATOM     11  H   UNL     1       7.967   3.564  16.099  0.00  0.00    +0.000 HD
BRANCH   9  12
ATOM     12  O   UNL     1       8.698   3.821  17.899  0.00  0.00    +0.000 OA
ATOM     13  H   UNL     1       8.736   3.244  18.687  0.00  0.00    +0.000 HD
ENDBRANCH   9  12
BRANCH  10  14
ATOM     14  C   UNL     1       6.728   4.531  14.689  0.00  0.00    +0.000 C 
BRANCH  14  15
ATOM     15  C   UNL     1       5.757   3.608  13.926  0.00  0.00    +0.000 C 
BRANCH  15  16
ATOM     16  N   UNL     1       5.771   3.880  12.469  0.00  0.00    +0.000 NA
ATOM     17  C   UNL     1       4.897   3.004  11.673  0.00  0.00    +0.000 C 
ATOM     18  C   UNL     1       5.704   1.745  11.458  0.00  0.00    +0.000 C 
ATOM     19  C   UNL     1       7.106   2.285  11.237  0.00  0.00    +0.000 C 
ATOM     20  C   UNL     1       7.115   3.664  11.897  0.00  0.00    +0.000 C 
ENDBRANCH  15  16
ENDBRANCH  14  15
ENDBRANCH  10  14
ENDBRANCH   5   8
BRANCH   6  21
ATOM     21  O   UNL     1       4.136   3.738  17.763  0.00  0.00    +0.000 OA
BRANCH  21  22
ATOM     22  C   UNL     1       3.131   3.291  18.597  0.00  0.00    +0.000 A 
ATOM     23  C   UNL     1       1.861   2.898  18.126  0.00  0.00    +0.000 A 
ATOM     24  C   UNL     1       0.868   2.524  19.030  0.00  0.00    +0.000 A 
ATOM     25  C   UNL     1       1.114   2.560  20.401  0.00  0.00    +0.000 A 
ATOM     26  C   UNL     1       2.360   2.979  20.857  0.00  0.00    +0.000 A 
ATOM     27  F   UNL     1       2.590   3.032  22.176  0.00  0.00    +0.000 F 
ATOM     28  C   UNL     1       3.369   3.349  19.966  0.00  0.00    +0.000 A 
ENDBRANCH  21  22
ENDBRANCH   6  21
TORSDOF 7
ENDMDL
MODEL 2
REMARK VINA RESULT:      -7.7      3.257      5.959
REMARK  Name = 
REMARK  8 active torsions:
REMARK  status: ('A' for Active; 'I' for Inactive)
REMARK    1  A    between atoms: C_1  and  C_2
REMARK    2  A    between atoms: C_5  and  C_6
REMARK    3  A    between atoms: N_7  and  O_8
REMARK    4  A    between atoms: N_9  and  C_10
REMARK    5  A    between atoms: C_10  and  C_11
REMARK    6  A    between atoms: C_11  and  N_12
REMARK    7  A    between atoms: C_17  and  O_18
REMARK    8  A    between atoms: O_18  and  C_19
REMARK                            x       y       z     vdW  Elec       q    Type
REMARK                         _______ _______ _______ _____ _____    ______ ____
ROOT
ATOM      1  C   UNL     1       5.170   4.106  13.434  0.00  0.00    +0.000 C 
ATOM      2  C   UNL     1       5.761   4.624  14.708  0.00  0.00    +0.000 A 
ATOM      3  C   UNL     1       7.133   4.723  14.858  0.00  0.00    +0.000 A 
ATOM      4  C   UNL     1       7.637   5.094  16.097  0.00  0.00    +0.000 A 
ATOM      5  C   UNL     1       6.776   5.438  17.151  0.00  0.00    +0.000 A 
ATOM      6  C   UNL     1       5.407   5.348  16.902  0.00  0.00    +0.000 A 
ATOM      7  N   UNL     1       4.899   4.916  15.709  0.00  0.00    +0.000 NA
ENDROOT
BRANCH   5   8
ATOM      8  C   UNL     1       7.374   5.871  18.461  0.00  0.00    +0.000 C 
ATOM      9  N   UNL     1       7.319   5.046  19.468  0.00  0.00    +0.000 NA
ATOM     10  N   UNL     1       8.030   7.089  18.597  0.00  0.00    +0.000 N 
ATOM     11  H   UNL     1       8.354   7.217  19.551  0.00  0.00    +0.000 HD
BRANCH   9  12
ATOM     12  O   UNL     1       7.943   5.610  20.595  0.00  0.00    +0.000 OA
ATOM     13  H   UNL     1       8.371   6.400  20.210  0.00  0.00    +0.000 HD
ENDBRANCH   9  12
BRANCH  10  14
ATOM     14  C   UNL     1       7.652   8.297  17.877  0.00  0.00    +0.000 C 
BRANCH  14  15
ATOM     15  C   UNL     1       8.791   9.323  17.707  0.00  0.00    +0.000 C 
BRANCH  15  16
ATOM     16  N   UNL     1       8.561  10.540  18.521  0.00  0.00    +0.000 NA
ATOM     17  C   UNL     1       8.967  11.797  17.873  0.00  0.00    +0.000 C 
ATOM     18  C   UNL     1      10.454  11.897  18.122  0.00  0.00    +0.000 C 
ATOM     19  C   UNL     1      10.588  11.374  19.541  0.00  0.00    +0.000 C 
ATOM     20  C   UNL     1       9.349  10.507  19.769  0.00  0.00    +0.000 C 
ENDBRANCH  15  16
ENDBRANCH  14  15
ENDBRANCH  10  14
ENDBRANCH   5   8
BRANCH   6  21
ATOM     21  O   UNL     1       4.504   5.684  17.903  0.00  0.00    +0.000 OA
BRANCH  21  22
ATOM     22  C   UNL     1       3.794   4.675  18.521  0.00  0.00    +0.000 A 
ATOM     23  C   UNL     1       4.154   3.315  18.424  0.00  0.00    +0.000 A 
ATOM     24  C   UNL     1       3.353   2.338  19.015  0.00  0.00    +0.000 A 
ATOM     25  C   UNL     1       2.182   2.695  19.679  0.00  0.00    +0.000 A 
ATOM     26  C   UNL     1       1.819   4.037  19.742  0.00  0.00    +0.000 A 
ATOM     27  F   UNL     1       0.682   4.378  20.364  0.00  0.00    +0.000 F 
ATOM     28  C   UNL     1       2.613   5.029  19.164  0.00  0.00    +0.000 A 
ENDBRANCH  21  22
ENDBRANCH   6  21
TORSDOF 7
ENDMDL
MODEL 3
REMARK VINA RESULT:      -7.6      1.978      3.808
REMARK  Name = 
REMARK  8 active torsions:
REMARK  status: ('A' for Active; 'I' for Inactive)
REMARK    1  A    between atoms: C_1  and  C_2
REMARK    2  A    between atoms: C_5  and  C_6
REMARK    3  A    between atoms: N_7  and  O_8
REMARK    4  A    between atoms: N_9  and  C_10
REMARK    5  A    between atoms: C_10  and  C_11
REMARK    6  A    between atoms: C_11  and  N_12
REMARK    7  A    between atoms: C_17  and  O_18
REMARK    8  A    between atoms: O_18  and  C_19
REMARK                            x       y       z     vdW  Elec       q    Type
REMARK                         _______ _______ _______ _____ _____    ______ ____
ROOT
ATOM      1  C   UNL     1       0.440   2.408  18.915  0.00  0.00    +0.000 C 
ATOM      2  C   UNL     1       1.829   2.916  18.686  0.00  0.00    +0.000 A 
ATOM      3  C   UNL     1       2.762   2.140  18.021  0.00  0.00    +0.000 A 
ATOM      4  C   UNL     1       4.068   2.602  17.939  0.00  0.00    +0.000 A 
ATOM      5  C   UNL     1       4.419   3.862  18.448  0.00  0.00    +0.000 A 
ATOM      6  C   UNL     1       3.409   4.596  19.069  0.00  0.00    +0.000 A 
ATOM      7  N   UNL     1       2.136   4.122  19.219  0.00  0.00    +0.000 NA
ENDROOT
BRANCH   5   8
ATOM      8  C   UNL     1       5.840   4.332  18.298  0.00  0.00    +0.000 C 
ATOM      9  N   UNL     1       6.501   4.653  19.373  0.00  0.00    +0.000 NA
ATOM     10  N   UNL     1       6.470   4.366  17.060  0.00  0.00    +0.000 N 
ATOM     11  H   UNL     1       7.417   4.723  17.149  0.00  0.00    +0.000 HD
BRANCH   9  12
ATOM     12  O   UNL     1       7.810   5.046  19.041  0.00  0.00    +0.000 OA
ATOM     13  H   UNL     1       8.186   5.248  19.921  0.00  0.00    +0.000 HD
ENDBRANCH   9  12
BRANCH  10  14
ATOM     14  C   UNL     1       5.785   4.665  15.810  0.00  0.00    +0.000 C 
BRANCH  14  15
ATOM     15  C   UNL     1       6.048   3.652  14.678  0.00  0.00    +0.000 C 
BRANCH  15  16
ATOM     16  N   UNL     1       5.832   4.254  13.340  0.00  0.00    +0.000 NA
ATOM     17  C   UNL     1       4.896   3.514  12.479  0.00  0.00    +0.000 C 
ATOM     18  C   UNL     1       5.726   2.412  11.863  0.00  0.00    +0.000 C 
ATOM     19  C   UNL     1       7.050   3.106  11.596  0.00  0.00    +0.000 C 
ATOM     20  C   UNL     1       7.086   4.291  12.561  0.00  0.00    +0.000 C 
ENDBRANCH  15  16
ENDBRANCH  14  15
ENDBRANCH  10  14
ENDBRANCH   5   8
BRANCH   6  21
ATOM     21  O   UNL     1       3.693   5.854  19.585  0.00  0.00    +0.000 OA
BRANCH  21  22
ATOM     22  C   UNL     1       2.889   6.916  19.222  0.00  0.00    +0.000 A 
ATOM     23  C   UNL     1       2.951   7.525  17.951  0.00  0.00    +0.000 A 
ATOM     24  C   UNL     1       2.160   8.639  17.674  0.00  0.00    +0.000 A 
ATOM     25  C   UNL     1       1.325   9.172  18.653  0.00  0.00    +0.000 A 
ATOM     26  C   UNL     1       1.295   8.582  19.914  0.00  0.00    +0.000 A 
ATOM     27  F   UNL     1       0.506   9.107  20.862  0.00  0.00    +0.000 F 
ATOM     28  C   UNL     1       2.073   7.461  20.207  0.00  0.00    +0.000 A 
ENDBRANCH  21  22
ENDBRANCH   6  21
TORSDOF 7
ENDMDL
MODEL 4
REMARK VINA RESULT:      -7.4      2.378      4.123
REMARK  Name = 
REMARK  8 active torsions:
REMARK  status: ('A' for Active; 'I' for Inactive)
REMARK    1  A    between atoms: C_1  and  C_2
REMARK    2  A    between atoms: C_5  and  C_6
REMARK    3  A    between atoms: N_7  and  O_8
REMARK    4  A    between atoms: N_9  and  C_10
REMARK    5  A    between atoms: C_10  and  C_11
REMARK    6  A    between atoms: C_11  and  N_12
REMARK    7  A    between atoms: C_17  and  O_18
REMARK    8  A    between atoms: O_18  and  C_19
REMARK                            x       y       z     vdW  Elec       q    Type
REMARK                         _______ _______ _______ _____ _____    ______ ____
ROOT
ATOM      1  C   UNL     1       0.642   2.386  18.735  0.00  0.00    +0.000 C 
ATOM      2  C   UNL     1       2.027   2.954  18.707  0.00  0.00    +0.000 A 
ATOM      3  C   UNL     1       3.109   2.192  19.111  0.00  0.00    +0.000 A 
ATOM      4  C   UNL     1       4.355   2.798  19.182  0.00  0.00    +0.000 A 
ATOM      5  C   UNL     1       4.532   4.131  18.779  0.00  0.00    +0.000 A 
ATOM      6  C   UNL     1       3.395   4.815  18.348  0.00  0.00    +0.000 A 
ATOM      7  N   UNL     1       2.151   4.251  18.341  0.00  0.00    +0.000 NA
ENDROOT
BRANCH   5   8
ATOM      8  C   UNL     1       5.910   4.728  18.838  0.00  0.00    +0.000 C 
ATOM      9  N   UNL     1       6.375   5.095  19.998  0.00  0.00    +0.000 NA
ATOM     10  N   UNL     1       6.710   4.832  17.706  0.00  0.00    +0.000 N 
ATOM     11  H   UNL     1       7.597   5.272  17.933  0.00  0.00    +0.000 HD
BRANCH   9  12
ATOM     12  O   UNL     1       7.678   5.607  19.862  0.00  0.00    +0.000 OA
ATOM     13  H   UNL     1       7.964   5.672  20.794  0.00  0.00    +0.000 HD
ENDBRANCH   9  12
BRANCH  10  14
ATOM     14  C   UNL     1       6.191   5.083  16.369  0.00  0.00    +0.000 C 
BRANCH  14  15
ATOM     15  C   UNL     1       7.188   4.789  15.230  0.00  0.00    +0.000 C 
BRANCH  15  16
ATOM     16  N   UNL     1       6.679   5.257  13.919  0.00  0.00    +0.000 NA
ATOM     17  C   UNL     1       5.506   4.523  13.419  0.00  0.00    +0.000 C 
ATOM     18  C   UNL     1       6.073   3.282  12.770  0.00  0.00    +0.000 C 
ATOM     19  C   UNL     1       7.329   3.807  12.097  0.00  0.00    +0.000 C 
ATOM     20  C   UNL     1       7.691   5.083  12.858  0.00  0.00    +0.000 C 
ENDBRANCH  15  16
ENDBRANCH  14  15
ENDBRANCH  10  14
ENDBRANCH   5   8
BRANCH   6  21
ATOM     21  O   UNL     1       3.507   6.134  17.927  0.00  0.00    +0.000 OA
BRANCH  21  22
ATOM     22  C   UNL     1       2.784   7.105  18.590  0.00  0.00    +0.000 A 
ATOM     23  C   UNL     1       2.383   6.976  19.936  0.00  0.00    +0.000 A 
ATOM     24  C   UNL     1       1.593   7.963  20.525  0.00  0.00    +0.000 A 
ATOM     25  C   UNL     1       1.174   9.065  19.784  0.00  0.00    +0.000 A 
ATOM     26  C   UNL     1       1.550   9.167  18.447  0.00  0.00    +0.000 A 
ATOM     27  F   UNL     1       1.130  10.218  17.729  0.00  0.00    +0.000 F 
ATOM     28  C   UNL     1       2.347   8.193  17.843  0.00  0.00    +0.000 A 
ENDBRANCH  21  22
ENDBRANCH   6  21
TORSDOF 7
ENDMDL
MODEL 5
REMARK VINA RESULT:      -7.4      3.399      6.091
REMARK  Name = 
REMARK  8 active torsions:
REMARK  status: ('A' for Active; 'I' for Inactive)
REMARK    1  A    between atoms: C_1  and  C_2
REMARK    2  A    between atoms: C_5  and  C_6
REMARK    3  A    between atoms: N_7  and  O_8
REMARK    4  A    between atoms: N_9  and  C_10
REMARK    5  A    between atoms: C_10  and  C_11
REMARK    6  A    between atoms: C_11  and  N_12
REMARK    7  A    between atoms: C_17  and  O_18
REMARK    8  A    between atoms: O_18  and  C_19
REMARK                            x       y       z     vdW  Elec       q    Type
REMARK                         _______ _______ _______ _____ _____    ______ ____
ROOT
ATOM      1  C   UNL     1       5.052   4.249  13.834  0.00  0.00    +0.000 C 
ATOM      2  C   UNL     1       5.720   4.715  15.089  0.00  0.00    +0.000 A 
ATOM      3  C   UNL     1       7.086   4.573  15.255  0.00  0.00    +0.000 A 
ATOM      4  C   UNL     1       7.643   4.908  16.481  0.00  0.00    +0.000 A 
ATOM      5  C   UNL     1       6.852   5.453  17.505  0.00  0.00    +0.000 A 
ATOM      6  C   UNL     1       5.491   5.599  17.241  0.00  0.00    +0.000 A 
ATOM      7  N   UNL     1       4.919   5.207  16.063  0.00  0.00    +0.000 NA
ENDROOT
BRANCH   5   8
ATOM      8  C   UNL     1       7.511   5.836  18.801  0.00  0.00    +0.000 C 
ATOM      9  N   UNL     1       7.398   5.026  19.815  0.00  0.00    +0.000 NA
ATOM     10  N   UNL     1       8.281   6.987  18.916  0.00  0.00    +0.000 N 
ATOM     11  H   UNL     1       8.633   7.090  19.864  0.00  0.00    +0.000 HD
BRANCH   9  12
ATOM     12  O   UNL     1       8.092   5.536  20.927  0.00  0.00    +0.000 OA
ATOM     13  H   UNL     1       8.925   5.025  20.892  0.00  0.00    +0.000 HD
ENDBRANCH   9  12
BRANCH  10  14
ATOM     14  C   UNL     1       8.006   8.221  18.194  0.00  0.00    +0.000 C 
BRANCH  14  15
ATOM     15  C   UNL     1       9.145   9.260  18.244  0.00  0.00    +0.000 C 
BRANCH  15  16
ATOM     16  N   UNL     1       8.684  10.555  18.800  0.00  0.00    +0.000 NA
ATOM     17  C   UNL     1       8.909  11.714  17.923  0.00  0.00    +0.000 C 
ATOM     18  C   UNL     1      10.348  12.108  18.164  0.00  0.00    +0.000 C 
ATOM     19  C   UNL     1      10.501  11.897  19.660  0.00  0.00    +0.000 C 
ATOM     20  C   UNL     1       9.411  10.894  20.039  0.00  0.00    +0.000 C 
ENDBRANCH  15  16
ENDBRANCH  14  15
ENDBRANCH  10  14
ENDBRANCH   5   8
BRANCH   6  21
ATOM     21  O   UNL     1       4.658   6.141  18.212  0.00  0.00    +0.000 OA
BRANCH  21  22
ATOM     22  C   UNL     1       3.782   5.306  18.876  0.00  0.00    +0.000 A 
ATOM     23  C   UNL     1       2.660   5.780  19.587  0.00  0.00    +0.000 A 
ATOM     24  C   UNL     1       1.855   4.887  20.294  0.00  0.00    +0.000 A 
ATOM     25  C   UNL     1       2.168   3.530  20.325  0.00  0.00    +0.000 A 
ATOM     26  C   UNL     1       3.295   3.077  19.646  0.00  0.00    +0.000 A 
ATOM     27  F   UNL     1       3.606   1.774  19.692  0.00  0.00    +0.000 F 
ATOM     28  C   UNL     1       4.107   3.955  18.925  0.00  0.00    +0.000 A 
ENDBRANCH  21  22
ENDBRANCH   6  21
TORSDOF 7
ENDMDL
MODEL 6
REMARK VINA RESULT:      -7.4      0.888      1.296
REMARK  Name = 
REMARK  8 active torsions:
REMARK  status: ('A' for Active; 'I' for Inactive)
REMARK    1  A    between atoms: C_1  and  C_2
REMARK    2  A    between atoms: C_5  and  C_6
REMARK    3  A    between atoms: N_7  and  O_8
REMARK    4  A    between atoms: N_9  and  C_10
REMARK    5  A    between atoms: C_10  and  C_11
REMARK    6  A    between atoms: C_11  and  N_12
REMARK    7  A    between atoms: C_17  and  O_18
REMARK    8  A    between atoms: O_18  and  C_19
REMARK                            x       y       z     vdW  Elec       q    Type
REMARK                         _______ _______ _______ _____ _____    ______ ____
ROOT
ATOM      1  C   UNL     1       2.032   8.290  17.683  0.00  0.00    +0.000 C 
ATOM      2  C   UNL     1       3.262   7.440  17.611  0.00  0.00    +0.000 A 
ATOM      3  C   UNL     1       4.484   7.996  17.277  0.00  0.00    +0.000 A 
ATOM      4  C   UNL     1       5.571   7.150  17.105  0.00  0.00    +0.000 A 
ATOM      5  C   UNL     1       5.454   5.771  17.340  0.00  0.00    +0.000 A 
ATOM      6  C   UNL     1       4.195   5.299  17.712  0.00  0.00    +0.000 A 
ATOM      7  N   UNL     1       3.101   6.112  17.815  0.00  0.00    +0.000 NA
ENDROOT
BRANCH   5   8
ATOM      8  C   UNL     1       6.672   4.905  17.178  0.00  0.00    +0.000 C 
ATOM      9  N   UNL     1       7.486   4.788  18.189  0.00  0.00    +0.000 NA
ATOM     10  N   UNL     1       6.906   4.186  16.012  0.00  0.00    +0.000 N 
ATOM     11  H   UNL     1       7.780   3.671  16.077  0.00  0.00    +0.000 HD
BRANCH   9  12
ATOM     12  O   UNL     1       8.549   3.927  17.861  0.00  0.00    +0.000 OA
ATOM     13  H   UNL     1       8.325   3.129  18.380  0.00  0.00    +0.000 HD
ENDBRANCH   9  12
BRANCH  10  14
ATOM     14  C   UNL     1       6.532   4.652  14.684  0.00  0.00    +0.000 C 
BRANCH  14  15
ATOM     15  C   UNL     1       5.726   3.635  13.852  0.00  0.00    +0.000 C 
BRANCH  15  16
ATOM     16  N   UNL     1       5.882   3.869  12.396  0.00  0.00    +0.000 NA
ATOM     17  C   UNL     1       4.953   3.105  11.549  0.00  0.00    +0.000 C 
ATOM     18  C   UNL     1       5.589   1.741  11.410  0.00  0.00    +0.000 C 
ATOM     19  C   UNL     1       7.065   2.077  11.286  0.00  0.00    +0.000 C 
ATOM     20  C   UNL     1       7.220   3.457  11.927  0.00  0.00    +0.000 C 
ENDBRANCH  15  16
ENDBRANCH  14  15
ENDBRANCH  10  14
ENDBRANCH   5   8
BRANCH   6  21
ATOM     21  O   UNL     1       4.019   3.945  17.967  0.00  0.00    +0.000 OA
BRANCH  21  22
ATOM     22  C   UNL     1       3.120   3.567  18.944  0.00  0.00    +0.000 A 
ATOM     23  C   UNL     1       3.469   3.459  20.306  0.00  0.00    +0.000 A 
ATOM     24  C   UNL     1       2.530   3.003  21.232  0.00  0.00    +0.000 A 
ATOM     25  C   UNL     1       1.255   2.630  20.816  0.00  0.00    +0.000 A 
ATOM     26  C   UNL     1       0.931   2.711  19.465  0.00  0.00    +0.000 A 
ATOM     27  F   UNL     1      -0.291   2.332  19.062  0.00  0.00    +0.000 F 
ATOM     28  C   UNL     1       1.854   3.172  18.525  0.00  0.00    +0.000 A 
ENDBRANCH  21  22
ENDBRANCH   6  21
TORSDOF 7
ENDMDL
MODEL 7
REMARK VINA RESULT:      -7.4      1.011      1.083
REMARK  Name = 
REMARK  8 active torsions:
REMARK  status: ('A' for Active; 'I' for Inactive)
REMARK    1  A    between atoms: C_1  and  C_2
REMARK    2  A    between atoms: C_5  and  C_6
REMARK    3  A    between atoms: N_7  and  O_8
REMARK    4  A    between atoms: N_9  and  C_10
REMARK    5  A    between atoms: C_10  and  C_11
REMARK    6  A    between atoms: C_11  and  N_12
REMARK    7  A    between atoms: C_17  and  O_18
REMARK    8  A    between atoms: O_18  and  C_19
REMARK                            x       y       z     vdW  Elec       q    Type
REMARK                         _______ _______ _______ _____ _____    ______ ____
ROOT
ATOM      1  C   UNL     1       1.727   8.656  18.125  0.00  0.00    +0.000 C 
ATOM      2  C   UNL     1       2.924   7.761  18.042  0.00  0.00    +0.000 A 
ATOM      3  C   UNL     1       3.888   7.961  17.070  0.00  0.00    +0.000 A 
ATOM      4  C   UNL     1       4.916   7.035  16.957  0.00  0.00    +0.000 A 
ATOM      5  C   UNL     1       5.020   5.963  17.856  0.00  0.00    +0.000 A 
ATOM      6  C   UNL     1       4.028   5.857  18.830  0.00  0.00    +0.000 A 
ATOM      7  N   UNL     1       2.972   6.721  18.908  0.00  0.00    +0.000 NA
ENDROOT
BRANCH   5   8
ATOM      8  C   UNL     1       6.175   5.010  17.714  0.00  0.00    +0.000 C 
ATOM      9  N   UNL     1       7.181   5.132  18.534  0.00  0.00    +0.000 NA
ATOM     10  N   UNL     1       6.160   3.979  16.784  0.00  0.00    +0.000 N 
ATOM     11  H   UNL     1       7.027   3.449  16.821  0.00  0.00    +0.000 HD
BRANCH   9  12
ATOM     12  O   UNL     1       8.150   4.149  18.266  0.00  0.00    +0.000 OA
ATOM     13  H   UNL     1       8.955   4.556  18.643  0.00  0.00    +0.000 HD
ENDBRANCH   9  12
BRANCH  10  14
ATOM     14  C   UNL     1       5.520   4.073  15.479  0.00  0.00    +0.000 C 
BRANCH  14  15
ATOM     15  C   UNL     1       6.290   3.382  14.337  0.00  0.00    +0.000 C 
BRANCH  15  16
ATOM     16  N   UNL     1       5.977   3.984  13.019  0.00  0.00    +0.000 NA
ATOM     17  C   UNL     1       4.940   3.276  12.252  0.00  0.00    +0.000 C 
ATOM     18  C   UNL     1       5.670   2.140  11.573  0.00  0.00    +0.000 C 
ATOM     19  C   UNL     1       6.989   2.783  11.182  0.00  0.00    +0.000 C 
ATOM     20  C   UNL     1       7.155   3.971  12.130  0.00  0.00    +0.000 C 
ENDBRANCH  15  16
ENDBRANCH  14  15
ENDBRANCH  10  14
ENDBRANCH   5   8
BRANCH   6  21
ATOM     21  O   UNL     1       4.082   4.821  19.755  0.00  0.00    +0.000 OA
BRANCH  21  22
ATOM     22  C   UNL     1       3.057   3.897  19.775  0.00  0.00    +0.000 A 
ATOM     23  C   UNL     1       2.549   3.290  18.607  0.00  0.00    +0.000 A 
ATOM     24  C   UNL     1       1.465   2.417  18.691  0.00  0.00    +0.000 A 
ATOM     25  C   UNL     1       0.863   2.158  19.919  0.00  0.00    +0.000 A 
ATOM     26  C   UNL     1       1.352   2.786  21.061  0.00  0.00    +0.000 A 
ATOM     27  F   UNL     1       0.759   2.551  22.241  0.00  0.00    +0.000 F 
ATOM     28  C   UNL     1       2.441   3.656  20.998  0.00  0.00    +0.000 A 
ENDBRANCH  21  22
ENDBRANCH   6  21
TORSDOF 7
ENDMDL
MODEL 8
REMARK VINA RESULT:      -7.3      3.461      6.288
REMARK  Name = 
REMARK  8 active torsions:
REMARK  status: ('A' for Active; 'I' for Inactive)
REMARK    1  A    between atoms: C_1  and  C_2
REMARK    2  A    between atoms: C_5  and  C_6
REMARK    3  A    between atoms: N_7  and  O_8
REMARK    4  A    between atoms: N_9  and  C_10
REMARK    5  A    between atoms: C_10  and  C_11
REMARK    6  A    between atoms: C_11  and  N_12
REMARK    7  A    between atoms: C_17  and  O_18
REMARK    8  A    between atoms: O_18  and  C_19
REMARK                            x       y       z     vdW  Elec       q    Type
REMARK                         _______ _______ _______ _____ _____    ______ ____
ROOT
ATOM      1  C   UNL     1       5.249   3.823  13.449  0.00  0.00    +0.000 C 
ATOM      2  C   UNL     1       5.820   4.394  14.709  0.00  0.00    +0.000 A 
ATOM      3  C   UNL     1       7.052   5.024  14.702  0.00  0.00    +0.000 A 
ATOM      4  C   UNL     1       7.594   5.431  15.913  0.00  0.00    +0.000 A 
ATOM      5  C   UNL     1       6.876   5.279  17.110  0.00  0.00    +0.000 A 
ATOM      6  C   UNL     1       5.624   4.669  17.022  0.00  0.00    +0.000 A 
ATOM      7  N   UNL     1       5.111   4.201  15.846  0.00  0.00    +0.000 NA
ENDROOT
BRANCH   5   8
ATOM      8  C   UNL     1       7.492   5.772  18.390  0.00  0.00    +0.000 C 
ATOM      9  N   UNL     1       7.562   4.950  19.398  0.00  0.00    +0.000 NA
ATOM     10  N   UNL     1       8.037   7.046  18.494  0.00  0.00    +0.000 N 
ATOM     11  H   UNL     1       8.392   7.209  19.432  0.00  0.00    +0.000 HD
BRANCH   9  12
ATOM     12  O   UNL     1       8.184   5.576  20.494  0.00  0.00    +0.000 OA
ATOM     13  H   UNL     1       8.156   6.516  20.228  0.00  0.00    +0.000 HD
ENDBRANCH   9  12
BRANCH  10  14
ATOM     14  C   UNL     1       7.514   8.211  17.793  0.00  0.00    +0.000 C 
BRANCH  14  15
ATOM     15  C   UNL     1       8.562   9.302  17.495  0.00  0.00    +0.000 C 
BRANCH  15  16
ATOM     16  N   UNL     1       8.440  10.449  18.427  0.00  0.00    +0.000 NA
ATOM     17  C   UNL     1       8.762  11.757  17.834  0.00  0.00    +0.000 C 
ATOM     18  C   UNL     1      10.269  11.849  17.896  0.00  0.00    +0.000 C 
ATOM     19  C   UNL     1      10.583  11.217  19.241  0.00  0.00    +0.000 C 
ATOM     20  C   UNL     1       9.383  10.324  19.556  0.00  0.00    +0.000 C 
ENDBRANCH  15  16
ENDBRANCH  14  15
ENDBRANCH  10  14
ENDBRANCH   5   8
BRANCH   6  21
ATOM     21  O   UNL     1       4.862   4.499  18.171  0.00  0.00    +0.000 OA
BRANCH  21  22
ATOM     22  C   UNL     1       4.005   5.511  18.553  0.00  0.00    +0.000 A 
ATOM     23  C   UNL     1       3.222   5.451  19.725  0.00  0.00    +0.000 A 
ATOM     24  C   UNL     1       2.323   6.477  20.016  0.00  0.00    +0.000 A 
ATOM     25  C   UNL     1       2.174   7.551  19.142  0.00  0.00    +0.000 A 
ATOM     26  C   UNL     1       2.929   7.586  17.973  0.00  0.00    +0.000 A 
ATOM     27  F   UNL     1       2.771   8.610  17.123  0.00  0.00    +0.000 F 
ATOM     28  C   UNL     1       3.839   6.572  17.670  0.00  0.00    +0.000 A 
ENDBRANCH  21  22
ENDBRANCH   6  21
TORSDOF 7
ENDMDL
MODEL 9
REMARK VINA RESULT:      -7.2      3.197      6.042
REMARK  Name = 
REMARK  8 active torsions:
REMARK  status: ('A' for Active; 'I' for Inactive)
REMARK    1  A    between atoms: C_1  and  C_2
REMARK    2  A    between atoms: C_5  and  C_6
REMARK    3  A    between atoms: N_7  and  O_8
REMARK    4  A    between atoms: N_9  and  C_10
REMARK    5  A    between atoms: C_10  and  C_11
REMARK    6  A    between atoms: C_11  and  N_12
REMARK    7  A    between atoms: C_17  and  O_18
REMARK    8  A    between atoms: O_18  and  C_19
REMARK                            x       y       z     vdW  Elec       q    Type
REMARK                         _______ _______ _______ _____ _____    ______ ____
ROOT
ATOM      1  C   UNL     1       5.217   3.932  13.168  0.00  0.00    +0.000 C 
ATOM      2  C   UNL     1       5.785   4.488  14.437  0.00  0.00    +0.000 A 
ATOM      3  C   UNL     1       7.138   4.386  14.707  0.00  0.00    +0.000 A 
ATOM      4  C   UNL     1       7.599   4.807  15.946  0.00  0.00    +0.000 A 
ATOM      5  C   UNL     1       6.727   5.396  16.876  0.00  0.00    +0.000 A 
ATOM      6  C   UNL     1       5.386   5.495  16.508  0.00  0.00    +0.000 A 
ATOM      7  N   UNL     1       4.907   5.020  15.320  0.00  0.00    +0.000 NA
ENDROOT
BRANCH   5   8
ATOM      8  C   UNL     1       7.285   5.871  18.189  0.00  0.00    +0.000 C 
ATOM      9  N   UNL     1       7.093   5.133  19.245  0.00  0.00    +0.000 NA
ATOM     10  N   UNL     1       8.044   7.031  18.282  0.00  0.00    +0.000 N 
ATOM     11  H   UNL     1       8.322   7.202  19.245  0.00  0.00    +0.000 HD
BRANCH   9  12
ATOM     12  O   UNL     1       7.700   5.722  20.369  0.00  0.00    +0.000 OA
ATOM     13  H   UNL     1       6.945   5.800  20.984  0.00  0.00    +0.000 HD
ENDBRANCH   9  12
BRANCH  10  14
ATOM     14  C   UNL     1       7.826   8.211  17.457  0.00  0.00    +0.000 C 
BRANCH  14  15
ATOM     15  C   UNL     1       7.836   9.544  18.231  0.00  0.00    +0.000 C 
BRANCH  15  16
ATOM     16  N   UNL     1       9.202  10.112  18.332  0.00  0.00    +0.000 NA
ATOM     17  C   UNL     1       9.722  10.217  19.704  0.00  0.00    +0.000 C 
ATOM     18  C   UNL     1       9.135  11.501  20.243  0.00  0.00    +0.000 C 
ATOM     19  C   UNL     1       9.199  12.424  19.039  0.00  0.00    +0.000 C 
ATOM     20  C   UNL     1       9.245  11.497  17.823  0.00  0.00    +0.000 C 
ENDBRANCH  15  16
ENDBRANCH  14  15
ENDBRANCH  10  14
ENDBRANCH   5   8
BRANCH   6  21
ATOM     21  O   UNL     1       4.476   6.077  17.383  0.00  0.00    +0.000 OA
BRANCH  21  22
ATOM     22  C   UNL     1       3.521   5.275  17.974  0.00  0.00    +0.000 A 
ATOM     23  C   UNL     1       3.096   4.051  17.418  0.00  0.00    +0.000 A 
ATOM     24  C   UNL     1       2.076   3.323  18.030  0.00  0.00    +0.000 A 
ATOM     25  C   UNL     1       1.455   3.811  19.177  0.00  0.00    +0.000 A 
ATOM     26  C   UNL     1       1.860   5.035  19.701  0.00  0.00    +0.000 A 
ATOM     27  F   UNL     1       1.248   5.514  20.793  0.00  0.00    +0.000 F 
ATOM     28  C   UNL     1       2.885   5.773  19.106  0.00  0.00    +0.000 A 
ENDBRANCH  21  22
ENDBRANCH   6  21
TORSDOF 7
ENDMDL
