MODEL 1
REMARK VINA RESULT:      -7.6      0.000      0.000
REMARK  Name = 
REMARK  10 active torsions:
REMARK  status: ('A' for Active; 'I' for Inactive)
REMARK    1  A    between atoms: C_1  and  C_2
REMARK    2  A    between atoms: C_2  and  C_3
REMARK    3  A    between atoms: C_3  and  C_4
REMARK    4  A    between atoms: C_4  and  C_5
REMARK    5  A    between atoms: C_5  and  C_6
REMARK    6  A    between atoms: C_6  and  N_7
REMARK    7  A    between atoms: C_10  and  N_11
REMARK    8  A    between atoms: N_11  and  C_12
REMARK    9  A    between atoms: C_12  and  C_13
REMARK   10  A    between atoms: C_17  and  C_18
REMARK                            x       y       z     vdW  Elec       q    Type
REMARK                         _______ _______ _______ _____ _____    ______ ____
ROOT
ATOM      1  N   UNL     1       4.051   6.476  17.455  0.00  0.00    +0.000 NA
ATOM      2  H   UNL     1       3.732   6.077  16.580  0.00  0.00    +0.000 HD
ENDROOT
BRANCH   1   6
ATOM      3  N   UNL     1       6.749   4.720  15.766  0.00  0.00    +0.000 NA
ATOM      4  C   UNL     1       6.853   6.102  16.269  0.00  0.00    +0.000 C 
ATOM      5  C   UNL     1       6.500   6.203  17.753  0.00  0.00    +0.000 C 
ATOM      6  C   UNL     1       5.106   5.634  18.054  0.00  0.00    +0.000 C 
ATOM      7  C   UNL     1       5.102   4.185  17.550  0.00  0.00    +0.000 C 
ATOM      8  C   UNL     1       5.437   4.118  16.061  0.00  0.00    +0.000 C 
BRANCH   3   9
ATOM      9  C   UNL     1       7.010   4.649  14.317  0.00  0.00    +0.000 C 
BRANCH   9  10
ATOM     10  C   UNL     1       5.878   4.025  13.497  0.00  0.00    +0.000 C 
BRANCH  10  11
ATOM     11  C   UNL     1       6.364   3.197  12.305  0.00  0.00    +0.000 C 
BRANCH  11  12
ATOM     12  C   UNL     1       5.159   2.625  11.558  0.00  0.00    +0.000 C 
BRANCH  12  14
ATOM     13  C   UNL     1       3.023   3.097  10.346  0.00  0.00    +0.000 C 
ATOM     14  C   UNL     1       4.219   3.714  11.053  0.00  0.00    +0.000 C 
ENDBRANCH  12  14
ENDBRANCH  11  12
ENDBRANCH  10  11
ENDBRANCH   9  10
ENDBRANCH   3   9
ENDBRANCH   1   6
BRANCH   1  15
ATOM     15  C   UNL     1       2.893   6.654  18.337  0.00  0.00    +0.000 C 
BRANCH  15  16
ATOM     16  C   UNL     1       2.267   5.326  18.692  0.00  0.00    +0.000 A 
ATOM     17  C   UNL     1       1.493   4.618  17.762  0.00  0.00    +0.000 A 
ATOM     18  C   UNL     1       0.923   3.390  18.103  0.00  0.00    +0.000 A 
ATOM     19  C   UNL     1       1.120   2.859  19.379  0.00  0.00    +0.000 A 
ATOM     20  C   UNL     1       1.891   3.549  20.325  0.00  0.00    +0.000 A 
ATOM     21  C   UNL     1       2.471   4.773  19.964  0.00  0.00    +0.000 A 
BRANCH  20  22
ATOM     22  C   UNL     1       2.105   3.012  21.716  0.00  0.00    +0.000 C 
ATOM     23  F   UNL     1       1.026   2.346  22.214  0.00  0.00    +0.000 F 
ATOM     24  F   UNL     1       3.147   2.137  21.788  0.00  0.00    +0.000 F 
ATOM     25  F   UNL     1       2.382   3.997  22.616  0.00  0.00    +0.000 F 
ENDBRANCH  20  22
ENDBRANCH  15  16
ENDBRANCH   1  15
TORSDOF 9
ENDMDL
MODEL 2
REMARK VINA RESULT:      -7.6      3.971      7.664
REMARK  Name = 
REMARK  10 active torsions:
REMARK  status: ('A' for Active; 'I' for Inactive)
REMARK    1  A    between atoms: C_1  and  C_2
REMARK    2  A    between atoms: C_2  and  C_3
REMARK    3  A    between atoms: C_3  and  C_4
REMARK    4  A    between atoms: C_4  and  C_5
REMARK    5  A    between atoms: C_5  and  C_6
REMARK    6  A    between atoms: C_6  and  N_7
REMARK    7  A    between atoms: C_10  and  N_11
REMARK    8  A    between atoms: N_11  and  C_12
REMARK    9  A    between atoms: C_12  and  C_13
REMARK   10  A    between atoms: C_17  and  C_18
REMARK                            x       y       z     vdW  Elec       q    Type
REMARK                         _______ _______ _______ _____ _____    ______ ____
ROOT
ATOM      1  N   UNL     1       4.645   4.998  16.605  0.00  0.00    +0.000 NA
ATOM      2  H   UNL     1       4.233   5.300  15.730  0.00  0.00    +0.000 HD
ENDROOT
BRANCH   1   6
ATOM      3  N   UNL     1       2.984   5.989  19.682  0.00  0.00    +0.000 NA
ATOM      4  C   UNL     1       4.148   5.087  19.629  0.00  0.00    +0.000 C 
ATOM      5  C   UNL     1       5.328   5.710  18.883  0.00  0.00    +0.000 C 
ATOM      6  C   UNL     1       4.941   6.160  17.466  0.00  0.00    +0.000 C 
ATOM      7  C   UNL     1       3.765   7.134  17.617  0.00  0.00    +0.000 C 
ATOM      8  C   UNL     1       2.595   6.476  18.347  0.00  0.00    +0.000 C 
BRANCH   3   9
ATOM      9  C   UNL     1       1.827   5.346  20.330  0.00  0.00    +0.000 C 
BRANCH   9  10
ATOM     10  C   UNL     1       2.188   4.214  21.296  0.00  0.00    +0.000 C 
BRANCH  10  11
ATOM     11  C   UNL     1       1.353   2.946  21.099  0.00  0.00    +0.000 C 
BRANCH  11  12
ATOM     12  C   UNL     1       0.847   2.889  19.658  0.00  0.00    +0.000 C 
BRANCH  12  14
ATOM     13  C   UNL     1       2.310   2.597  17.650  0.00  0.00    +0.000 C 
ATOM     14  C   UNL     1       1.625   1.890  18.808  0.00  0.00    +0.000 C 
ENDBRANCH  12  14
ENDBRANCH  11  12
ENDBRANCH  10  11
ENDBRANCH   9  10
ENDBRANCH   3   9
ENDBRANCH   1   6
BRANCH   1  15
ATOM     15  C   UNL     1       5.833   4.191  16.307  0.00  0.00    +0.000 C 
BRANCH  15  16
ATOM     16  C   UNL     1       6.183   4.256  14.838  0.00  0.00    +0.000 A 
ATOM     17  C   UNL     1       7.368   4.866  14.402  0.00  0.00    +0.000 A 
ATOM     18  C   UNL     1       7.680   4.915  13.042  0.00  0.00    +0.000 A 
ATOM     19  C   UNL     1       6.809   4.356  12.105  0.00  0.00    +0.000 A 
ATOM     20  C   UNL     1       5.620   3.740  12.519  0.00  0.00    +0.000 A 
ATOM     21  C   UNL     1       5.326   3.683  13.888  0.00  0.00    +0.000 A 
BRANCH  20  22
ATOM     22  C   UNL     1       4.651   3.147  11.530  0.00  0.00    +0.000 C 
ATOM     23  F   UNL     1       4.459   3.920  10.425  0.00  0.00    +0.000 F 
ATOM     24  F   UNL     1       5.050   1.930  11.067  0.00  0.00    +0.000 F 
ATOM     25  F   UNL     1       3.413   2.954  12.068  0.00  0.00    +0.000 F 
ENDBRANCH  20  22
ENDBRANCH  15  16
ENDBRANCH   1  15
TORSDOF 9
ENDMDL
MODEL 3
REMARK VINA RESULT:      -7.5      3.166      5.296
REMARK  Name = 
REMARK  10 active torsions:
REMARK  status: ('A' for Active; 'I' for Inactive)
REMARK    1  A    between atoms: C_1  and  C_2
REMARK    2  A    between atoms: C_2  and  C_3
REMARK    3  A    between atoms: C_3  and  C_4
REMARK    4  A    between atoms: C_4  and  C_5
REMARK    5  A    between atoms: C_5  and  C_6
REMARK    6  A    between atoms: C_6  and  N_7
REMARK    7  A    between atoms: C_10  and  N_11
REMARK    8  A    between atoms: N_11  and  C_12
REMARK    9  A    between atoms: C_12  and  C_13
REMARK   10  A    between atoms: C_17  and  C_18
REMARK                            x       y       z     vdW  Elec       q    Type
REMARK                         _______ _______ _______ _____ _____    ______ ____
ROOT
ATOM      1  N   UNL     1       2.758   5.398  20.901  0.00  0.00    +0.000 NA
ATOM      2  H   UNL     1       3.719   5.086  20.815  0.00  0.00    +0.000 HD
ENDROOT
BRANCH   1   6
ATOM      3  N   UNL     1       2.345   2.263  19.108  0.00  0.00    +0.000 NA
ATOM      4  C   UNL     1       3.335   2.474  20.180  0.00  0.00    +0.000 C 
ATOM      5  C   UNL     1       2.689   2.983  21.469  0.00  0.00    +0.000 C 
ATOM      6  C   UNL     1       1.874   4.265  21.239  0.00  0.00    +0.000 C 
ATOM      7  C   UNL     1       0.839   3.941  20.155  0.00  0.00    +0.000 C 
ATOM      8  C   UNL     1       1.515   3.457  18.874  0.00  0.00    +0.000 C 
BRANCH   3   9
ATOM      9  C   UNL     1       2.989   1.854  17.847  0.00  0.00    +0.000 C 
BRANCH   9  10
ATOM     10  C   UNL     1       4.331   2.536  17.569  0.00  0.00    +0.000 C 
BRANCH  10  11
ATOM     11  C   UNL     1       4.282   3.550  16.423  0.00  0.00    +0.000 C 
BRANCH  11  12
ATOM     12  C   UNL     1       5.659   3.642  15.767  0.00  0.00    +0.000 C 
BRANCH  12  14
ATOM     13  C   UNL     1       6.996   4.854  14.035  0.00  0.00    +0.000 C 
ATOM     14  C   UNL     1       5.613   4.355  14.420  0.00  0.00    +0.000 C 
ENDBRANCH  12  14
ENDBRANCH  11  12
ENDBRANCH  10  11
ENDBRANCH   9  10
ENDBRANCH   3   9
ENDBRANCH   1   6
BRANCH   1  15
ATOM     15  C   UNL     1       2.372   6.071  19.656  0.00  0.00    +0.000 C 
BRANCH  15  16
ATOM     16  C   UNL     1       3.578   6.348  18.788  0.00  0.00    +0.000 A 
ATOM     17  C   UNL     1       3.453   7.045  17.578  0.00  0.00    +0.000 A 
ATOM     18  C   UNL     1       4.576   7.297  16.787  0.00  0.00    +0.000 A 
ATOM     19  C   UNL     1       5.834   6.853  17.200  0.00  0.00    +0.000 A 
ATOM     20  C   UNL     1       5.982   6.156  18.407  0.00  0.00    +0.000 A 
ATOM     21  C   UNL     1       4.849   5.923  19.199  0.00  0.00    +0.000 A 
BRANCH  20  22
ATOM     22  C   UNL     1       7.322   5.647  18.868  0.00  0.00    +0.000 C 
ATOM     23  F   UNL     1       8.331   6.548  18.708  0.00  0.00    +0.000 F 
ATOM     24  F   UNL     1       7.331   5.310  20.189  0.00  0.00    +0.000 F 
ATOM     25  F   UNL     1       7.713   4.529  18.195  0.00  0.00    +0.000 F 
ENDBRANCH  20  22
ENDBRANCH  15  16
ENDBRANCH   1  15
TORSDOF 9
ENDMDL
MODEL 4
REMARK VINA RESULT:      -7.5      0.833      1.192
REMARK  Name = 
REMARK  10 active torsions:
REMARK  status: ('A' for Active; 'I' for Inactive)
REMARK    1  A    between atoms: C_1  and  C_2
REMARK    2  A    between atoms: C_2  and  C_3
REMARK    3  A    between atoms: C_3  and  C_4
REMARK    4  A    between atoms: C_4  and  C_5
REMARK    5  A    between atoms: C_5  and  C_6
REMARK    6  A    between atoms: C_6  and  N_7
REMARK    7  A    between atoms: C_10  and  N_11
REMARK    8  A    between atoms: N_11  and  C_12
REMARK    9  A    between atoms: C_12  and  C_13
REMARK   10  A    between atoms: C_17  and  C_18
REMARK                            x       y       z     vdW  Elec       q    Type
REMARK                         _______ _______ _______ _____ _____    ______ ____
ROOT
ATOM      1  N   UNL     1       4.302   6.549  17.483  0.00  0.00    +0.000 NA
ATOM      2  H   UNL     1       3.923   6.086  16.665  0.00  0.00    +0.000 HD
ENDROOT
BRANCH   1   6
ATOM      3  N   UNL     1       6.761   4.633  15.615  0.00  0.00    +0.000 NA
ATOM      4  C   UNL     1       6.894   6.069  15.917  0.00  0.00    +0.000 C 
ATOM      5  C   UNL     1       6.776   6.356  17.414  0.00  0.00    +0.000 C 
ATOM      6  C   UNL     1       5.468   5.809  18.005  0.00  0.00    +0.000 C 
ATOM      7  C   UNL     1       5.437   4.307  17.694  0.00  0.00    +0.000 C 
ATOM      8  C   UNL     1       5.535   4.053  16.191  0.00  0.00    +0.000 C 
BRANCH   3   9
ATOM      9  C   UNL     1       6.793   4.379  14.163  0.00  0.00    +0.000 C 
BRANCH   9  10
ATOM     10  C   UNL     1       5.554   3.664  13.616  0.00  0.00    +0.000 C 
BRANCH  10  11
ATOM     11  C   UNL     1       5.621   3.378  12.114  0.00  0.00    +0.000 C 
BRANCH  11  12
ATOM     12  C   UNL     1       7.080   3.200  11.695  0.00  0.00    +0.000 C 
BRANCH  12  14
ATOM     13  C   UNL     1       6.074   0.997  11.069  0.00  0.00    +0.000 C 
ATOM     14  C   UNL     1       7.354   1.817  11.116  0.00  0.00    +0.000 C 
ENDBRANCH  12  14
ENDBRANCH  11  12
ENDBRANCH  10  11
ENDBRANCH   9  10
ENDBRANCH   3   9
ENDBRANCH   1   6
BRANCH   1  15
ATOM     15  C   UNL     1       3.230   6.698  18.473  0.00  0.00    +0.000 C 
BRANCH  15  16
ATOM     16  C   UNL     1       2.542   5.379  18.737  0.00  0.00    +0.000 A 
ATOM     17  C   UNL     1       1.833   4.718  17.724  0.00  0.00    +0.000 A 
ATOM     18  C   UNL     1       1.204   3.498  17.981  0.00  0.00    +0.000 A 
ATOM     19  C   UNL     1       1.278   2.929  19.254  0.00  0.00    +0.000 A 
ATOM     20  C   UNL     1       1.982   3.572  20.281  0.00  0.00    +0.000 A 
ATOM     21  C   UNL     1       2.622   4.789  20.005  0.00  0.00    +0.000 A 
BRANCH  20  22
ATOM     22  C   UNL     1       2.062   2.994  21.669  0.00  0.00    +0.000 C 
ATOM     23  F   UNL     1       0.905   2.404  22.080  0.00  0.00    +0.000 F 
ATOM     24  F   UNL     1       3.027   2.040  21.787  0.00  0.00    +0.000 F 
ATOM     25  F   UNL     1       2.352   3.937  22.609  0.00  0.00    +0.000 F 
ENDBRANCH  20  22
ENDBRANCH  15  16
ENDBRANCH   1  15
TORSDOF 9
ENDMDL
MODEL 5
REMARK VINA RESULT:      -7.3      4.581      6.757
REMARK  Name = 
REMARK  10 active torsions:
REMARK  status: ('A' for Active; 'I' for Inactive)
REMARK    1  A    between atoms: C_1  and  C_2
REMARK    2  A    between atoms: C_2  and  C_3
REMARK    3  A    between atoms: C_3  and  C_4
REMARK    4  A    between atoms: C_4  and  C_5
REMARK    5  A    between atoms: C_5  and  C_6
REMARK    6  A    between atoms: C_6  and  N_7
REMARK    7  A    between atoms: C_10  and  N_11
REMARK    8  A    between atoms: N_11  and  C_12
REMARK    9  A    between atoms: C_12  and  C_13
REMARK   10  A    between atoms: C_17  and  C_18
REMARK                            x       y       z     vdW  Elec       q    Type
REMARK                         _______ _______ _______ _____ _____    ______ ____
ROOT
ATOM      1  N   UNL     1       3.149   6.661  17.976  0.00  0.00    +0.000 NA
ATOM      2  H   UNL     1       2.821   6.420  18.905  0.00  0.00    +0.000 HD
ENDROOT
BRANCH   1   6
ATOM      3  N   UNL     1       4.513   3.296  18.141  0.00  0.00    +0.000 NA
ATOM      4  C   UNL     1       4.007   3.919  16.905  0.00  0.00    +0.000 C 
ATOM      5  C   UNL     1       4.682   5.260  16.617  0.00  0.00    +0.000 C 
ATOM      6  C   UNL     1       4.551   6.237  17.795  0.00  0.00    +0.000 C 
ATOM      7  C   UNL     1       5.148   5.533  19.021  0.00  0.00    +0.000 C 
ATOM      8  C   UNL     1       4.439   4.209  19.296  0.00  0.00    +0.000 C 
BRANCH   3   9
ATOM      9  C   UNL     1       3.796   2.047  18.452  0.00  0.00    +0.000 C 
BRANCH   9  10
ATOM     10  C   UNL     1       2.361   1.989  17.922  0.00  0.00    +0.000 C 
BRANCH  10  11
ATOM     11  C   UNL     1       1.295   2.094  19.016  0.00  0.00    +0.000 C 
BRANCH  11  12
ATOM     12  C   UNL     1       0.936   3.563  19.236  0.00  0.00    +0.000 C 
BRANCH  12  14
ATOM     13  C   UNL     1       1.539   2.820  21.547  0.00  0.00    +0.000 C 
ATOM     14  C   UNL     1       1.175   4.010  20.674  0.00  0.00    +0.000 C 
ENDBRANCH  12  14
ENDBRANCH  11  12
ENDBRANCH  10  11
ENDBRANCH   9  10
ENDBRANCH   3   9
ENDBRANCH   1   6
BRANCH   1  15
ATOM     15  C   UNL     1       2.956   8.100  17.772  0.00  0.00    +0.000 C 
BRANCH  15  16
ATOM     16  C   UNL     1       1.879   8.642  18.683  0.00  0.00    +0.000 A 
ATOM     17  C   UNL     1       1.780   8.223  20.017  0.00  0.00    +0.000 A 
ATOM     18  C   UNL     1       0.781   8.734  20.848  0.00  0.00    +0.000 A 
ATOM     19  C   UNL     1      -0.129   9.669  20.351  0.00  0.00    +0.000 A 
ATOM     20  C   UNL     1      -0.048  10.103  19.021  0.00  0.00    +0.000 A 
ATOM     21  C   UNL     1       0.969   9.594  18.202  0.00  0.00    +0.000 A 
BRANCH  20  22
ATOM     22  C   UNL     1      -1.029  11.094  18.451  0.00  0.00    +0.000 C 
ATOM     23  F   UNL     1      -0.469  12.298  18.143  0.00  0.00    +0.000 F 
ATOM     24  F   UNL     1      -1.615  10.653  17.302  0.00  0.00    +0.000 F 
ATOM     25  F   UNL     1      -2.050  11.368  19.310  0.00  0.00    +0.000 F 
ENDBRANCH  20  22
ENDBRANCH  15  16
ENDBRANCH   1  15
TORSDOF 9
ENDMDL
MODEL 6
REMARK VINA RESULT:      -7.2      1.708      2.270
REMARK  Name = 
REMARK  10 active torsions:
REMARK  status: ('A' for Active; 'I' for Inactive)
REMARK    1  A    between atoms: C_1  and  C_2
REMARK    2  A    between atoms: C_2  and  C_3
REMARK    3  A    between atoms: C_3  and  C_4
REMARK    4  A    between atoms: C_4  and  C_5
REMARK    5  A    between atoms: C_5  and  C_6
REMARK    6  A    between atoms: C_6  and  N_7
REMARK    7  A    between atoms: C_10  and  N_11
REMARK    8  A    between atoms: N_11  and  C_12
REMARK    9  A    between atoms: C_12  and  C_13
REMARK   10  A    between atoms: C_17  and  C_18
REMARK                            x       y       z     vdW  Elec       q    Type
REMARK                         _______ _______ _______ _____ _____    ______ ____
ROOT
ATOM      1  N   UNL     1       6.207   5.532  19.259  0.00  0.00    +0.000 NA
ATOM      2  H   UNL     1       5.488   6.030  18.747  0.00  0.00    +0.000 HD
ENDROOT
BRANCH   1   6
ATOM      3  N   UNL     1       7.048   5.653  15.725  0.00  0.00    +0.000 NA
ATOM      4  C   UNL     1       6.647   6.830  16.516  0.00  0.00    +0.000 C 
ATOM      5  C   UNL     1       7.519   7.013  17.759  0.00  0.00    +0.000 C 
ATOM      6  C   UNL     1       7.530   5.758  18.645  0.00  0.00    +0.000 C 
ATOM      7  C   UNL     1       8.009   4.599  17.762  0.00  0.00    +0.000 C 
ATOM      8  C   UNL     1       7.107   4.427  16.541  0.00  0.00    +0.000 C 
BRANCH   3   9
ATOM      9  C   UNL     1       6.150   5.439  14.576  0.00  0.00    +0.000 C 
BRANCH   9  10
ATOM     10  C   UNL     1       6.020   3.980  14.134  0.00  0.00    +0.000 C 
BRANCH  10  11
ATOM     11  C   UNL     1       6.664   3.687  12.777  0.00  0.00    +0.000 C 
BRANCH  11  12
ATOM     12  C   UNL     1       5.793   2.699  12.003  0.00  0.00    +0.000 C 
BRANCH  12  14
ATOM     13  C   UNL     1       6.149   0.363  11.181  0.00  0.00    +0.000 C 
ATOM     14  C   UNL     1       6.610   1.808  11.074  0.00  0.00    +0.000 C 
ENDBRANCH  12  14
ENDBRANCH  11  12
ENDBRANCH  10  11
ENDBRANCH   9  10
ENDBRANCH   3   9
ENDBRANCH   1   6
BRANCH   1  15
ATOM     15  C   UNL     1       5.840   4.114  19.319  0.00  0.00    +0.000 C 
BRANCH  15  16
ATOM     16  C   UNL     1       4.423   3.895  18.840  0.00  0.00    +0.000 A 
ATOM     17  C   UNL     1       4.135   3.743  17.477  0.00  0.00    +0.000 A 
ATOM     18  C   UNL     1       2.823   3.538  17.048  0.00  0.00    +0.000 A 
ATOM     19  C   UNL     1       1.785   3.486  17.981  0.00  0.00    +0.000 A 
ATOM     20  C   UNL     1       2.049   3.635  19.349  0.00  0.00    +0.000 A 
ATOM     21  C   UNL     1       3.374   3.824  19.767  0.00  0.00    +0.000 A 
BRANCH  20  22
ATOM     22  C   UNL     1       0.948   3.604  20.376  0.00  0.00    +0.000 C 
ATOM     23  F   UNL     1      -0.151   2.906  19.975  0.00  0.00    +0.000 F 
ATOM     24  F   UNL     1       1.340   3.036  21.551  0.00  0.00    +0.000 F 
ATOM     25  F   UNL     1       0.500   4.850  20.695  0.00  0.00    +0.000 F 
ENDBRANCH  20  22
ENDBRANCH  15  16
ENDBRANCH   1  15
TORSDOF 9
ENDMDL
MODEL 7
REMARK VINA RESULT:      -7.2      3.658      6.078
REMARK  Name = 
REMARK  10 active torsions:
REMARK  status: ('A' for Active; 'I' for Inactive)
REMARK    1  A    between atoms: C_1  and  C_2
REMARK    2  A    between atoms: C_2  and  C_3
REMARK    3  A    between atoms: C_3  and  C_4
REMARK    4  A    between atoms: C_4  and  C_5
REMARK    5  A    between atoms: C_5  and  C_6
REMARK    6  A    between atoms: C_6  and  N_7
REMARK    7  A    between atoms: C_10  and  N_11
REMARK    8  A    between atoms: N_11  and  C_12
REMARK    9  A    between atoms: C_12  and  C_13
REMARK   10  A    between atoms: C_17  and  C_18
REMARK                            x       y       z     vdW  Elec       q    Type
REMARK                         _______ _______ _______ _____ _____    ______ ____
ROOT
ATOM      1  N   UNL     1       3.645   6.781  18.602  0.00  0.00    +0.000 NA
ATOM      2  H   UNL     1       3.840   7.300  19.451  0.00  0.00    +0.000 HD
ENDROOT
BRANCH   1   6
ATOM      3  N   UNL     1       4.468   3.292  18.002  0.00  0.00    +0.000 NA
ATOM      4  C   UNL     1       3.808   4.163  17.014  0.00  0.00    +0.000 C 
ATOM      5  C   UNL     1       4.606   5.440  16.747  0.00  0.00    +0.000 C 
ATOM      6  C   UNL     1       4.890   6.223  18.038  0.00  0.00    +0.000 C 
ATOM      7  C   UNL     1       5.622   5.263  18.985  0.00  0.00    +0.000 C 
ATOM      8  C   UNL     1       4.792   4.008  19.248  0.00  0.00    +0.000 C 
BRANCH   3   9
ATOM      9  C   UNL     1       3.650   2.106  18.312  0.00  0.00    +0.000 C 
BRANCH   9  10
ATOM     10  C   UNL     1       2.241   2.132  17.714  0.00  0.00    +0.000 C 
BRANCH  10  11
ATOM     11  C   UNL     1       1.125   2.112  18.762  0.00  0.00    +0.000 C 
BRANCH  11  12
ATOM     12  C   UNL     1       1.209   3.375  19.618  0.00  0.00    +0.000 C 
BRANCH  12  14
ATOM     13  C   UNL     1       2.423   2.767  21.719  0.00  0.00    +0.000 C 
ATOM     14  C   UNL     1       1.067   3.079  21.107  0.00  0.00    +0.000 C 
ENDBRANCH  12  14
ENDBRANCH  11  12
ENDBRANCH  10  11
ENDBRANCH   9  10
ENDBRANCH   3   9
ENDBRANCH   1   6
BRANCH   1  15
ATOM     15  C   UNL     1       2.940   7.664  17.667  0.00  0.00    +0.000 C 
BRANCH  15  16
ATOM     16  C   UNL     1       2.129   8.705  18.404  0.00  0.00    +0.000 A 
ATOM     17  C   UNL     1       1.937   9.986  17.868  0.00  0.00    +0.000 A 
ATOM     18  C   UNL     1       1.182  10.936  18.558  0.00  0.00    +0.000 A 
ATOM     19  C   UNL     1       0.614  10.615  19.792  0.00  0.00    +0.000 A 
ATOM     20  C   UNL     1       0.793   9.340  20.346  0.00  0.00    +0.000 A 
ATOM     21  C   UNL     1       1.539   8.390  19.636  0.00  0.00    +0.000 A 
BRANCH  20  22
ATOM     22  C   UNL     1       0.210   8.970  21.685  0.00  0.00    +0.000 C 
ATOM     23  F   UNL     1      -0.530   9.965  22.251  0.00  0.00    +0.000 F 
ATOM     24  F   UNL     1      -0.614   7.886  21.619  0.00  0.00    +0.000 F 
ATOM     25  F   UNL     1       1.169   8.654  22.600  0.00  0.00    +0.000 F 
ENDBRANCH  20  22
ENDBRANCH  15  16
ENDBRANCH   1  15
TORSDOF 9
ENDMDL
MODEL 8
REMARK VINA RESULT:      -7.1      3.988      5.959
REMARK  Name = 
REMARK  10 active torsions:
REMARK  status: ('A' for Active; 'I' for Inactive)
REMARK    1  A    between atoms: C_1  and  C_2
REMARK    2  A    between atoms: C_2  and  C_3
REMARK    3  A    between atoms: C_3  and  C_4
REMARK    4  A    between atoms: C_4  and  C_5
REMARK    5  A    between atoms: C_5  and  C_6
REMARK    6  A    between atoms: C_6  and  N_7
REMARK    7  A    between atoms: C_10  and  N_11
REMARK    8  A    between atoms: N_11  and  C_12
REMARK    9  A    between atoms: C_12  and  C_13
REMARK   10  A    between atoms: C_17  and  C_18
REMARK                            x       y       z     vdW  Elec       q    Type
REMARK                         _______ _______ _______ _____ _____    ______ ____
ROOT
ATOM      1  N   UNL     1       2.464   5.328  21.021  0.00  0.00    +0.000 NA
ATOM      2  H   UNL     1       2.898   5.316  20.105  0.00  0.00    +0.000 HD
ENDROOT
BRANCH   1   6
ATOM      3  N   UNL     1       2.373   2.348  18.942  0.00  0.00    +0.000 NA
ATOM      4  C   UNL     1       3.360   2.575  20.012  0.00  0.00    +0.000 C 
ATOM      5  C   UNL     1       2.694   2.880  21.355  0.00  0.00    +0.000 C 
ATOM      6  C   UNL     1       1.729   4.071  21.263  0.00  0.00    +0.000 C 
ATOM      7  C   UNL     1       0.709   3.730  20.169  0.00  0.00    +0.000 C 
ATOM      8  C   UNL     1       1.402   3.452  18.837  0.00  0.00    +0.000 C 
BRANCH   3   9
ATOM      9  C   UNL     1       3.026   2.139  17.637  0.00  0.00    +0.000 C 
BRANCH   9  10
ATOM     10  C   UNL     1       4.289   2.975  17.418  0.00  0.00    +0.000 C 
BRANCH  10  11
ATOM     11  C   UNL     1       4.034   4.301  16.697  0.00  0.00    +0.000 C 
BRANCH  11  12
ATOM     12  C   UNL     1       5.356   5.048  16.523  0.00  0.00    +0.000 C 
BRANCH  12  14
ATOM     13  C   UNL     1       6.195   4.131  14.352  0.00  0.00    +0.000 C 
ATOM     14  C   UNL     1       5.657   5.363  15.062  0.00  0.00    +0.000 C 
ENDBRANCH  12  14
ENDBRANCH  11  12
ENDBRANCH  10  11
ENDBRANCH   9  10
ENDBRANCH   3   9
ENDBRANCH   1   6
BRANCH   1  15
ATOM     15  C   UNL     1       1.609   6.517  21.117  0.00  0.00    +0.000 C 
BRANCH  15  16
ATOM     16  C   UNL     1       1.818   7.436  19.936  0.00  0.00    +0.000 A 
ATOM     17  C   UNL     1       2.578   7.032  18.829  0.00  0.00    +0.000 A 
ATOM     18  C   UNL     1       2.760   7.891  17.743  0.00  0.00    +0.000 A 
ATOM     19  C   UNL     1       2.184   9.163  17.756  0.00  0.00    +0.000 A 
ATOM     20  C   UNL     1       1.419   9.587  18.851  0.00  0.00    +0.000 A 
ATOM     21  C   UNL     1       1.231   8.709  19.928  0.00  0.00    +0.000 A 
BRANCH  20  22
ATOM     22  C   UNL     1       0.804  10.960  18.902  0.00  0.00    +0.000 C 
ATOM     23  F   UNL     1       0.495  11.372  20.164  0.00  0.00    +0.000 F 
ATOM     24  F   UNL     1       1.619  11.923  18.387  0.00  0.00    +0.000 F 
ATOM     25  F   UNL     1      -0.357  11.036  18.193  0.00  0.00    +0.000 F 
ENDBRANCH  20  22
ENDBRANCH  15  16
ENDBRANCH   1  15
TORSDOF 9
ENDMDL
MODEL 9
REMARK VINA RESULT:      -7.1      4.188      6.093
REMARK  Name = 
REMARK  10 active torsions:
REMARK  status: ('A' for Active; 'I' for Inactive)
REMARK    1  A    between atoms: C_1  and  C_2
REMARK    2  A    between atoms: C_2  and  C_3
REMARK    3  A    between atoms: C_3  and  C_4
REMARK    4  A    between atoms: C_4  and  C_5
REMARK    5  A    between atoms: C_5  and  C_6
REMARK    6  A    between atoms: C_6  and  N_7
REMARK    7  A    between atoms: C_10  and  N_11
REMARK    8  A    between atoms: N_11  and  C_12
REMARK    9  A    between atoms: C_12  and  C_13
REMARK   10  A    between atoms: C_17  and  C_18
REMARK                            x       y       z     vdW  Elec       q    Type
REMARK                         _______ _______ _______ _____ _____    ______ ____
ROOT
ATOM      1  N   UNL     1       2.416   5.511  20.879  0.00  0.00    +0.000 NA
ATOM      2  H   UNL     1       2.737   5.533  19.918  0.00  0.00    +0.000 HD
ENDROOT
BRANCH   1   6
ATOM      3  N   UNL     1       2.613   2.351  19.093  0.00  0.00    +0.000 NA
ATOM      4  C   UNL     1       3.459   2.697  20.248  0.00  0.00    +0.000 C 
ATOM      5  C   UNL     1       2.631   3.108  21.467  0.00  0.00    +0.000 C 
ATOM      6  C   UNL     1       1.671   4.265  21.148  0.00  0.00    +0.000 C 
ATOM      7  C   UNL     1       0.796   3.802  19.976  0.00  0.00    +0.000 C 
ATOM      8  C   UNL     1       1.650   3.418  18.768  0.00  0.00    +0.000 C 
BRANCH   3   9
ATOM      9  C   UNL     1       3.422   2.038  17.901  0.00  0.00    +0.000 C 
BRANCH   9  10
ATOM     10  C   UNL     1       3.590   3.203  16.923  0.00  0.00    +0.000 C 
BRANCH  10  11
ATOM     11  C   UNL     1       4.916   3.952  17.077  0.00  0.00    +0.000 C 
BRANCH  11  12
ATOM     12  C   UNL     1       5.575   4.105  15.707  0.00  0.00    +0.000 C 
BRANCH  12  14
ATOM     13  C   UNL     1       5.329   6.507  16.359  0.00  0.00    +0.000 C 
ATOM     14  C   UNL     1       5.542   5.543  15.202  0.00  0.00    +0.000 C 
ENDBRANCH  12  14
ENDBRANCH  11  12
ENDBRANCH  10  11
ENDBRANCH   9  10
ENDBRANCH   3   9
ENDBRANCH   1   6
BRANCH   1  15
ATOM     15  C   UNL     1       1.622   6.717  21.134  0.00  0.00    +0.000 C 
BRANCH  15  16
ATOM     16  C   UNL     1       1.726   7.693  19.985  0.00  0.00    +0.000 A 
ATOM     17  C   UNL     1       2.405   7.354  18.807  0.00  0.00    +0.000 A 
ATOM     18  C   UNL     1       2.491   8.264  17.752  0.00  0.00    +0.000 A 
ATOM     19  C   UNL     1       1.899   9.523  17.867  0.00  0.00    +0.000 A 
ATOM     20  C   UNL     1       1.213   9.883  19.035  0.00  0.00    +0.000 A 
ATOM     21  C   UNL     1       1.121   8.954  20.081  0.00  0.00    +0.000 A 
BRANCH  20  22
ATOM     22  C   UNL     1       0.582  11.241  19.197  0.00  0.00    +0.000 C 
ATOM     23  F   UNL     1       1.475  12.268  19.130  0.00  0.00    +0.000 F 
ATOM     24  F   UNL     1      -0.356  11.502  18.243  0.00  0.00    +0.000 F 
ATOM     25  F   UNL     1      -0.053  11.379  20.394  0.00  0.00    +0.000 F 
ENDBRANCH  20  22
ENDBRANCH  15  16
ENDBRANCH   1  15
TORSDOF 9
ENDMDL
