MODEL 1
REMARK VINA RESULT:      -7.2      0.000      0.000
REMARK  Name = 
REMARK  10 active torsions:
REMARK  status: ('A' for Active; 'I' for Inactive)
REMARK    1  A    between atoms: C_1  and  O_2
REMARK    2  A    between atoms: O_2  and  C_3
REMARK    3  A    between atoms: C_6  and  S_7
REMARK    4  A    between atoms: S_7  and  N_10
REMARK    5  A    between atoms: N_10  and  C_11
REMARK    6  A    between atoms: N_10  and  C_19
REMARK    7  A    between atoms: C_11  and  C_12
REMARK    8  A    between atoms: C_19  and  C_20
REMARK    9  A    between atoms: C_23  and  C_24
REMARK   10  A    between atoms: C_24  and  O_26
REMARK                            x       y       z     vdW  Elec       q    Type
REMARK                         _______ _______ _______ _____ _____    ______ ____
ROOT
ATOM      1  N   UNL     1      -1.040  12.233  19.484  0.00  0.00    +0.000 NA
ENDROOT
BRANCH   1   2
ATOM      2  S   UNL     1       0.661  11.973  19.748  0.00  0.00    +0.000 S 
ATOM      3  O   UNL     1       0.906  12.284  21.146  0.00  0.00    +0.000 OA
ATOM      4  O   UNL     1       1.414  12.632  18.704  0.00  0.00    +0.000 OA
BRANCH   2   8
ATOM      5  C   UNL     1       2.131   7.701  19.295  0.00  0.00    +0.000 A 
ATOM      6  C   UNL     1       2.094   8.557  18.188  0.00  0.00    +0.000 A 
ATOM      7  C   UNL     1       1.555   9.841  18.293  0.00  0.00    +0.000 A 
ATOM      8  C   UNL     1       1.011  10.251  19.511  0.00  0.00    +0.000 A 
ATOM      9  C   UNL     1       0.994   9.384  20.611  0.00  0.00    +0.000 A 
ATOM     10  C   UNL     1       1.556   8.107  20.500  0.00  0.00    +0.000 A 
BRANCH   5  12
ATOM     11  C   UNL     1       3.520   6.400  17.882  0.00  0.00    +0.000 C 
ATOM     12  O   UNL     1       2.738   6.498  19.069  0.00  0.00    +0.000 OA
ENDBRANCH   5  12
ENDBRANCH   2   8
ENDBRANCH   1   2
BRANCH   1  13
ATOM     13  C   UNL     1      -1.846  10.964  19.408  0.00  0.00    +0.000 C 
BRANCH  13  14
ATOM     14  C   UNL     1      -2.498  10.731  18.047  0.00  0.00    +0.000 A 
ATOM     15  C   UNL     1      -1.892   9.894  17.091  0.00  0.00    +0.000 A 
ATOM     16  C   UNL     1      -2.414   9.799  15.799  0.00  0.00    +0.000 A 
ATOM     17  C   UNL     1      -3.555  10.516  15.459  0.00  0.00    +0.000 A 
ATOM     18  F   UNL     1      -4.030  10.455  14.210  0.00  0.00    +0.000 F 
ATOM     19  C   UNL     1      -4.196  11.309  16.402  0.00  0.00    +0.000 A 
ATOM     20  C   UNL     1      -3.675  11.417  17.691  0.00  0.00    +0.000 A 
ENDBRANCH  13  14
ENDBRANCH   1  13
BRANCH   1  21
ATOM     21  C   UNL     1      -1.635  13.168  20.537  0.00  0.00    +0.000 C 
BRANCH  21  22
ATOM     22  C   UNL     1      -2.699  12.507  21.432  0.00  0.00    +0.000 C 
ATOM     23  C   UNL     1      -2.251  12.375  22.901  0.00  0.00    +0.000 C 
ATOM     24  C   UNL     1      -2.789  13.416  23.888  0.00  0.00    +0.000 C 
ATOM     25  C   UNL     1      -4.250  13.807  23.645  0.00  0.00    +0.000 C 
ATOM     26  C   UNL     1      -4.398  14.266  22.195  0.00  0.00    +0.000 C 
ATOM     27  C   UNL     1      -4.084  13.137  21.231  0.00  0.00    +0.000 C 
BRANCH  25  28
ATOM     28  C   UNL     1      -5.214  12.679  24.018  0.00  0.00    +0.000 C 
ATOM     29  O   UNL     1      -6.277  12.448  23.464  0.00  0.00    +0.000 OA
BRANCH  28  30
ATOM     30  O   UNL     1      -4.754  11.890  25.017  0.00  0.00    +0.000 OA
ATOM     31  H   UNL     1      -4.220  11.130  24.722  0.00  0.00    +0.000 HD
ENDBRANCH  28  30
ENDBRANCH  25  28
ENDBRANCH  21  22
ENDBRANCH   1  21
TORSDOF 9
ENDMDL
MODEL 2
REMARK VINA RESULT:      -7.2      4.166      9.910
REMARK  Name = 
REMARK  10 active torsions:
REMARK  status: ('A' for Active; 'I' for Inactive)
REMARK    1  A    between atoms: C_1  and  O_2
REMARK    2  A    between atoms: O_2  and  C_3
REMARK    3  A    between atoms: C_6  and  S_7
REMARK    4  A    between atoms: S_7  and  N_10
REMARK    5  A    between atoms: N_10  and  C_11
REMARK    6  A    between atoms: N_10  and  C_19
REMARK    7  A    between atoms: C_11  and  C_12
REMARK    8  A    between atoms: C_19  and  C_20
REMARK    9  A    between atoms: C_23  and  C_24
REMARK   10  A    between atoms: C_24  and  O_26
REMARK                            x       y       z     vdW  Elec       q    Type
REMARK                         _______ _______ _______ _____ _____    ______ ____
ROOT
ATOM      1  N   UNL     1       2.420   7.530  18.355  0.00  0.00    +0.000 NA
ENDROOT
BRANCH   1   2
ATOM      2  S   UNL     1       1.508   9.002  18.181  0.00  0.00    +0.000 S 
ATOM      3  O   UNL     1       0.282   8.639  17.491  0.00  0.00    +0.000 OA
ATOM      4  O   UNL     1       2.369  10.040  17.658  0.00  0.00    +0.000 OA
BRANCH   2   8
ATOM      5  C   UNL     1      -0.193  10.294  22.188  0.00  0.00    +0.000 A 
ATOM      6  C   UNL     1      -0.135  11.197  21.120  0.00  0.00    +0.000 A 
ATOM      7  C   UNL     1       0.473  10.843  19.914  0.00  0.00    +0.000 A 
ATOM      8  C   UNL     1       1.063   9.584  19.796  0.00  0.00    +0.000 A 
ATOM      9  C   UNL     1       1.059   8.691  20.875  0.00  0.00    +0.000 A 
ATOM     10  C   UNL     1       0.428   9.049  22.073  0.00  0.00    +0.000 A 
BRANCH   5  12
ATOM     11  C   UNL     1      -1.555  11.987  23.136  0.00  0.00    +0.000 C 
ATOM     12  O   UNL     1      -0.867  10.748  23.286  0.00  0.00    +0.000 OA
ENDBRANCH   5  12
ENDBRANCH   2   8
ENDBRANCH   1   2
BRANCH   1  13
ATOM     13  C   UNL     1       1.669   6.294  17.939  0.00  0.00    +0.000 C 
BRANCH  13  14
ATOM     14  C   UNL     1       1.748   5.156  18.952  0.00  0.00    +0.000 A 
ATOM     15  C   UNL     1       1.298   3.863  18.622  0.00  0.00    +0.000 A 
ATOM     16  C   UNL     1       1.236   2.863  19.595  0.00  0.00    +0.000 A 
ATOM     17  C   UNL     1       1.646   3.136  20.894  0.00  0.00    +0.000 A 
ATOM     18  F   UNL     1       1.549   2.189  21.835  0.00  0.00    +0.000 F 
ATOM     19  C   UNL     1       2.139   4.390  21.230  0.00  0.00    +0.000 A 
ATOM     20  C   UNL     1       2.195   5.397  20.266  0.00  0.00    +0.000 A 
ENDBRANCH  13  14
ENDBRANCH   1  13
BRANCH   1  21
ATOM     21  C   UNL     1       3.755   7.605  17.614  0.00  0.00    +0.000 C 
BRANCH  21  22
ATOM     22  C   UNL     1       4.557   6.291  17.631  0.00  0.00    +0.000 C 
ATOM     23  C   UNL     1       4.597   5.594  16.257  0.00  0.00    +0.000 C 
ATOM     24  C   UNL     1       5.870   5.776  15.424  0.00  0.00    +0.000 C 
ATOM     25  C   UNL     1       7.162   5.752  16.247  0.00  0.00    +0.000 C 
ATOM     26  C   UNL     1       7.052   6.799  17.356  0.00  0.00    +0.000 C 
ATOM     27  C   UNL     1       5.921   6.464  18.311  0.00  0.00    +0.000 C 
BRANCH  25  28
ATOM     28  C   UNL     1       7.479   4.351  16.774  0.00  0.00    +0.000 C 
ATOM     29  O   UNL     1       8.304   4.093  17.637  0.00  0.00    +0.000 OA
BRANCH  28  30
ATOM     30  O   UNL     1       6.707   3.385  16.225  0.00  0.00    +0.000 OA
ATOM     31  H   UNL     1       7.061   2.999  15.403  0.00  0.00    +0.000 HD
ENDBRANCH  28  30
ENDBRANCH  25  28
ENDBRANCH  21  22
ENDBRANCH   1  21
TORSDOF 9
ENDMDL
MODEL 3
REMARK VINA RESULT:      -7.1      5.762      9.978
REMARK  Name = 
REMARK  10 active torsions:
REMARK  status: ('A' for Active; 'I' for Inactive)
REMARK    1  A    between atoms: C_1  and  O_2
REMARK    2  A    between atoms: O_2  and  C_3
REMARK    3  A    between atoms: C_6  and  S_7
REMARK    4  A    between atoms: S_7  and  N_10
REMARK    5  A    between atoms: N_10  and  C_11
REMARK    6  A    between atoms: N_10  and  C_19
REMARK    7  A    between atoms: C_11  and  C_12
REMARK    8  A    between atoms: C_19  and  C_20
REMARK    9  A    between atoms: C_23  and  C_24
REMARK   10  A    between atoms: C_24  and  O_26
REMARK                            x       y       z     vdW  Elec       q    Type
REMARK                         _______ _______ _______ _____ _____    ______ ____
ROOT
ATOM      1  N   UNL     1       2.484   5.695  19.264  0.00  0.00    +0.000 NA
ENDROOT
BRANCH   1   2
ATOM      2  S   UNL     1       1.589   4.206  19.158  0.00  0.00    +0.000 S 
ATOM      3  O   UNL     1       1.293   4.011  17.749  0.00  0.00    +0.000 OA
ATOM      4  O   UNL     1       0.527   4.213  20.139  0.00  0.00    +0.000 OA
BRANCH   2   8
ATOM      5  C   UNL     1       4.742   1.213  20.471  0.00  0.00    +0.000 A 
ATOM      6  C   UNL     1       4.426   1.359  19.115  0.00  0.00    +0.000 A 
ATOM      7  C   UNL     1       3.393   2.204  18.707  0.00  0.00    +0.000 A 
ATOM      8  C   UNL     1       2.644   2.877  19.673  0.00  0.00    +0.000 A 
ATOM      9  C   UNL     1       2.915   2.698  21.036  0.00  0.00    +0.000 A 
ATOM     10  C   UNL     1       3.968   1.864  21.433  0.00  0.00    +0.000 A 
BRANCH   5  12
ATOM     11  C   UNL     1       6.080   0.128  22.099  0.00  0.00    +0.000 C 
ATOM     12  O   UNL     1       5.811   0.402  20.727  0.00  0.00    +0.000 OA
ENDBRANCH   5  12
ENDBRANCH   2   8
ENDBRANCH   1   2
BRANCH   1  13
ATOM     13  C   UNL     1       1.921   6.675  20.258  0.00  0.00    +0.000 C 
BRANCH  13  14
ATOM     14  C   UNL     1       1.632   8.053  19.667  0.00  0.00    +0.000 A 
ATOM     15  C   UNL     1       2.082   8.393  18.377  0.00  0.00    +0.000 A 
ATOM     16  C   UNL     1       1.944   9.698  17.900  0.00  0.00    +0.000 A 
ATOM     17  C   UNL     1       1.335  10.664  18.691  0.00  0.00    +0.000 A 
ATOM     18  F   UNL     1       1.239  11.923  18.248  0.00  0.00    +0.000 F 
ATOM     19  C   UNL     1       0.840  10.337  19.947  0.00  0.00    +0.000 A 
ATOM     20  C   UNL     1       0.983   9.038  20.435  0.00  0.00    +0.000 A 
ENDBRANCH  13  14
ENDBRANCH   1  13
BRANCH   1  21
ATOM     21  C   UNL     1       3.962   5.443  19.558  0.00  0.00    +0.000 C 
BRANCH  21  22
ATOM     22  C   UNL     1       4.916   5.956  18.465  0.00  0.00    +0.000 C 
ATOM     23  C   UNL     1       6.377   5.519  18.688  0.00  0.00    +0.000 C 
ATOM     24  C   UNL     1       6.879   4.328  17.864  0.00  0.00    +0.000 C 
ATOM     25  C   UNL     1       6.366   4.309  16.421  0.00  0.00    +0.000 C 
ATOM     26  C   UNL     1       4.840   4.383  16.445  0.00  0.00    +0.000 C 
ATOM     27  C   UNL     1       4.367   5.688  17.057  0.00  0.00    +0.000 C 
BRANCH  25  28
ATOM     28  C   UNL     1       7.007   5.409  15.572  0.00  0.00    +0.000 C 
ATOM     29  O   UNL     1       7.657   6.347  16.008  0.00  0.00    +0.000 OA
BRANCH  28  30
ATOM     30  O   UNL     1       6.836   5.227  14.242  0.00  0.00    +0.000 OA
ATOM     31  H   UNL     1       7.648   5.000  13.754  0.00  0.00    +0.000 HD
ENDBRANCH  28  30
ENDBRANCH  25  28
ENDBRANCH  21  22
ENDBRANCH   1  21
TORSDOF 9
ENDMDL
MODEL 4
REMARK VINA RESULT:      -7.1      5.702      9.771
REMARK  Name = 
REMARK  10 active torsions:
REMARK  status: ('A' for Active; 'I' for Inactive)
REMARK    1  A    between atoms: C_1  and  O_2
REMARK    2  A    between atoms: O_2  and  C_3
REMARK    3  A    between atoms: C_6  and  S_7
REMARK    4  A    between atoms: S_7  and  N_10
REMARK    5  A    between atoms: N_10  and  C_11
REMARK    6  A    between atoms: N_10  and  C_19
REMARK    7  A    between atoms: C_11  and  C_12
REMARK    8  A    between atoms: C_19  and  C_20
REMARK    9  A    between atoms: C_23  and  C_24
REMARK   10  A    between atoms: C_24  and  O_26
REMARK                            x       y       z     vdW  Elec       q    Type
REMARK                         _______ _______ _______ _____ _____    ______ ____
ROOT
ATOM      1  N   UNL     1       2.140   5.324  18.691  0.00  0.00    +0.000 NA
ENDROOT
BRANCH   1   2
ATOM      2  S   UNL     1       1.291   3.858  19.091  0.00  0.00    +0.000 S 
ATOM      3  O   UNL     1       0.744   3.353  17.842  0.00  0.00    +0.000 OA
ATOM      4  O   UNL     1       0.429   4.098  20.228  0.00  0.00    +0.000 OA
BRANCH   2   8
ATOM      5  C   UNL     1       4.721   1.243  20.508  0.00  0.00    +0.000 A 
ATOM      6  C   UNL     1       4.294   1.189  19.176  0.00  0.00    +0.000 A 
ATOM      7  C   UNL     1       3.181   1.915  18.751  0.00  0.00    +0.000 A 
ATOM      8  C   UNL     1       2.465   2.669  19.682  0.00  0.00    +0.000 A 
ATOM      9  C   UNL     1       2.851   2.689  21.029  0.00  0.00    +0.000 A 
ATOM     10  C   UNL     1       3.982   1.974  21.441  0.00  0.00    +0.000 A 
BRANCH   5  12
ATOM     11  C   UNL     1       6.099   0.223  22.146  0.00  0.00    +0.000 C 
ATOM     12  O   UNL     1       5.857   0.532  20.776  0.00  0.00    +0.000 OA
ENDBRANCH   5  12
ENDBRANCH   2   8
ENDBRANCH   1   2
BRANCH   1  13
ATOM     13  C   UNL     1       2.405   6.217  19.872  0.00  0.00    +0.000 C 
BRANCH  13  14
ATOM     14  C   UNL     1       1.873   7.637  19.701  0.00  0.00    +0.000 A 
ATOM     15  C   UNL     1       1.284   8.321  20.782  0.00  0.00    +0.000 A 
ATOM     16  C   UNL     1       0.668   9.559  20.586  0.00  0.00    +0.000 A 
ATOM     17  C   UNL     1       0.658  10.135  19.321  0.00  0.00    +0.000 A 
ATOM     18  F   UNL     1       0.033  11.302  19.127  0.00  0.00    +0.000 F 
ATOM     19  C   UNL     1       1.276   9.499  18.252  0.00  0.00    +0.000 A 
ATOM     20  C   UNL     1       1.884   8.258  18.438  0.00  0.00    +0.000 A 
ENDBRANCH  13  14
ENDBRANCH   1  13
BRANCH   1  21
ATOM     21  C   UNL     1       3.446   5.032  17.952  0.00  0.00    +0.000 C 
BRANCH  21  22
ATOM     22  C   UNL     1       4.598   5.987  18.314  0.00  0.00    +0.000 C 
ATOM     23  C   UNL     1       5.777   5.272  19.004  0.00  0.00    +0.000 C 
ATOM     24  C   UNL     1       6.993   4.940  18.133  0.00  0.00    +0.000 C 
ATOM     25  C   UNL     1       7.347   6.029  17.116  0.00  0.00    +0.000 C 
ATOM     26  C   UNL     1       6.108   6.330  16.273  0.00  0.00    +0.000 C 
ATOM     27  C   UNL     1       4.987   6.885  17.133  0.00  0.00    +0.000 C 
BRANCH  25  28
ATOM     28  C   UNL     1       7.932   7.272  17.789  0.00  0.00    +0.000 C 
ATOM     29  O   UNL     1       7.886   8.406  17.336  0.00  0.00    +0.000 OA
BRANCH  28  30
ATOM     30  O   UNL     1       8.480   7.018  19.000  0.00  0.00    +0.000 OA
ATOM     31  H   UNL     1       8.763   6.095  19.133  0.00  0.00    +0.000 HD
ENDBRANCH  28  30
ENDBRANCH  25  28
ENDBRANCH  21  22
ENDBRANCH   1  21
TORSDOF 9
ENDMDL
MODEL 5
REMARK VINA RESULT:      -7.0      5.499      8.734
REMARK  Name = 
REMARK  10 active torsions:
REMARK  status: ('A' for Active; 'I' for Inactive)
REMARK    1  A    between atoms: C_1  and  O_2
REMARK    2  A    between atoms: O_2  and  C_3
REMARK    3  A    between atoms: C_6  and  S_7
REMARK    4  A    between atoms: S_7  and  N_10
REMARK    5  A    between atoms: N_10  and  C_11
REMARK    6  A    between atoms: N_10  and  C_19
REMARK    7  A    between atoms: C_11  and  C_12
REMARK    8  A    between atoms: C_19  and  C_20
REMARK    9  A    between atoms: C_23  and  C_24
REMARK   10  A    between atoms: C_24  and  O_26
REMARK                            x       y       z     vdW  Elec       q    Type
REMARK                         _______ _______ _______ _____ _____    ______ ____
ROOT
ATOM      1  N   UNL     1       3.632   6.814  18.164  0.00  0.00    +0.000 NA
ENDROOT
BRANCH   1   2
ATOM      2  S   UNL     1       5.299   6.448  17.823  0.00  0.00    +0.000 S 
ATOM      3  O   UNL     1       5.777   5.656  18.944  0.00  0.00    +0.000 OA
ATOM      4  O   UNL     1       5.987   7.659  17.432  0.00  0.00    +0.000 OA
BRANCH   2   8
ATOM      5  C   UNL     1       6.073   3.932  14.124  0.00  0.00    +0.000 A 
ATOM      6  C   UNL     1       5.723   5.281  14.001  0.00  0.00    +0.000 A 
ATOM      7  C   UNL     1       5.390   6.040  15.124  0.00  0.00    +0.000 A 
ATOM      8  C   UNL     1       5.367   5.426  16.376  0.00  0.00    +0.000 A 
ATOM      9  C   UNL     1       5.662   4.063  16.506  0.00  0.00    +0.000 A 
ATOM     10  C   UNL     1       6.016   3.316  15.375  0.00  0.00    +0.000 A 
BRANCH   5  12
ATOM     11  C   UNL     1       5.407   3.177  11.978  0.00  0.00    +0.000 C 
ATOM     12  O   UNL     1       6.434   3.324  12.955  0.00  0.00    +0.000 OA
ENDBRANCH   5  12
ENDBRANCH   2   8
ENDBRANCH   1   2
BRANCH   1  13
ATOM     13  C   UNL     1       3.203   8.183  17.708  0.00  0.00    +0.000 C 
BRANCH  13  14
ATOM     14  C   UNL     1       1.989   8.728  18.456  0.00  0.00    +0.000 A 
ATOM     15  C   UNL     1       1.020   9.502  17.791  0.00  0.00    +0.000 A 
ATOM     16  C   UNL     1      -0.008  10.119  18.506  0.00  0.00    +0.000 A 
ATOM     17  C   UNL     1      -0.094   9.948  19.882  0.00  0.00    +0.000 A 
ATOM     18  F   UNL     1      -1.055  10.572  20.572  0.00  0.00    +0.000 F 
ATOM     19  C   UNL     1       0.824   9.148  20.552  0.00  0.00    +0.000 A 
ATOM     20  C   UNL     1       1.860   8.536  19.845  0.00  0.00    +0.000 A 
ENDBRANCH  13  14
ENDBRANCH   1  13
BRANCH   1  21
ATOM     21  C   UNL     1       2.695   5.754  17.588  0.00  0.00    +0.000 C 
BRANCH  21  22
ATOM     22  C   UNL     1       1.860   5.012  18.648  0.00  0.00    +0.000 C 
ATOM     23  C   UNL     1       1.478   3.582  18.219  0.00  0.00    +0.000 C 
ATOM     24  C   UNL     1       2.314   2.436  18.799  0.00  0.00    +0.000 C 
ATOM     25  C   UNL     1       2.707   2.634  20.267  0.00  0.00    +0.000 C 
ATOM     26  C   UNL     1       3.414   3.982  20.404  0.00  0.00    +0.000 C 
ATOM     27  C   UNL     1       2.483   5.125  20.045  0.00  0.00    +0.000 C 
BRANCH  25  28
ATOM     28  C   UNL     1       1.507   2.487  21.205  0.00  0.00    +0.000 C 
ATOM     29  O   UNL     1       1.573   2.382  22.420  0.00  0.00    +0.000 OA
BRANCH  28  30
ATOM     30  O   UNL     1       0.317   2.538  20.565  0.00  0.00    +0.000 OA
ATOM     31  H   UNL     1      -0.456   2.344  21.126  0.00  0.00    +0.000 HD
ENDBRANCH  28  30
ENDBRANCH  25  28
ENDBRANCH  21  22
ENDBRANCH   1  21
TORSDOF 9
ENDMDL
MODEL 6
REMARK VINA RESULT:      -6.8      5.664     10.333
REMARK  Name = 
REMARK  10 active torsions:
REMARK  status: ('A' for Active; 'I' for Inactive)
REMARK    1  A    between atoms: C_1  and  O_2
REMARK    2  A    between atoms: O_2  and  C_3
REMARK    3  A    between atoms: C_6  and  S_7
REMARK    4  A    between atoms: S_7  and  N_10
REMARK    5  A    between atoms: N_10  and  C_11
REMARK    6  A    between atoms: N_10  and  C_19
REMARK    7  A    between atoms: C_11  and  C_12
REMARK    8  A    between atoms: C_19  and  C_20
REMARK    9  A    between atoms: C_23  and  C_24
REMARK   10  A    between atoms: C_24  and  O_26
REMARK                            x       y       z     vdW  Elec       q    Type
REMARK                         _______ _______ _______ _____ _____    ______ ____
ROOT
ATOM      1  N   UNL     1       2.724   5.601  18.836  0.00  0.00    +0.000 NA
ENDROOT
BRANCH   1   2
ATOM      2  S   UNL     1       1.751   4.159  18.883  0.00  0.00    +0.000 S 
ATOM      3  O   UNL     1       1.413   3.854  17.502  0.00  0.00    +0.000 OA
ATOM      4  O   UNL     1       0.713   4.313  19.878  0.00  0.00    +0.000 OA
BRANCH   2   8
ATOM      5  C   UNL     1       4.776   1.116  20.366  0.00  0.00    +0.000 A 
ATOM      6  C   UNL     1       4.363   1.108  19.029  0.00  0.00    +0.000 A 
ATOM      7  C   UNL     1       3.364   1.974  18.583  0.00  0.00    +0.000 A 
ATOM      8  C   UNL     1       2.746   2.828  19.499  0.00  0.00    +0.000 A 
ATOM      9  C   UNL     1       3.113   2.807  20.850  0.00  0.00    +0.000 A 
ATOM     10  C   UNL     1       4.132   1.949  21.283  0.00  0.00    +0.000 A 
BRANCH   5  12
ATOM     11  C   UNL     1       6.077   0.049  22.037  0.00  0.00    +0.000 C 
ATOM     12  O   UNL     1       5.802   0.260  20.655  0.00  0.00    +0.000 OA
ENDBRANCH   5  12
ENDBRANCH   2   8
ENDBRANCH   1   2
BRANCH   1  13
ATOM     13  C   UNL     1       2.498   6.527  20.000  0.00  0.00    +0.000 C 
BRANCH  13  14
ATOM     14  C   UNL     1       1.937   7.890  19.602  0.00  0.00    +0.000 A 
ATOM     15  C   UNL     1       1.129   8.625  20.490  0.00  0.00    +0.000 A 
ATOM     16  C   UNL     1       0.500   9.799  20.071  0.00  0.00    +0.000 A 
ATOM     17  C   UNL     1       0.692  10.262  18.775  0.00  0.00    +0.000 A 
ATOM     18  F   UNL     1       0.056  11.365  18.361  0.00  0.00    +0.000 F 
ATOM     19  C   UNL     1       1.524   9.578  17.897  0.00  0.00    +0.000 A 
ATOM     20  C   UNL     1       2.148   8.399  18.306  0.00  0.00    +0.000 A 
ENDBRANCH  13  14
ENDBRANCH   1  13
BRANCH   1  21
ATOM     21  C   UNL     1       4.212   5.271  18.711  0.00  0.00    +0.000 C 
BRANCH  21  22
ATOM     22  C   UNL     1       4.809   5.580  17.326  0.00  0.00    +0.000 C 
ATOM     23  C   UNL     1       6.285   6.019  17.393  0.00  0.00    +0.000 C 
ATOM     24  C   UNL     1       7.340   4.960  17.057  0.00  0.00    +0.000 C 
ATOM     25  C   UNL     1       6.947   4.035  15.901  0.00  0.00    +0.000 C 
ATOM     26  C   UNL     1       5.590   3.407  16.219  0.00  0.00    +0.000 C 
ATOM     27  C   UNL     1       4.509   4.467  16.315  0.00  0.00    +0.000 C 
BRANCH  25  28
ATOM     28  C   UNL     1       6.972   4.760  14.554  0.00  0.00    +0.000 C 
ATOM     29  O   UNL     1       6.146   4.622  13.665  0.00  0.00    +0.000 OA
BRANCH  28  30
ATOM     30  O   UNL     1       7.992   5.641  14.439  0.00  0.00    +0.000 OA
ATOM     31  H   UNL     1       8.303   5.787  13.527  0.00  0.00    +0.000 HD
ENDBRANCH  28  30
ENDBRANCH  25  28
ENDBRANCH  21  22
ENDBRANCH   1  21
TORSDOF 9
ENDMDL
MODEL 7
REMARK VINA RESULT:      -6.8      4.468      9.609
REMARK  Name = 
REMARK  10 active torsions:
REMARK  status: ('A' for Active; 'I' for Inactive)
REMARK    1  A    between atoms: C_1  and  O_2
REMARK    2  A    between atoms: O_2  and  C_3
REMARK    3  A    between atoms: C_6  and  S_7
REMARK    4  A    between atoms: S_7  and  N_10
REMARK    5  A    between atoms: N_10  and  C_11
REMARK    6  A    between atoms: N_10  and  C_19
REMARK    7  A    between atoms: C_11  and  C_12
REMARK    8  A    between atoms: C_19  and  C_20
REMARK    9  A    between atoms: C_23  and  C_24
REMARK   10  A    between atoms: C_24  and  O_26
REMARK                            x       y       z     vdW  Elec       q    Type
REMARK                         _______ _______ _______ _____ _____    ______ ____
ROOT
ATOM      1  N   UNL     1       2.948   7.399  18.121  0.00  0.00    +0.000 NA
ENDROOT
BRANCH   1   2
ATOM      2  S   UNL     1       1.735   8.643  18.013  0.00  0.00    +0.000 S 
ATOM      3  O   UNL     1       0.529   7.991  17.529  0.00  0.00    +0.000 OA
ATOM      4  O   UNL     1       2.282   9.787  17.318  0.00  0.00    +0.000 OA
BRANCH   2   8
ATOM      5  C   UNL     1       0.292  10.181  22.033  0.00  0.00    +0.000 A 
ATOM      6  C   UNL     1       0.674  11.078  21.029  0.00  0.00    +0.000 A 
ATOM      7  C   UNL     1       1.209  10.619  19.824  0.00  0.00    +0.000 A 
ATOM      8  C   UNL     1       1.401   9.248  19.645  0.00  0.00    +0.000 A 
ATOM      9  C   UNL     1       1.073   8.344  20.664  0.00  0.00    +0.000 A 
ATOM     10  C   UNL     1       0.517   8.814  21.860  0.00  0.00    +0.000 A 
BRANCH   5  12
ATOM     11  C   UNL     1      -1.559  11.343  22.952  0.00  0.00    +0.000 C 
ATOM     12  O   UNL     1      -0.271  10.760  23.135  0.00  0.00    +0.000 OA
ENDBRANCH   5  12
ENDBRANCH   2   8
ENDBRANCH   1   2
BRANCH   1  13
ATOM     13  C   UNL     1       4.350   7.894  17.888  0.00  0.00    +0.000 C 
BRANCH  13  14
ATOM     14  C   UNL     1       5.221   6.922  17.095  0.00  0.00    +0.000 A 
ATOM     15  C   UNL     1       4.919   6.612  15.755  0.00  0.00    +0.000 A 
ATOM     16  C   UNL     1       5.628   5.615  15.081  0.00  0.00    +0.000 A 
ATOM     17  C   UNL     1       6.657   4.941  15.726  0.00  0.00    +0.000 A 
ATOM     18  F   UNL     1       7.309   3.959  15.092  0.00  0.00    +0.000 F 
ATOM     19  C   UNL     1       7.003   5.265  17.031  0.00  0.00    +0.000 A 
ATOM     20  C   UNL     1       6.293   6.253  17.715  0.00  0.00    +0.000 A 
ENDBRANCH  13  14
ENDBRANCH   1  13
BRANCH   1  21
ATOM     21  C   UNL     1       2.871   6.654  19.454  0.00  0.00    +0.000 C 
BRANCH  21  22
ATOM     22  C   UNL     1       2.457   5.177  19.323  0.00  0.00    +0.000 C 
ATOM     23  C   UNL     1       2.153   4.765  17.869  0.00  0.00    +0.000 C 
ATOM     24  C   UNL     1       3.251   4.004  17.120  0.00  0.00    +0.000 C 
ATOM     25  C   UNL     1       4.003   2.985  17.982  0.00  0.00    +0.000 C 
ATOM     26  C   UNL     1       4.548   3.702  19.218  0.00  0.00    +0.000 C 
ATOM     27  C   UNL     1       3.419   4.247  20.073  0.00  0.00    +0.000 C 
BRANCH  25  28
ATOM     28  C   UNL     1       3.134   1.773  18.325  0.00  0.00    +0.000 C 
ATOM     29  O   UNL     1       1.914   1.778  18.392  0.00  0.00    +0.000 OA
BRANCH  28  30
ATOM     30  O   UNL     1       3.846   0.637  18.505  0.00  0.00    +0.000 OA
ATOM     31  H   UNL     1       4.360   0.352  17.728  0.00  0.00    +0.000 HD
ENDBRANCH  28  30
ENDBRANCH  25  28
ENDBRANCH  21  22
ENDBRANCH   1  21
TORSDOF 9
ENDMDL
MODEL 8
REMARK VINA RESULT:      -6.8      5.695      9.804
REMARK  Name = 
REMARK  10 active torsions:
REMARK  status: ('A' for Active; 'I' for Inactive)
REMARK    1  A    between atoms: C_1  and  O_2
REMARK    2  A    between atoms: O_2  and  C_3
REMARK    3  A    between atoms: C_6  and  S_7
REMARK    4  A    between atoms: S_7  and  N_10
REMARK    5  A    between atoms: N_10  and  C_11
REMARK    6  A    between atoms: N_10  and  C_19
REMARK    7  A    between atoms: C_11  and  C_12
REMARK    8  A    between atoms: C_19  and  C_20
REMARK    9  A    between atoms: C_23  and  C_24
REMARK   10  A    between atoms: C_24  and  O_26
REMARK                            x       y       z     vdW  Elec       q    Type
REMARK                         _______ _______ _______ _____ _____    ______ ____
ROOT
ATOM      1  N   UNL     1       1.957   5.393  18.821  0.00  0.00    +0.000 NA
ENDROOT
BRANCH   1   2
ATOM      2  S   UNL     1       1.494   3.768  19.238  0.00  0.00    +0.000 S 
ATOM      3  O   UNL     1       0.822   3.226  18.070  0.00  0.00    +0.000 OA
ATOM      4  O   UNL     1       0.840   3.772  20.528  0.00  0.00    +0.000 OA
BRANCH   2   8
ATOM      5  C   UNL     1       4.895   0.905  20.161  0.00  0.00    +0.000 A 
ATOM      6  C   UNL     1       4.552   1.912  21.071  0.00  0.00    +0.000 A 
ATOM      7  C   UNL     1       3.574   2.857  20.758  0.00  0.00    +0.000 A 
ATOM      8  C   UNL     1       2.965   2.814  19.502  0.00  0.00    +0.000 A 
ATOM      9  C   UNL     1       3.338   1.844  18.564  0.00  0.00    +0.000 A 
ATOM     10  C   UNL     1       4.305   0.888  18.896  0.00  0.00    +0.000 A 
BRANCH   5  12
ATOM     11  C   UNL     1       6.081   0.032  22.019  0.00  0.00    +0.000 C 
ATOM     12  O   UNL     1       5.824   0.012  20.618  0.00  0.00    +0.000 OA
ENDBRANCH   5  12
ENDBRANCH   2   8
ENDBRANCH   1   2
BRANCH   1  13
ATOM     13  C   UNL     1       2.383   6.228  19.998  0.00  0.00    +0.000 C 
BRANCH  13  14
ATOM     14  C   UNL     1       1.660   7.569  20.096  0.00  0.00    +0.000 A 
ATOM     15  C   UNL     1       0.876   7.885  21.221  0.00  0.00    +0.000 A 
ATOM     16  C   UNL     1       0.101   9.047  21.242  0.00  0.00    +0.000 A 
ATOM     17  C   UNL     1       0.121   9.912  20.155  0.00  0.00    +0.000 A 
ATOM     18  F   UNL     1      -0.653  11.003  20.159  0.00  0.00    +0.000 F 
ATOM     19  C   UNL     1       0.925   9.642  19.055  0.00  0.00    +0.000 A 
ATOM     20  C   UNL     1       1.695   8.479  19.023  0.00  0.00    +0.000 A 
ENDBRANCH  13  14
ENDBRANCH   1  13
BRANCH   1  21
ATOM     21  C   UNL     1       3.045   5.409  17.747  0.00  0.00    +0.000 C 
BRANCH  21  22
ATOM     22  C   UNL     1       4.292   6.227  18.130  0.00  0.00    +0.000 C 
ATOM     23  C   UNL     1       5.337   5.402  18.907  0.00  0.00    +0.000 C 
ATOM     24  C   UNL     1       6.539   4.880  18.114  0.00  0.00    +0.000 C 
ATOM     25  C   UNL     1       7.075   5.869  17.074  0.00  0.00    +0.000 C 
ATOM     26  C   UNL     1       5.925   6.286  16.158  0.00  0.00    +0.000 C 
ATOM     27  C   UNL     1       4.846   7.015  16.937  0.00  0.00    +0.000 C 
BRANCH  25  28
ATOM     28  C   UNL     1       7.783   7.058  17.728  0.00  0.00    +0.000 C 
ATOM     29  O   UNL     1       7.845   8.185  17.260  0.00  0.00    +0.000 OA
BRANCH  28  30
ATOM     30  O   UNL     1       8.311   6.767  18.939  0.00  0.00    +0.000 OA
ATOM     31  H   UNL     1       8.795   7.501  19.359  0.00  0.00    +0.000 HD
ENDBRANCH  28  30
ENDBRANCH  25  28
ENDBRANCH  21  22
ENDBRANCH   1  21
TORSDOF 9
ENDMDL
MODEL 9
REMARK VINA RESULT:      -6.8      3.914      9.955
REMARK  Name = 
REMARK  10 active torsions:
REMARK  status: ('A' for Active; 'I' for Inactive)
REMARK    1  A    between atoms: C_1  and  O_2
REMARK    2  A    between atoms: O_2  and  C_3
REMARK    3  A    between atoms: C_6  and  S_7
REMARK    4  A    between atoms: S_7  and  N_10
REMARK    5  A    between atoms: N_10  and  C_11
REMARK    6  A    between atoms: N_10  and  C_19
REMARK    7  A    between atoms: C_11  and  C_12
REMARK    8  A    between atoms: C_19  and  C_20
REMARK    9  A    between atoms: C_23  and  C_24
REMARK   10  A    between atoms: C_24  and  O_26
REMARK                            x       y       z     vdW  Elec       q    Type
REMARK                         _______ _______ _______ _____ _____    ______ ____
ROOT
ATOM      1  N   UNL     1       2.572   7.508  19.055  0.00  0.00    +0.000 NA
ENDROOT
BRANCH   1   2
ATOM      2  S   UNL     1       1.728   8.950  18.569  0.00  0.00    +0.000 S 
ATOM      3  O   UNL     1       0.838   8.554  17.490  0.00  0.00    +0.000 OA
ATOM      4  O   UNL     1       2.679  10.023  18.382  0.00  0.00    +0.000 OA
BRANCH   2   8
ATOM      5  C   UNL     1      -0.457  10.811  22.088  0.00  0.00    +0.000 A 
ATOM      6  C   UNL     1       0.496   9.808  22.297  0.00  0.00    +0.000 A 
ATOM      7  C   UNL     1       1.105   9.161  21.220  0.00  0.00    +0.000 A 
ATOM      8  C   UNL     1       0.720   9.497  19.921  0.00  0.00    +0.000 A 
ATOM      9  C   UNL     1      -0.271  10.461  19.699  0.00  0.00    +0.000 A 
ATOM     10  C   UNL     1      -0.860  11.119  20.787  0.00  0.00    +0.000 A 
BRANCH   5  12
ATOM     11  C   UNL     1      -2.216  12.005  23.136  0.00  0.00    +0.000 C 
ATOM     12  O   UNL     1      -0.928  11.401  23.226  0.00  0.00    +0.000 OA
ENDBRANCH   5  12
ENDBRANCH   2   8
ENDBRANCH   1   2
BRANCH   1  13
ATOM     13  C   UNL     1       1.818   6.666  20.050  0.00  0.00    +0.000 C 
BRANCH  13  14
ATOM     14  C   UNL     1       1.923   5.165  19.790  0.00  0.00    +0.000 A 
ATOM     15  C   UNL     1       2.571   4.318  20.709  0.00  0.00    +0.000 A 
ATOM     16  C   UNL     1       2.794   2.975  20.401  0.00  0.00    +0.000 A 
ATOM     17  C   UNL     1       2.351   2.461  19.188  0.00  0.00    +0.000 A 
ATOM     18  F   UNL     1       2.600   1.184  18.877  0.00  0.00    +0.000 F 
ATOM     19  C   UNL     1       1.667   3.268  18.288  0.00  0.00    +0.000 A 
ATOM     20  C   UNL     1       1.449   4.613  18.585  0.00  0.00    +0.000 A 
ENDBRANCH  13  14
ENDBRANCH   1  13
BRANCH   1  21
ATOM     21  C   UNL     1       2.973   6.658  17.850  0.00  0.00    +0.000 C 
BRANCH  21  22
ATOM     22  C   UNL     1       4.494   6.486  17.683  0.00  0.00    +0.000 C 
ATOM     23  C   UNL     1       5.061   5.318  18.514  0.00  0.00    +0.000 C 
ATOM     24  C   UNL     1       5.336   4.007  17.772  0.00  0.00    +0.000 C 
ATOM     25  C   UNL     1       5.913   4.196  16.366  0.00  0.00    +0.000 C 
ATOM     26  C   UNL     1       4.980   5.113  15.576  0.00  0.00    +0.000 C 
ATOM     27  C   UNL     1       4.910   6.492  16.206  0.00  0.00    +0.000 C 
BRANCH  25  28
ATOM     28  C   UNL     1       7.358   4.697  16.404  0.00  0.00    +0.000 C 
ATOM     29  O   UNL     1       8.171   4.438  17.278  0.00  0.00    +0.000 OA
BRANCH  28  30
ATOM     30  O   UNL     1       7.697   5.438  15.323  0.00  0.00    +0.000 OA
ATOM     31  H   UNL     1       6.964   5.947  14.932  0.00  0.00    +0.000 HD
ENDBRANCH  28  30
ENDBRANCH  25  28
ENDBRANCH  21  22
ENDBRANCH   1  21
TORSDOF 9
ENDMDL
