MODEL 1
REMARK VINA RESULT:      -8.0      0.000      0.000
REMARK  Name = 
REMARK  9 active torsions:
REMARK  status: ('A' for Active; 'I' for Inactive)
REMARK    1  A    between atoms: C_1  and  N_2
REMARK    2  A    between atoms: N_2  and  C_3
REMARK    3  A    between atoms: N_2  and  C_4
REMARK    4  A    between atoms: C_7  and  C_8
REMARK    5  A    between atoms: C_8  and  C_9
REMARK    6  A    between atoms: C_8  and  N_21
REMARK    7  A    between atoms: C_9  and  N_10
REMARK    8  A    between atoms: N_10  and  S_11
REMARK    9  A    between atoms: S_11  and  C_14
REMARK                            x       y       z     vdW  Elec       q    Type
REMARK                         _______ _______ _______ _____ _____    ______ ____
ROOT
ATOM      1  C   UNL     1       3.469   5.338  18.743  0.00  0.00    +0.000 C 
ENDROOT
BRANCH   1   5
ATOM      2  C   UNL     1       1.295   9.094  19.505  0.00  0.00    +0.000 A 
ATOM      3  C   UNL     1       1.494   8.126  20.502  0.00  0.00    +0.000 A 
ATOM      4  C   UNL     1       2.192   6.929  20.259  0.00  0.00    +0.000 A 
ATOM      5  C   UNL     1       2.728   6.648  18.996  0.00  0.00    +0.000 A 
ATOM      6  C   UNL     1       2.531   7.599  17.992  0.00  0.00    +0.000 A 
ATOM      7  C   UNL     1       1.845   8.793  18.250  0.00  0.00    +0.000 A 
BRANCH   2   9
ATOM      8  C   UNL     1       0.938  11.098  20.914  0.00  0.00    +0.000 C 
ATOM      9  N   UNL     1       0.623  10.297  19.736  0.00  0.00    +0.000 N 
ATOM     10  C   UNL     1      -0.715  10.467  19.176  0.00  0.00    +0.000 C 
ENDBRANCH   2   9
ENDBRANCH   1   5
BRANCH   1  11
ATOM     11  N   UNL     1       2.888   4.119  19.355  0.00  0.00    +0.000 NA
ATOM     12  C   UNL     1       3.791   2.969  19.440  0.00  0.00    +0.000 C 
ATOM     13  C   UNL     1       3.380   2.040  18.316  0.00  0.00    +0.000 C 
ATOM     14  C   UNL     1       1.889   2.277  18.168  0.00  0.00    +0.000 C 
ATOM     15  C   UNL     1       1.620   3.633  18.814  0.00  0.00    +0.000 C 
ENDBRANCH   1  11
BRANCH   1  16
ATOM     16  C   UNL     1       4.998   5.515  19.021  0.00  0.00    +0.000 C 
BRANCH  16  17
ATOM     17  N   UNL     1       5.657   6.305  17.965  0.00  0.00    +0.000 NA
ATOM     18  H   UNL     1       5.552   7.319  17.990  0.00  0.00    +0.000 HD
BRANCH  17  19
ATOM     19  S   UNL     1       7.131   5.788  17.375  0.00  0.00    +0.000 S 
ATOM     20  O   UNL     1       7.869   6.978  17.017  0.00  0.00    +0.000 OA
ATOM     21  O   UNL     1       7.666   4.811  18.299  0.00  0.00    +0.000 OA
BRANCH  19  22
ATOM     22  C   UNL     1       6.701   4.967  15.859  0.00  0.00    +0.000 A 
ATOM     23  C   UNL     1       5.552   4.171  15.810  0.00  0.00    +0.000 A 
ATOM     24  C   UNL     1       5.169   3.590  14.600  0.00  0.00    +0.000 A 
ATOM     25  C   UNL     1       5.931   3.812  13.451  0.00  0.00    +0.000 A 
ATOM     26 BR   UNL     1       5.388   3.054  11.805  0.00  0.00    +0.000 Br
ATOM     27  C   UNL     1       7.081   4.602  13.501  0.00  0.00    +0.000 A 
ATOM     28  C   UNL     1       7.471   5.183  14.710  0.00  0.00    +0.000 A 
ENDBRANCH  19  22
ENDBRANCH  17  19
ENDBRANCH  16  17
ENDBRANCH   1  16
TORSDOF 7
ENDMDL
MODEL 2
REMARK VINA RESULT:      -7.9      0.177      1.478
REMARK  Name = 
REMARK  9 active torsions:
REMARK  status: ('A' for Active; 'I' for Inactive)
REMARK    1  A    between atoms: C_1  and  N_2
REMARK    2  A    between atoms: N_2  and  C_3
REMARK    3  A    between atoms: N_2  and  C_4
REMARK    4  A    between atoms: C_7  and  C_8
REMARK    5  A    between atoms: C_8  and  C_9
REMARK    6  A    between atoms: C_8  and  N_21
REMARK    7  A    between atoms: C_9  and  N_10
REMARK    8  A    between atoms: N_10  and  S_11
REMARK    9  A    between atoms: S_11  and  C_14
REMARK                            x       y       z     vdW  Elec       q    Type
REMARK                         _______ _______ _______ _____ _____    ______ ____
ROOT
ATOM      1  C   UNL     1       3.464   5.283  18.781  0.00  0.00    +0.000 C 
ENDROOT
BRANCH   1   5
ATOM      2  C   UNL     1       1.266   9.032  19.507  0.00  0.00    +0.000 A 
ATOM      3  C   UNL     1       1.801   8.706  18.250  0.00  0.00    +0.000 A 
ATOM      4  C   UNL     1       2.499   7.507  18.019  0.00  0.00    +0.000 A 
ATOM      5  C   UNL     1       2.691   6.572  19.043  0.00  0.00    +0.000 A 
ATOM      6  C   UNL     1       2.170   6.886  20.301  0.00  0.00    +0.000 A 
ATOM      7  C   UNL     1       1.466   8.078  20.517  0.00  0.00    +0.000 A 
BRANCH   2   9
ATOM      8  C   UNL     1      -0.248  10.811  18.687  0.00  0.00    +0.000 C 
ATOM      9  N   UNL     1       0.552  10.208  19.748  0.00  0.00    +0.000 N 
ATOM     10  C   UNL     1       1.029  11.111  20.793  0.00  0.00    +0.000 C 
ENDBRANCH   2   9
ENDBRANCH   1   5
BRANCH   1  11
ATOM     11  N   UNL     1       2.908   4.044  19.376  0.00  0.00    +0.000 NA
ATOM     12  C   UNL     1       3.841   2.920  19.467  0.00  0.00    +0.000 C 
ATOM     13  C   UNL     1       3.474   1.986  18.332  0.00  0.00    +0.000 C 
ATOM     14  C   UNL     1       1.979   2.183  18.162  0.00  0.00    +0.000 C 
ATOM     15  C   UNL     1       1.662   3.527  18.813  0.00  0.00    +0.000 C 
ENDBRANCH   1  11
BRANCH   1  16
ATOM     16  C   UNL     1       4.987   5.493  19.071  0.00  0.00    +0.000 C 
BRANCH  16  17
ATOM     17  N   UNL     1       5.636   6.300  18.022  0.00  0.00    +0.000 NA
ATOM     18  H   UNL     1       5.549   7.315  18.078  0.00  0.00    +0.000 HD
BRANCH  17  19
ATOM     19  S   UNL     1       7.088   5.776  17.387  0.00  0.00    +0.000 S 
ATOM     20  O   UNL     1       7.859   6.964  17.092  0.00  0.00    +0.000 OA
ATOM     21  O   UNL     1       7.602   4.731  18.245  0.00  0.00    +0.000 OA
BRANCH  19  22
ATOM     22  C   UNL     1       6.620   5.060  15.829  0.00  0.00    +0.000 A 
ATOM     23  C   UNL     1       7.461   5.212  14.723  0.00  0.00    +0.000 A 
ATOM     24  C   UNL     1       7.134   4.584  13.519  0.00  0.00    +0.000 A 
ATOM     25  C   UNL     1       5.978   3.807  13.433  0.00  0.00    +0.000 A 
ATOM     26 BR   UNL     1       5.559   2.926  11.812  0.00  0.00    +0.000 Br
ATOM     27  C   UNL     1       5.135   3.660  14.536  0.00  0.00    +0.000 A 
ATOM     28  C   UNL     1       5.455   4.290  15.742  0.00  0.00    +0.000 A 
ENDBRANCH  19  22
ENDBRANCH  17  19
ENDBRANCH  16  17
ENDBRANCH   1  16
TORSDOF 7
ENDMDL
MODEL 3
REMARK VINA RESULT:      -7.9      0.986      1.670
REMARK  Name = 
REMARK  9 active torsions:
REMARK  status: ('A' for Active; 'I' for Inactive)
REMARK    1  A    between atoms: C_1  and  N_2
REMARK    2  A    between atoms: N_2  and  C_3
REMARK    3  A    between atoms: N_2  and  C_4
REMARK    4  A    between atoms: C_7  and  C_8
REMARK    5  A    between atoms: C_8  and  C_9
REMARK    6  A    between atoms: C_8  and  N_21
REMARK    7  A    between atoms: C_9  and  N_10
REMARK    8  A    between atoms: N_10  and  S_11
REMARK    9  A    between atoms: S_11  and  C_14
REMARK                            x       y       z     vdW  Elec       q    Type
REMARK                         _______ _______ _______ _____ _____    ______ ____
ROOT
ATOM      1  C   UNL     1       3.626   5.097  18.737  0.00  0.00    +0.000 C 
ENDROOT
BRANCH   1   5
ATOM      2  C   UNL     1       1.402   8.866  19.252  0.00  0.00    +0.000 A 
ATOM      3  C   UNL     1       1.697   8.014  20.329  0.00  0.00    +0.000 A 
ATOM      4  C   UNL     1       2.411   6.814  20.163  0.00  0.00    +0.000 A 
ATOM      5  C   UNL     1       2.867   6.411  18.903  0.00  0.00    +0.000 A 
ATOM      6  C   UNL     1       2.575   7.245  17.821  0.00  0.00    +0.000 A 
ATOM      7  C   UNL     1       1.874   8.444  17.999  0.00  0.00    +0.000 A 
BRANCH   2   9
ATOM      8  C   UNL     1       1.332  11.326  18.986  0.00  0.00    +0.000 C 
ATOM      9  N   UNL     1       0.714  10.072  19.403  0.00  0.00    +0.000 N 
ATOM     10  C   UNL     1      -0.306  10.167  20.445  0.00  0.00    +0.000 C 
ENDBRANCH   2   9
ENDBRANCH   1   5
BRANCH   1  11
ATOM     11  N   UNL     1       2.862   3.853  18.995  0.00  0.00    +0.000 NA
ATOM     12  C   UNL     1       1.412   3.962  18.825  0.00  0.00    +0.000 C 
ATOM     13  C   UNL     1       0.840   4.054  20.225  0.00  0.00    +0.000 C 
ATOM     14  C   UNL     1       1.805   3.246  21.072  0.00  0.00    +0.000 C 
ATOM     15  C   UNL     1       3.098   3.169  20.265  0.00  0.00    +0.000 C 
ENDBRANCH   1  11
BRANCH   1  16
ATOM     16  C   UNL     1       4.997   5.162  19.488  0.00  0.00    +0.000 C 
BRANCH  16  17
ATOM     17  N   UNL     1       6.013   4.311  18.842  0.00  0.00    +0.000 NA
ATOM     18  H   UNL     1       5.727   3.389  18.516  0.00  0.00    +0.000 HD
BRANCH  17  19
ATOM     19  S   UNL     1       7.184   5.034  17.896  0.00  0.00    +0.000 S 
ATOM     20  O   UNL     1       7.019   6.461  18.058  0.00  0.00    +0.000 OA
ATOM     21  O   UNL     1       8.445   4.380  18.166  0.00  0.00    +0.000 OA
BRANCH  19  22
ATOM     22  C   UNL     1       6.675   4.636  16.240  0.00  0.00    +0.000 A 
ATOM     23  C   UNL     1       7.461   5.053  15.161  0.00  0.00    +0.000 A 
ATOM     24  C   UNL     1       7.106   4.674  13.865  0.00  0.00    +0.000 A 
ATOM     25  C   UNL     1       5.977   3.879  13.658  0.00  0.00    +0.000 A 
ATOM     26 BR   UNL     1       5.521   3.336  11.905  0.00  0.00    +0.000 Br
ATOM     27  C   UNL     1       5.189   3.469  14.735  0.00  0.00    +0.000 A 
ATOM     28  C   UNL     1       5.538   3.848  16.034  0.00  0.00    +0.000 A 
ENDBRANCH  19  22
ENDBRANCH  17  19
ENDBRANCH  16  17
ENDBRANCH   1  16
TORSDOF 7
ENDMDL
MODEL 4
REMARK VINA RESULT:      -7.8      0.630      1.255
REMARK  Name = 
REMARK  9 active torsions:
REMARK  status: ('A' for Active; 'I' for Inactive)
REMARK    1  A    between atoms: C_1  and  N_2
REMARK    2  A    between atoms: N_2  and  C_3
REMARK    3  A    between atoms: N_2  and  C_4
REMARK    4  A    between atoms: C_7  and  C_8
REMARK    5  A    between atoms: C_8  and  C_9
REMARK    6  A    between atoms: C_8  and  N_21
REMARK    7  A    between atoms: C_9  and  N_10
REMARK    8  A    between atoms: N_10  and  S_11
REMARK    9  A    between atoms: S_11  and  C_14
REMARK                            x       y       z     vdW  Elec       q    Type
REMARK                         _______ _______ _______ _____ _____    ______ ____
ROOT
ATOM      1  C   UNL     1       3.233   5.936  18.395  0.00  0.00    +0.000 C 
ENDROOT
BRANCH   1   5
ATOM      2  C   UNL     1       1.047   9.613  19.453  0.00  0.00    +0.000 A 
ATOM      3  C   UNL     1       1.529   9.372  18.156  0.00  0.00    +0.000 A 
ATOM      4  C   UNL     1       2.223   8.196  17.819  0.00  0.00    +0.000 A 
ATOM      5  C   UNL     1       2.464   7.200  18.772  0.00  0.00    +0.000 A 
ATOM      6  C   UNL     1       1.996   7.429  20.068  0.00  0.00    +0.000 A 
ATOM      7  C   UNL     1       1.295   8.598  20.390  0.00  0.00    +0.000 A 
BRANCH   2   9
ATOM      8  C   UNL     1      -0.001  11.752  18.779  0.00  0.00    +0.000 C 
ATOM      9  N   UNL     1       0.337  10.765  19.799  0.00  0.00    +0.000 N 
ATOM     10  C   UNL     1       0.435  11.259  21.171  0.00  0.00    +0.000 C 
ENDBRANCH   2   9
ENDBRANCH   1   5
BRANCH   1  11
ATOM     11  N   UNL     1       2.683   4.653  18.893  0.00  0.00    +0.000 NA
ATOM     12  C   UNL     1       3.679   3.676  19.338  0.00  0.00    +0.000 C 
ATOM     13  C   UNL     1       3.788   2.661  18.218  0.00  0.00    +0.000 C 
ATOM     14  C   UNL     1       2.401   2.638  17.605  0.00  0.00    +0.000 C 
ATOM     15  C   UNL     1       1.739   3.945  18.031  0.00  0.00    +0.000 C 
ENDBRANCH   1  11
BRANCH   1  16
ATOM     16  C   UNL     1       4.760   6.122  18.684  0.00  0.00    +0.000 C 
BRANCH  16  17
ATOM     17  N   UNL     1       5.470   6.685  17.521  0.00  0.00    +0.000 NA
ATOM     18  H   UNL     1       5.360   7.681  17.330  0.00  0.00    +0.000 HD
BRANCH  17  19
ATOM     19  S   UNL     1       6.975   6.079  17.126  0.00  0.00    +0.000 S 
ATOM     20  O   UNL     1       7.783   7.213  16.735  0.00  0.00    +0.000 OA
ATOM     21  O   UNL     1       7.387   5.180  18.182  0.00  0.00    +0.000 OA
BRANCH  19  22
ATOM     22  C   UNL     1       6.663   5.132  15.656  0.00  0.00    +0.000 A 
ATOM     23  C   UNL     1       5.522   4.327  15.586  0.00  0.00    +0.000 A 
ATOM     24  C   UNL     1       5.233   3.643  14.403  0.00  0.00    +0.000 A 
ATOM     25  C   UNL     1       6.080   3.775  13.301  0.00  0.00    +0.000 A 
ATOM     26 BR   UNL     1       5.665   2.878  11.688  0.00  0.00    +0.000 Br
ATOM     27  C   UNL     1       7.222   4.574  13.372  0.00  0.00    +0.000 A 
ATOM     28  C   UNL     1       7.518   5.256  14.555  0.00  0.00    +0.000 A 
ENDBRANCH  19  22
ENDBRANCH  17  19
ENDBRANCH  16  17
ENDBRANCH   1  16
TORSDOF 7
ENDMDL
MODEL 5
REMARK VINA RESULT:      -7.6      0.749      1.231
REMARK  Name = 
REMARK  9 active torsions:
REMARK  status: ('A' for Active; 'I' for Inactive)
REMARK    1  A    between atoms: C_1  and  N_2
REMARK    2  A    between atoms: N_2  and  C_3
REMARK    3  A    between atoms: N_2  and  C_4
REMARK    4  A    between atoms: C_7  and  C_8
REMARK    5  A    between atoms: C_8  and  C_9
REMARK    6  A    between atoms: C_8  and  N_21
REMARK    7  A    between atoms: C_9  and  N_10
REMARK    8  A    between atoms: N_10  and  S_11
REMARK    9  A    between atoms: S_11  and  C_14
REMARK                            x       y       z     vdW  Elec       q    Type
REMARK                         _______ _______ _______ _____ _____    ______ ____
ROOT
ATOM      1  C   UNL     1       3.305   5.165  19.203  0.00  0.00    +0.000 C 
ENDROOT
BRANCH   1   5
ATOM      2  C   UNL     1       1.387   9.129  19.058  0.00  0.00    +0.000 A 
ATOM      3  C   UNL     1       1.553   8.418  20.258  0.00  0.00    +0.000 A 
ATOM      4  C   UNL     1       2.170   7.155  20.303  0.00  0.00    +0.000 A 
ATOM      5  C   UNL     1       2.653   6.544  19.140  0.00  0.00    +0.000 A 
ATOM      6  C   UNL     1       2.489   7.236  17.938  0.00  0.00    +0.000 A 
ATOM      7  C   UNL     1       1.885   8.500  17.907  0.00  0.00    +0.000 A 
BRANCH   2   9
ATOM      8  C   UNL     1       1.629  11.587  18.884  0.00  0.00    +0.000 C 
ATOM      9  N   UNL     1       0.797  10.394  18.999  0.00  0.00    +0.000 N 
ATOM     10  C   UNL     1      -0.519  10.579  19.607  0.00  0.00    +0.000 C 
ENDBRANCH   2   9
ENDBRANCH   1   5
BRANCH   1  11
ATOM     11  N   UNL     1       2.653   4.163  20.079  0.00  0.00    +0.000 NA
ATOM     12  C   UNL     1       3.137   2.789  19.927  0.00  0.00    +0.000 C 
ATOM     13  C   UNL     1       2.086   2.072  19.104  0.00  0.00    +0.000 C 
ATOM     14  C   UNL     1       0.789   2.760  19.482  0.00  0.00    +0.000 C 
ATOM     15  C   UNL     1       1.192   4.110  20.070  0.00  0.00    +0.000 C 
ENDBRANCH   1  11
BRANCH   1  16
ATOM     16  C   UNL     1       4.846   5.303  19.441  0.00  0.00    +0.000 C 
BRANCH  16  17
ATOM     17  N   UNL     1       5.479   6.168  18.429  0.00  0.00    +0.000 NA
ATOM     18  H   UNL     1       5.350   7.176  18.514  0.00  0.00    +0.000 HD
BRANCH  17  19
ATOM     19  S   UNL     1       6.962   5.723  17.804  0.00  0.00    +0.000 S 
ATOM     20  O   UNL     1       7.707   6.946  17.607  0.00  0.00    +0.000 OA
ATOM     21  O   UNL     1       7.480   4.639  18.608  0.00  0.00    +0.000 OA
BRANCH  19  22
ATOM     22  C   UNL     1       6.556   5.097  16.191  0.00  0.00    +0.000 A 
ATOM     23  C   UNL     1       7.499   5.187  15.162  0.00  0.00    +0.000 A 
ATOM     24  C   UNL     1       7.212   4.625  13.916  0.00  0.00    +0.000 A 
ATOM     25  C   UNL     1       5.994   3.974  13.711  0.00  0.00    +0.000 A 
ATOM     26 BR   UNL     1       5.626   3.180  12.034  0.00  0.00    +0.000 Br
ATOM     27  C   UNL     1       5.051   3.890  14.737  0.00  0.00    +0.000 A 
ATOM     28  C   UNL     1       5.330   4.454  15.984  0.00  0.00    +0.000 A 
ENDBRANCH  19  22
ENDBRANCH  17  19
ENDBRANCH  16  17
ENDBRANCH   1  16
TORSDOF 7
ENDMDL
MODEL 6
REMARK VINA RESULT:      -7.6      0.700      1.220
REMARK  Name = 
REMARK  9 active torsions:
REMARK  status: ('A' for Active; 'I' for Inactive)
REMARK    1  A    between atoms: C_1  and  N_2
REMARK    2  A    between atoms: N_2  and  C_3
REMARK    3  A    between atoms: N_2  and  C_4
REMARK    4  A    between atoms: C_7  and  C_8
REMARK    5  A    between atoms: C_8  and  C_9
REMARK    6  A    between atoms: C_8  and  N_21
REMARK    7  A    between atoms: C_9  and  N_10
REMARK    8  A    between atoms: N_10  and  S_11
REMARK    9  A    between atoms: S_11  and  C_14
REMARK                            x       y       z     vdW  Elec       q    Type
REMARK                         _______ _______ _______ _____ _____    ______ ____
ROOT
ATOM      1  C   UNL     1       3.189   5.562  18.142  0.00  0.00    +0.000 C 
ENDROOT
BRANCH   1   5
ATOM      2  C   UNL     1       1.254   9.273  19.518  0.00  0.00    +0.000 A 
ATOM      3  C   UNL     1       1.621   8.245  20.402  0.00  0.00    +0.000 A 
ATOM      4  C   UNL     1       2.243   7.063  19.961  0.00  0.00    +0.000 A 
ATOM      5  C   UNL     1       2.529   6.857  18.607  0.00  0.00    +0.000 A 
ATOM      6  C   UNL     1       2.163   7.868  17.715  0.00  0.00    +0.000 A 
ATOM      7  C   UNL     1       1.556   9.047  18.167  0.00  0.00    +0.000 A 
BRANCH   2   9
ATOM      8  C   UNL     1      -0.432  10.431  20.913  0.00  0.00    +0.000 C 
ATOM      9  N   UNL     1       0.656  10.463  19.942  0.00  0.00    +0.000 N 
ATOM     10  C   UNL     1       0.695  11.618  19.049  0.00  0.00    +0.000 C 
ENDBRANCH   2   9
ENDBRANCH   1   5
BRANCH   1  11
ATOM     11  N   UNL     1       2.431   4.310  18.377  0.00  0.00    +0.000 NA
ATOM     12  C   UNL     1       2.726   3.627  19.639  0.00  0.00    +0.000 C 
ATOM     13  C   UNL     1       3.628   2.465  19.276  0.00  0.00    +0.000 C 
ATOM     14  C   UNL     1       3.189   2.079  17.876  0.00  0.00    +0.000 C 
ATOM     15  C   UNL     1       2.456   3.298  17.322  0.00  0.00    +0.000 C 
ENDBRANCH   1  11
BRANCH   1  16
ATOM     16  C   UNL     1       4.674   5.501  18.633  0.00  0.00    +0.000 C 
BRANCH  16  17
ATOM     17  N   UNL     1       5.547   6.384  17.839  0.00  0.00    +0.000 NA
ATOM     18  H   UNL     1       5.556   7.378  18.066  0.00  0.00    +0.000 HD
BRANCH  17  19
ATOM     19  S   UNL     1       7.017   5.795  17.308  0.00  0.00    +0.000 S 
ATOM     20  O   UNL     1       7.842   6.948  17.024  0.00  0.00    +0.000 OA
ATOM     21  O   UNL     1       7.445   4.763  18.227  0.00  0.00    +0.000 OA
BRANCH  19  22
ATOM     22  C   UNL     1       6.618   5.044  15.748  0.00  0.00    +0.000 A 
ATOM     23  C   UNL     1       7.430   5.294  14.637  0.00  0.00    +0.000 A 
ATOM     24  C   UNL     1       7.165   4.643  13.431  0.00  0.00    +0.000 A 
ATOM     25  C   UNL     1       6.100   3.745  13.346  0.00  0.00    +0.000 A 
ATOM     26 BR   UNL     1       5.767   2.836  11.720  0.00  0.00    +0.000 Br
ATOM     27  C   UNL     1       5.285   3.499  14.453  0.00  0.00    +0.000 A 
ATOM     28  C   UNL     1       5.544   4.151  15.661  0.00  0.00    +0.000 A 
ENDBRANCH  19  22
ENDBRANCH  17  19
ENDBRANCH  16  17
ENDBRANCH   1  16
TORSDOF 7
ENDMDL
MODEL 7
REMARK VINA RESULT:      -7.6      0.997      1.695
REMARK  Name = 
REMARK  9 active torsions:
REMARK  status: ('A' for Active; 'I' for Inactive)
REMARK    1  A    between atoms: C_1  and  N_2
REMARK    2  A    between atoms: N_2  and  C_3
REMARK    3  A    between atoms: N_2  and  C_4
REMARK    4  A    between atoms: C_7  and  C_8
REMARK    5  A    between atoms: C_8  and  C_9
REMARK    6  A    between atoms: C_8  and  N_21
REMARK    7  A    between atoms: C_9  and  N_10
REMARK    8  A    between atoms: N_10  and  S_11
REMARK    9  A    between atoms: S_11  and  C_14
REMARK                            x       y       z     vdW  Elec       q    Type
REMARK                         _______ _______ _______ _____ _____    ______ ____
ROOT
ATOM      1  C   UNL     1       2.876   5.642  18.738  0.00  0.00    +0.000 C 
ENDROOT
BRANCH   1   5
ATOM      2  C   UNL     1       1.238   9.717  19.093  0.00  0.00    +0.000 A 
ATOM      3  C   UNL     1       1.704   9.198  17.873  0.00  0.00    +0.000 A 
ATOM      4  C   UNL     1       2.223   7.896  17.761  0.00  0.00    +0.000 A 
ATOM      5  C   UNL     1       2.296   7.048  18.872  0.00  0.00    +0.000 A 
ATOM      6  C   UNL     1       1.842   7.553  20.093  0.00  0.00    +0.000 A 
ATOM      7  C   UNL     1       1.316   8.847  20.191  0.00  0.00    +0.000 A 
BRANCH   2   9
ATOM      8  C   UNL     1       1.495  12.077  19.797  0.00  0.00    +0.000 C 
ATOM      9  N   UNL     1       0.699  11.001  19.217  0.00  0.00    +0.000 N 
ATOM     10  C   UNL     1      -0.751  11.140  19.316  0.00  0.00    +0.000 C 
ENDBRANCH   2   9
ENDBRANCH   1   5
BRANCH   1  11
ATOM     11  N   UNL     1       1.921   4.516  18.861  0.00  0.00    +0.000 NA
ATOM     12  C   UNL     1       1.918   3.835  20.157  0.00  0.00    +0.000 C 
ATOM     13  C   UNL     1       2.691   2.549  19.947  0.00  0.00    +0.000 C 
ATOM     14  C   UNL     1       2.421   2.188  18.499  0.00  0.00    +0.000 C 
ATOM     15  C   UNL     1       1.963   3.481  17.829  0.00  0.00    +0.000 C 
ENDBRANCH   1  11
BRANCH   1  16
ATOM     16  C   UNL     1       4.148   5.491  19.637  0.00  0.00    +0.000 C 
BRANCH  16  17
ATOM     17  N   UNL     1       5.172   4.647  18.996  0.00  0.00    +0.000 NA
ATOM     18  H   UNL     1       4.870   3.773  18.565  0.00  0.00    +0.000 HD
BRANCH  17  19
ATOM     19  S   UNL     1       6.447   5.386  18.211  0.00  0.00    +0.000 S 
ATOM     20  O   UNL     1       6.185   6.807  18.251  0.00  0.00    +0.000 OA
ATOM     21  O   UNL     1       7.677   4.825  18.727  0.00  0.00    +0.000 OA
BRANCH  19  22
ATOM     22  C   UNL     1       6.246   4.867  16.523  0.00  0.00    +0.000 A 
ATOM     23  C   UNL     1       7.211   5.222  15.576  0.00  0.00    +0.000 A 
ATOM     24  C   UNL     1       7.096   4.750  14.267  0.00  0.00    +0.000 A 
ATOM     25  C   UNL     1       6.026   3.924  13.918  0.00  0.00    +0.000 A 
ATOM     26 BR   UNL     1       5.894   3.254  12.154  0.00  0.00    +0.000 Br
ATOM     27  C   UNL     1       5.059   3.574  14.862  0.00  0.00    +0.000 A 
ATOM     28  C   UNL     1       5.167   4.047  16.172  0.00  0.00    +0.000 A 
ENDBRANCH  19  22
ENDBRANCH  17  19
ENDBRANCH  16  17
ENDBRANCH   1  16
TORSDOF 7
ENDMDL
MODEL 8
REMARK VINA RESULT:      -7.5      0.938      1.882
REMARK  Name = 
REMARK  9 active torsions:
REMARK  status: ('A' for Active; 'I' for Inactive)
REMARK    1  A    between atoms: C_1  and  N_2
REMARK    2  A    between atoms: N_2  and  C_3
REMARK    3  A    between atoms: N_2  and  C_4
REMARK    4  A    between atoms: C_7  and  C_8
REMARK    5  A    between atoms: C_8  and  C_9
REMARK    6  A    between atoms: C_8  and  N_21
REMARK    7  A    between atoms: C_9  and  N_10
REMARK    8  A    between atoms: N_10  and  S_11
REMARK    9  A    between atoms: S_11  and  C_14
REMARK                            x       y       z     vdW  Elec       q    Type
REMARK                         _______ _______ _______ _____ _____    ______ ____
ROOT
ATOM      1  C   UNL     1       3.615   4.617  18.700  0.00  0.00    +0.000 C 
ENDROOT
BRANCH   1   5
ATOM      2  C   UNL     1       1.641   8.504  19.341  0.00  0.00    +0.000 A 
ATOM      3  C   UNL     1       2.023   8.057  18.065  0.00  0.00    +0.000 A 
ATOM      4  C   UNL     1       2.649   6.814  17.862  0.00  0.00    +0.000 A 
ATOM      5  C   UNL     1       2.920   5.956  18.934  0.00  0.00    +0.000 A 
ATOM      6  C   UNL     1       2.551   6.391  20.210  0.00  0.00    +0.000 A 
ATOM      7  C   UNL     1       1.917   7.625  20.399  0.00  0.00    +0.000 A 
BRANCH   2   9
ATOM      8  C   UNL     1      -0.231   9.778  20.341  0.00  0.00    +0.000 C 
ATOM      9  N   UNL     1       0.998   9.725  19.557  0.00  0.00    +0.000 N 
ATOM     10  C   UNL     1       1.193  10.797  18.583  0.00  0.00    +0.000 C 
ENDBRANCH   2   9
ENDBRANCH   1   5
BRANCH   1  11
ATOM     11  N   UNL     1       2.882   3.405  19.137  0.00  0.00    +0.000 NA
ATOM     12  C   UNL     1       1.456   3.382  18.806  0.00  0.00    +0.000 C 
ATOM     13  C   UNL     1       0.730   3.719  20.093  0.00  0.00    +0.000 C 
ATOM     14  C   UNL     1       1.631   3.166  21.181  0.00  0.00    +0.000 C 
ATOM     15  C   UNL     1       3.007   3.011  20.539  0.00  0.00    +0.000 C 
ENDBRANCH   1  11
BRANCH   1  16
ATOM     16  C   UNL     1       5.094   4.677  19.207  0.00  0.00    +0.000 C 
BRANCH  16  17
ATOM     17  N   UNL     1       5.833   5.800  18.602  0.00  0.00    +0.000 NA
ATOM     18  H   UNL     1       5.814   6.699  19.083  0.00  0.00    +0.000 HD
BRANCH  17  19
ATOM     19  S   UNL     1       7.268   5.484  17.808  0.00  0.00    +0.000 S 
ATOM     20  O   UNL     1       7.922   6.760  17.620  0.00  0.00    +0.000 OA
ATOM     21  O   UNL     1       7.923   4.387  18.485  0.00  0.00    +0.000 OA
BRANCH  19  22
ATOM     22  C   UNL     1       6.736   4.932  16.204  0.00  0.00    +0.000 A 
ATOM     23  C   UNL     1       7.502   5.253  15.079  0.00  0.00    +0.000 A 
ATOM     24  C   UNL     1       7.129   4.754  13.829  0.00  0.00    +0.000 A 
ATOM     25  C   UNL     1       6.004   3.936  13.715  0.00  0.00    +0.000 A 
ATOM     26 BR   UNL     1       5.524   3.230  12.027  0.00  0.00    +0.000 Br
ATOM     27  C   UNL     1       5.235   3.621  14.838  0.00  0.00    +0.000 A 
ATOM     28  C   UNL     1       5.601   4.121  16.090  0.00  0.00    +0.000 A 
ENDBRANCH  19  22
ENDBRANCH  17  19
ENDBRANCH  16  17
ENDBRANCH   1  16
TORSDOF 7
ENDMDL
MODEL 9
REMARK VINA RESULT:      -7.5      0.944      1.125
REMARK  Name = 
REMARK  9 active torsions:
REMARK  status: ('A' for Active; 'I' for Inactive)
REMARK    1  A    between atoms: C_1  and  N_2
REMARK    2  A    between atoms: N_2  and  C_3
REMARK    3  A    between atoms: N_2  and  C_4
REMARK    4  A    between atoms: C_7  and  C_8
REMARK    5  A    between atoms: C_8  and  C_9
REMARK    6  A    between atoms: C_8  and  N_21
REMARK    7  A    between atoms: C_9  and  N_10
REMARK    8  A    between atoms: N_10  and  S_11
REMARK    9  A    between atoms: S_11  and  C_14
REMARK                            x       y       z     vdW  Elec       q    Type
REMARK                         _______ _______ _______ _____ _____    ______ ____
ROOT
ATOM      1  C   UNL     1       3.039   5.613  18.670  0.00  0.00    +0.000 C 
ENDROOT
BRANCH   1   5
ATOM      2  C   UNL     1       1.190   9.531  19.473  0.00  0.00    +0.000 A 
ATOM      3  C   UNL     1       1.314   8.542  20.462  0.00  0.00    +0.000 A 
ATOM      4  C   UNL     1       1.908   7.294  20.205  0.00  0.00    +0.000 A 
ATOM      5  C   UNL     1       2.411   6.978  18.938  0.00  0.00    +0.000 A 
ATOM      6  C   UNL     1       2.289   7.950  17.942  0.00  0.00    +0.000 A 
ATOM      7  C   UNL     1       1.706   9.195  18.212  0.00  0.00    +0.000 A 
BRANCH   2   9
ATOM      8  C   UNL     1       0.553  11.778  18.651  0.00  0.00    +0.000 C 
ATOM      9  N   UNL     1       0.623  10.785  19.717  0.00  0.00    +0.000 N 
ATOM     10  C   UNL     1       0.636  11.300  21.084  0.00  0.00    +0.000 C 
ENDBRANCH   2   9
ENDBRANCH   1   5
BRANCH   1  11
ATOM     11  N   UNL     1       2.118   4.451  18.657  0.00  0.00    +0.000 NA
ATOM     12  C   UNL     1       2.204   3.570  19.824  0.00  0.00    +0.000 C 
ATOM     13  C   UNL     1       2.994   2.360  19.367  0.00  0.00    +0.000 C 
ATOM     14  C   UNL     1       2.650   2.230  17.895  0.00  0.00    +0.000 C 
ATOM     15  C   UNL     1       2.125   3.599  17.470  0.00  0.00    +0.000 C 
ENDBRANCH   1  11
BRANCH   1  16
ATOM     16  C   UNL     1       4.300   5.407  19.573  0.00  0.00    +0.000 C 
BRANCH  16  17
ATOM     17  N   UNL     1       5.403   4.769  18.832  0.00  0.00    +0.000 NA
ATOM     18  H   UNL     1       5.242   3.841  18.442  0.00  0.00    +0.000 HD
BRANCH  17  19
ATOM     19  S   UNL     1       6.414   5.727  17.912  0.00  0.00    +0.000 S 
ATOM     20  O   UNL     1       5.769   7.017  17.802  0.00  0.00    +0.000 OA
ATOM     21  O   UNL     1       7.757   5.591  18.432  0.00  0.00    +0.000 OA
BRANCH  19  22
ATOM     22  C   UNL     1       6.343   4.973  16.305  0.00  0.00    +0.000 A 
ATOM     23  C   UNL     1       5.248   4.170  15.970  0.00  0.00    +0.000 A 
ATOM     24  C   UNL     1       5.151   3.641  14.681  0.00  0.00    +0.000 A 
ATOM     25  C   UNL     1       6.142   3.923  13.739  0.00  0.00    +0.000 A 
ATOM     26 BR   UNL     1       5.988   3.236  11.983  0.00  0.00    +0.000 Br
ATOM     27  C   UNL     1       7.239   4.719  14.075  0.00  0.00    +0.000 A 
ATOM     28  C   UNL     1       7.342   5.248  15.364  0.00  0.00    +0.000 A 
ENDBRANCH  19  22
ENDBRANCH  17  19
ENDBRANCH  16  17
ENDBRANCH   1  16
TORSDOF 7
ENDMDL
