MODEL 1
REMARK VINA RESULT:      -9.5      0.000      0.000
REMARK  Name = 
REMARK  10 active torsions:
REMARK  status: ('A' for Active; 'I' for Inactive)
REMARK    1  A    between atoms: C_1  and  C_2
REMARK    2  A    between atoms: C_2  and  C_3
REMARK    3  A    between atoms: C_2  and  C_4
REMARK    4  A    between atoms: C_2  and  C_10
REMARK    5  A    between atoms: C_4  and  N_5
REMARK    6  A    between atoms: N_5  and  S_6
REMARK    7  A    between atoms: S_6  and  C_7
REMARK    8  A    between atoms: C_10  and  C_11
REMARK    9  A    between atoms: C_10  and  C_17
REMARK   10  A    between atoms: N_24  and  C_25
REMARK                            x       y       z     vdW  Elec       q    Type
REMARK                         _______ _______ _______ _____ _____    ______ ____
ROOT
ATOM      1  C   UNL     1       2.943   5.557  18.179  0.00  0.00    +0.000 C 
ENDROOT
BRANCH   1   2
ATOM      2  C   UNL     1       2.475   6.978  18.526  0.00  0.00    +0.000 A 
ATOM      3  C   UNL     1       2.453   8.030  17.606  0.00  0.00    +0.000 A 
ATOM      4  C   UNL     1       1.972   9.291  17.950  0.00  0.00    +0.000 A 
ATOM      5  C   UNL     1       1.553   9.499  19.274  0.00  0.00    +0.000 A 
ATOM      6  C   UNL     1       1.569   8.492  20.222  0.00  0.00    +0.000 A 
ATOM      7  C   UNL     1       0.997   9.077  21.371  0.00  0.00    +0.000 A 
ATOM      8  N   UNL     1       0.564  10.326  21.156  0.00  0.00    +0.000 NA
ATOM      9  N   UNL     1       1.028  10.609  19.918  0.00  0.00    +0.000 N 
ATOM     10  C   UNL     1       2.069   7.228  19.860  0.00  0.00    +0.000 A 
BRANCH   9  11
ATOM     11  C   UNL     1       0.878  11.876  19.313  0.00  0.00    +0.000 A 
ATOM     12  C   UNL     1      -0.300  12.122  18.594  0.00  0.00    +0.000 A 
ATOM     13  C   UNL     1      -0.685  13.429  18.334  0.00  0.00    +0.000 A 
ATOM     14  C   UNL     1       0.125  14.467  18.777  0.00  0.00    +0.000 A 
ATOM     15  F   UNL     1      -0.312  15.730  18.655  0.00  0.00    +0.000 F 
ATOM     16  C   UNL     1       1.356  14.223  19.386  0.00  0.00    +0.000 A 
ATOM     17  C   UNL     1       1.761  12.907  19.638  0.00  0.00    +0.000 A 
ENDBRANCH   9  11
ENDBRANCH   1   2
BRANCH   1  18
ATOM     18  C   UNL     1       2.308   4.536  19.135  0.00  0.00    +0.000 A 
ATOM     19  C   UNL     1       1.332   3.621  18.706  0.00  0.00    +0.000 A 
ATOM     20  C   UNL     1       0.773   2.698  19.593  0.00  0.00    +0.000 A 
ATOM     21  C   UNL     1       1.177   2.675  20.924  0.00  0.00    +0.000 A 
ATOM     22  C   UNL     1       2.160   3.556  21.365  0.00  0.00    +0.000 A 
ATOM     23  C   UNL     1       2.730   4.470  20.475  0.00  0.00    +0.000 A 
ENDBRANCH   1  18
BRANCH   1  25
ATOM     24  C   UNL     1       4.799   3.803  18.016  0.00  0.00    +0.000 C 
ATOM     25  C   UNL     1       4.487   5.316  17.833  0.00  0.00    +0.000 C 
ATOM     26  C   UNL     1       5.468   6.098  18.738  0.00  0.00    +0.000 C 
BRANCH  25  27
ATOM     27  C   UNL     1       4.744   5.658  16.328  0.00  0.00    +0.000 C 
BRANCH  27  28
ATOM     28  N   UNL     1       6.142   6.079  16.093  0.00  0.00    +0.000 NA
ATOM     29  H   UNL     1       6.606   6.558  16.867  0.00  0.00    +0.000 HD
BRANCH  28  30
ATOM     30  S   UNL     1       7.207   4.945  15.449  0.00  0.00    +0.000 S 
ATOM     31  C   UNL     1       6.110   3.779  14.673  0.00  0.00    +0.000 C 
ATOM     32  O   UNL     1       7.942   5.643  14.419  0.00  0.00    +0.000 OA
ATOM     33  O   UNL     1       7.880   4.301  16.559  0.00  0.00    +0.000 OA
ENDBRANCH  28  30
ENDBRANCH  27  28
ENDBRANCH  25  27
ENDBRANCH   1  25
TORSDOF 7
ENDMDL
MODEL 2
REMARK VINA RESULT:      -9.4      1.300      2.038
REMARK  Name = 
REMARK  10 active torsions:
REMARK  status: ('A' for Active; 'I' for Inactive)
REMARK    1  A    between atoms: C_1  and  C_2
REMARK    2  A    between atoms: C_2  and  C_3
REMARK    3  A    between atoms: C_2  and  C_4
REMARK    4  A    between atoms: C_2  and  C_10
REMARK    5  A    between atoms: C_4  and  N_5
REMARK    6  A    between atoms: N_5  and  S_6
REMARK    7  A    between atoms: S_6  and  C_7
REMARK    8  A    between atoms: C_10  and  C_11
REMARK    9  A    between atoms: C_10  and  C_17
REMARK   10  A    between atoms: N_24  and  C_25
REMARK                            x       y       z     vdW  Elec       q    Type
REMARK                         _______ _______ _______ _____ _____    ______ ____
ROOT
ATOM      1  C   UNL     1       2.650   5.868  18.035  0.00  0.00    +0.000 C 
ENDROOT
BRANCH   1   2
ATOM      2  C   UNL     1       2.181   7.190  18.661  0.00  0.00    +0.000 A 
ATOM      3  C   UNL     1       1.875   8.332  17.915  0.00  0.00    +0.000 A 
ATOM      4  C   UNL     1       1.404   9.495  18.520  0.00  0.00    +0.000 A 
ATOM      5  C   UNL     1       1.291   9.511  19.920  0.00  0.00    +0.000 A 
ATOM      6  C   UNL     1       1.594   8.410  20.699  0.00  0.00    +0.000 A 
ATOM      7  C   UNL     1       1.266   8.804  22.014  0.00  0.00    +0.000 A 
ATOM      8  N   UNL     1       0.713  10.022  22.067  0.00  0.00    +0.000 NA
ATOM      9  N   UNL     1       0.857  10.486  20.805  0.00  0.00    +0.000 N 
ATOM     10  C   UNL     1       2.080   7.248  20.073  0.00  0.00    +0.000 A 
BRANCH   9  11
ATOM     11  C   UNL     1       0.485  11.794  20.420  0.00  0.00    +0.000 A 
ATOM     12  C   UNL     1       1.509  12.698  20.103  0.00  0.00    +0.000 A 
ATOM     13  C   UNL     1       1.219  13.825  19.349  0.00  0.00    +0.000 A 
ATOM     14  C   UNL     1      -0.091  14.040  18.942  0.00  0.00    +0.000 A 
ATOM     15  F   UNL     1      -0.351  15.048  18.095  0.00  0.00    +0.000 F 
ATOM     16  C   UNL     1      -1.130  13.208  19.357  0.00  0.00    +0.000 A 
ATOM     17  C   UNL     1      -0.851  12.077  20.132  0.00  0.00    +0.000 A 
ENDBRANCH   9  11
ENDBRANCH   1   2
BRANCH   1  18
ATOM     18  C   UNL     1       2.103   4.675  18.832  0.00  0.00    +0.000 A 
ATOM     19  C   UNL     1       1.283   3.698  18.242  0.00  0.00    +0.000 A 
ATOM     20  C   UNL     1       0.803   2.618  18.987  0.00  0.00    +0.000 A 
ATOM     21  C   UNL     1       1.131   2.497  20.334  0.00  0.00    +0.000 A 
ATOM     22  C   UNL     1       1.961   3.441  20.932  0.00  0.00    +0.000 A 
ATOM     23  C   UNL     1       2.455   4.513  20.185  0.00  0.00    +0.000 A 
ENDBRANCH   1  18
BRANCH   1  25
ATOM     24  C   UNL     1       4.467   6.905  16.561  0.00  0.00    +0.000 C 
ATOM     25  C   UNL     1       4.170   5.741  17.550  0.00  0.00    +0.000 C 
ATOM     26  C   UNL     1       4.489   4.420  16.810  0.00  0.00    +0.000 C 
BRANCH  25  27
ATOM     27  C   UNL     1       5.126   5.924  18.774  0.00  0.00    +0.000 C 
BRANCH  27  28
ATOM     28  N   UNL     1       6.107   4.821  18.873  0.00  0.00    +0.000 NA
ATOM     29  H   UNL     1       5.856   3.950  18.403  0.00  0.00    +0.000 HD
BRANCH  28  30
ATOM     30  S   UNL     1       7.719   5.169  18.532  0.00  0.00    +0.000 S 
ATOM     31  C   UNL     1       7.654   6.880  18.049  0.00  0.00    +0.000 C 
ATOM     32  O   UNL     1       8.413   5.072  19.796  0.00  0.00    +0.000 OA
ATOM     33  O   UNL     1       8.105   4.365  17.391  0.00  0.00    +0.000 OA
ENDBRANCH  28  30
ENDBRANCH  27  28
ENDBRANCH  25  27
ENDBRANCH   1  25
TORSDOF 7
ENDMDL
MODEL 3
REMARK VINA RESULT:      -9.2      1.305      2.043
REMARK  Name = 
REMARK  10 active torsions:
REMARK  status: ('A' for Active; 'I' for Inactive)
REMARK    1  A    between atoms: C_1  and  C_2
REMARK    2  A    between atoms: C_2  and  C_3
REMARK    3  A    between atoms: C_2  and  C_4
REMARK    4  A    between atoms: C_2  and  C_10
REMARK    5  A    between atoms: C_4  and  N_5
REMARK    6  A    between atoms: N_5  and  S_6
REMARK    7  A    between atoms: S_6  and  C_7
REMARK    8  A    between atoms: C_10  and  C_11
REMARK    9  A    between atoms: C_10  and  C_17
REMARK   10  A    between atoms: N_24  and  C_25
REMARK                            x       y       z     vdW  Elec       q    Type
REMARK                         _______ _______ _______ _____ _____    ______ ____
ROOT
ATOM      1  C   UNL     1       2.697   5.786  18.066  0.00  0.00    +0.000 C 
ENDROOT
BRANCH   1   2
ATOM      2  C   UNL     1       2.221   7.145  18.601  0.00  0.00    +0.000 A 
ATOM      3  C   UNL     1       1.937   8.241  17.781  0.00  0.00    +0.000 A 
ATOM      4  C   UNL     1       1.458   9.440  18.303  0.00  0.00    +0.000 A 
ATOM      5  C   UNL     1       1.315   9.542  19.696  0.00  0.00    +0.000 A 
ATOM      6  C   UNL     1       1.596   8.489  20.548  0.00  0.00    +0.000 A 
ATOM      7  C   UNL     1       1.243   8.964  21.828  0.00  0.00    +0.000 A 
ATOM      8  N   UNL     1       0.694  10.185  21.795  0.00  0.00    +0.000 NA
ATOM      9  N   UNL     1       0.867  10.570  20.511  0.00  0.00    +0.000 N 
ATOM     10  C   UNL     1       2.090   7.290  20.004  0.00  0.00    +0.000 A 
BRANCH   9  11
ATOM     11  C   UNL     1       0.511  11.853  20.039  0.00  0.00    +0.000 A 
ATOM     12  C   UNL     1      -0.850  12.117  19.825  0.00  0.00    +0.000 A 
ATOM     13  C   UNL     1      -1.293  13.429  19.763  0.00  0.00    +0.000 A 
ATOM     14  C   UNL     1      -0.366  14.456  19.894  0.00  0.00    +0.000 A 
ATOM     15  F   UNL     1      -0.806  15.721  19.978  0.00  0.00    +0.000 F 
ATOM     16  C   UNL     1       1.001  14.198  19.987  0.00  0.00    +0.000 A 
ATOM     17  C   UNL     1       1.460  12.877  20.034  0.00  0.00    +0.000 A 
ENDBRANCH   9  11
ENDBRANCH   1   2
BRANCH   1  18
ATOM     18  C   UNL     1       2.165   4.648  18.950  0.00  0.00    +0.000 A 
ATOM     19  C   UNL     1       2.516   4.530  20.305  0.00  0.00    +0.000 A 
ATOM     20  C   UNL     1       2.014   3.490  21.090  0.00  0.00    +0.000 A 
ATOM     21  C   UNL     1       1.156   2.546  20.534  0.00  0.00    +0.000 A 
ATOM     22  C   UNL     1       0.776   2.657  19.200  0.00  0.00    +0.000 A 
ATOM     23  C   UNL     1       1.265   3.707  18.417  0.00  0.00    +0.000 A 
ENDBRANCH   1  18
BRANCH   1  25
ATOM     24  C   UNL     1       4.511   6.764  16.550  0.00  0.00    +0.000 C 
ATOM     25  C   UNL     1       4.214   5.637  17.580  0.00  0.00    +0.000 C 
ATOM     26  C   UNL     1       4.527   4.289  16.888  0.00  0.00    +0.000 C 
BRANCH  25  27
ATOM     27  C   UNL     1       5.176   5.860  18.794  0.00  0.00    +0.000 C 
BRANCH  27  28
ATOM     28  N   UNL     1       6.164   4.766  18.919  0.00  0.00    +0.000 NA
ATOM     29  H   UNL     1       5.912   3.878  18.482  0.00  0.00    +0.000 HD
BRANCH  28  30
ATOM     30  S   UNL     1       7.770   5.111  18.546  0.00  0.00    +0.000 S 
ATOM     31  C   UNL     1       7.693   6.813  18.034  0.00  0.00    +0.000 C 
ATOM     32  O   UNL     1       8.484   5.038  19.800  0.00  0.00    +0.000 OA
ATOM     33  O   UNL     1       8.138   4.287  17.413  0.00  0.00    +0.000 OA
ENDBRANCH  28  30
ENDBRANCH  27  28
ENDBRANCH  25  27
ENDBRANCH   1  25
TORSDOF 7
ENDMDL
MODEL 4
REMARK VINA RESULT:      -9.1      1.054      1.692
REMARK  Name = 
REMARK  10 active torsions:
REMARK  status: ('A' for Active; 'I' for Inactive)
REMARK    1  A    between atoms: C_1  and  C_2
REMARK    2  A    between atoms: C_2  and  C_3
REMARK    3  A    between atoms: C_2  and  C_4
REMARK    4  A    between atoms: C_2  and  C_10
REMARK    5  A    between atoms: C_4  and  N_5
REMARK    6  A    between atoms: N_5  and  S_6
REMARK    7  A    between atoms: S_6  and  C_7
REMARK    8  A    between atoms: C_10  and  C_11
REMARK    9  A    between atoms: C_10  and  C_17
REMARK   10  A    between atoms: N_24  and  C_25
REMARK                            x       y       z     vdW  Elec       q    Type
REMARK                         _______ _______ _______ _____ _____    ______ ____
ROOT
ATOM      1  C   UNL     1       2.707   6.081  18.155  0.00  0.00    +0.000 C 
ENDROOT
BRANCH   1   2
ATOM      2  C   UNL     1       2.180   7.386  18.769  0.00  0.00    +0.000 A 
ATOM      3  C   UNL     1       1.851   8.517  18.016  0.00  0.00    +0.000 A 
ATOM      4  C   UNL     1       1.328   9.663  18.609  0.00  0.00    +0.000 A 
ATOM      5  C   UNL     1       1.185   9.676  20.006  0.00  0.00    +0.000 A 
ATOM      6  C   UNL     1       1.509   8.586  20.793  0.00  0.00    +0.000 A 
ATOM      7  C   UNL     1       1.140   8.970  22.100  0.00  0.00    +0.000 A 
ATOM      8  N   UNL     1       0.545  10.168  22.140  0.00  0.00    +0.000 NA
ATOM      9  N   UNL     1       0.700  10.636  20.881  0.00  0.00    +0.000 N 
ATOM     10  C   UNL     1       2.047   7.441  20.179  0.00  0.00    +0.000 A 
BRANCH   9  11
ATOM     11  C   UNL     1       0.293  11.931  20.487  0.00  0.00    +0.000 A 
ATOM     12  C   UNL     1       1.275  12.927  20.398  0.00  0.00    +0.000 A 
ATOM     13  C   UNL     1       1.030  14.067  19.649  0.00  0.00    +0.000 A 
ATOM     14  C   UNL     1      -0.201  14.203  19.019  0.00  0.00    +0.000 A 
ATOM     15  F   UNL     1      -0.391  15.233  18.179  0.00  0.00    +0.000 F 
ATOM     16  C   UNL     1      -1.222  13.272  19.203  0.00  0.00    +0.000 A 
ATOM     17  C   UNL     1      -0.990  12.125  19.971  0.00  0.00    +0.000 A 
ENDBRANCH   9  11
ENDBRANCH   1   2
BRANCH   1  18
ATOM     18  C   UNL     1       2.054   4.868  18.834  0.00  0.00    +0.000 A 
ATOM     19  C   UNL     1       1.981   4.747  20.232  0.00  0.00    +0.000 A 
ATOM     20  C   UNL     1       1.376   3.636  20.827  0.00  0.00    +0.000 A 
ATOM     21  C   UNL     1       0.837   2.627  20.035  0.00  0.00    +0.000 A 
ATOM     22  C   UNL     1       0.877   2.738  18.649  0.00  0.00    +0.000 A 
ATOM     23  C   UNL     1       1.468   3.855  18.053  0.00  0.00    +0.000 A 
ENDBRANCH   1  18
BRANCH   1  25
ATOM     24  C   UNL     1       4.967   5.362  19.115  0.00  0.00    +0.000 C 
ATOM     25  C   UNL     1       4.272   5.947  17.852  0.00  0.00    +0.000 C 
ATOM     26  C   UNL     1       4.970   7.289  17.525  0.00  0.00    +0.000 C 
BRANCH  25  27
ATOM     27  C   UNL     1       4.494   4.922  16.691  0.00  0.00    +0.000 C 
BRANCH  27  28
ATOM     28  N   UNL     1       5.339   5.486  15.616  0.00  0.00    +0.000 NA
ATOM     29  H   UNL     1       5.532   6.488  15.671  0.00  0.00    +0.000 HD
BRANCH  28  30
ATOM     30  S   UNL     1       6.771   4.685  15.239  0.00  0.00    +0.000 S 
ATOM     31  C   UNL     1       7.499   4.416  16.839  0.00  0.00    +0.000 C 
ATOM     32  O   UNL     1       6.370   3.408  14.693  0.00  0.00    +0.000 OA
ATOM     33  O   UNL     1       7.599   5.606  14.486  0.00  0.00    +0.000 OA
ENDBRANCH  28  30
ENDBRANCH  27  28
ENDBRANCH  25  27
ENDBRANCH   1  25
TORSDOF 7
ENDMDL
MODEL 5
REMARK VINA RESULT:      -9.0      0.702      1.031
REMARK  Name = 
REMARK  10 active torsions:
REMARK  status: ('A' for Active; 'I' for Inactive)
REMARK    1  A    between atoms: C_1  and  C_2
REMARK    2  A    between atoms: C_2  and  C_3
REMARK    3  A    between atoms: C_2  and  C_4
REMARK    4  A    between atoms: C_2  and  C_10
REMARK    5  A    between atoms: C_4  and  N_5
REMARK    6  A    between atoms: N_5  and  S_6
REMARK    7  A    between atoms: S_6  and  C_7
REMARK    8  A    between atoms: C_10  and  C_11
REMARK    9  A    between atoms: C_10  and  C_17
REMARK   10  A    between atoms: N_24  and  C_25
REMARK                            x       y       z     vdW  Elec       q    Type
REMARK                         _______ _______ _______ _____ _____    ______ ____
ROOT
ATOM      1  C   UNL     1       2.844   5.358  18.451  0.00  0.00    +0.000 C 
ENDROOT
BRANCH   1   2
ATOM      2  C   UNL     1       2.383   6.795  18.737  0.00  0.00    +0.000 A 
ATOM      3  C   UNL     1       2.317   7.793  17.761  0.00  0.00    +0.000 A 
ATOM      4  C   UNL     1       1.844   9.070  18.053  0.00  0.00    +0.000 A 
ATOM      5  C   UNL     1       1.481   9.351  19.380  0.00  0.00    +0.000 A 
ATOM      6  C   UNL     1       1.542   8.400  20.382  0.00  0.00    +0.000 A 
ATOM      7  C   UNL     1       1.017   9.047  21.520  0.00  0.00    +0.000 A 
ATOM      8  N   UNL     1       0.569  10.280  21.254  0.00  0.00    +0.000 NA
ATOM      9  N   UNL     1       0.978  10.494  19.983  0.00  0.00    +0.000 N 
ATOM     10  C   UNL     1       2.033   7.119  20.071  0.00  0.00    +0.000 A 
BRANCH   9  11
ATOM     11  C   UNL     1       0.796  11.725  19.314  0.00  0.00    +0.000 A 
ATOM     12  C   UNL     1      -0.442  11.957  18.698  0.00  0.00    +0.000 A 
ATOM     13  C   UNL     1      -0.823  13.255  18.392  0.00  0.00    +0.000 A 
ATOM     14  C   UNL     1       0.048  14.296  18.687  0.00  0.00    +0.000 A 
ATOM     15  F   UNL     1      -0.373  15.561  18.526  0.00  0.00    +0.000 F 
ATOM     16  C   UNL     1       1.327  14.058  19.189  0.00  0.00    +0.000 A 
ATOM     17  C   UNL     1       1.728  12.750  19.486  0.00  0.00    +0.000 A 
ENDBRANCH   9  11
ENDBRANCH   1   2
BRANCH   1  18
ATOM     18  C   UNL     1       2.216   4.384  19.459  0.00  0.00    +0.000 A 
ATOM     19  C   UNL     1       1.166   3.520  19.105  0.00  0.00    +0.000 A 
ATOM     20  C   UNL     1       0.615   2.638  20.038  0.00  0.00    +0.000 A 
ATOM     21  C   UNL     1       1.100   2.607  21.342  0.00  0.00    +0.000 A 
ATOM     22  C   UNL     1       2.155   3.438  21.707  0.00  0.00    +0.000 A 
ATOM     23  C   UNL     1       2.718   4.309  20.771  0.00  0.00    +0.000 A 
ENDBRANCH   1  18
BRANCH   1  25
ATOM     24  C   UNL     1       4.566   3.580  17.799  0.00  0.00    +0.000 C 
ATOM     25  C   UNL     1       4.384   5.096  18.101  0.00  0.00    +0.000 C 
ATOM     26  C   UNL     1       5.363   5.457  19.243  0.00  0.00    +0.000 C 
BRANCH  25  27
ATOM     27  C   UNL     1       4.761   5.872  16.795  0.00  0.00    +0.000 C 
BRANCH  27  28
ATOM     28  N   UNL     1       5.643   5.071  15.918  0.00  0.00    +0.000 NA
ATOM     29  H   UNL     1       5.360   4.997  14.939  0.00  0.00    +0.000 HD
BRANCH  28  30
ATOM     30  S   UNL     1       7.298   5.377  15.977  0.00  0.00    +0.000 S 
ATOM     31  C   UNL     1       7.377   6.924  16.852  0.00  0.00    +0.000 C 
ATOM     32  O   UNL     1       7.854   4.341  16.817  0.00  0.00    +0.000 OA
ATOM     33  O   UNL     1       7.751   5.575  14.615  0.00  0.00    +0.000 OA
ENDBRANCH  28  30
ENDBRANCH  27  28
ENDBRANCH  25  27
ENDBRANCH   1  25
TORSDOF 7
ENDMDL
MODEL 6
REMARK VINA RESULT:      -8.9      1.186      1.614
REMARK  Name = 
REMARK  10 active torsions:
REMARK  status: ('A' for Active; 'I' for Inactive)
REMARK    1  A    between atoms: C_1  and  C_2
REMARK    2  A    between atoms: C_2  and  C_3
REMARK    3  A    between atoms: C_2  and  C_4
REMARK    4  A    between atoms: C_2  and  C_10
REMARK    5  A    between atoms: C_4  and  N_5
REMARK    6  A    between atoms: N_5  and  S_6
REMARK    7  A    between atoms: S_6  and  C_7
REMARK    8  A    between atoms: C_10  and  C_11
REMARK    9  A    between atoms: C_10  and  C_17
REMARK   10  A    between atoms: N_24  and  C_25
REMARK                            x       y       z     vdW  Elec       q    Type
REMARK                         _______ _______ _______ _____ _____    ______ ____
ROOT
ATOM      1  C   UNL     1       2.804   5.349  18.299  0.00  0.00    +0.000 C 
ENDROOT
BRANCH   1   2
ATOM      2  C   UNL     1       2.353   6.785  18.607  0.00  0.00    +0.000 A 
ATOM      3  C   UNL     1       2.258   7.789  17.638  0.00  0.00    +0.000 A 
ATOM      4  C   UNL     1       1.796   9.064  17.951  0.00  0.00    +0.000 A 
ATOM      5  C   UNL     1       1.474   9.339  19.290  0.00  0.00    +0.000 A 
ATOM      6  C   UNL     1       1.565   8.382  20.285  0.00  0.00    +0.000 A 
ATOM      7  C   UNL     1       1.075   9.024  21.441  0.00  0.00    +0.000 A 
ATOM      8  N   UNL     1       0.620  10.259  21.196  0.00  0.00    +0.000 NA
ATOM      9  N   UNL     1       0.991  10.479  19.914  0.00  0.00    +0.000 N 
ATOM     10  C   UNL     1       2.044   7.102  19.953  0.00  0.00    +0.000 A 
BRANCH   9  11
ATOM     11  C   UNL     1       0.790  11.714  19.258  0.00  0.00    +0.000 A 
ATOM     12  C   UNL     1      -0.470  11.955  18.691  0.00  0.00    +0.000 A 
ATOM     13  C   UNL     1      -0.855  13.256  18.405  0.00  0.00    +0.000 A 
ATOM     14  C   UNL     1       0.032  14.292  18.670  0.00  0.00    +0.000 A 
ATOM     15  F   UNL     1      -0.388  15.559  18.530  0.00  0.00    +0.000 F 
ATOM     16  C   UNL     1       1.328  14.045  19.121  0.00  0.00    +0.000 A 
ATOM     17  C   UNL     1       1.733  12.734  19.397  0.00  0.00    +0.000 A 
ENDBRANCH   9  11
ENDBRANCH   1   2
BRANCH   1  18
ATOM     18  C   UNL     1       2.230   4.375  19.339  0.00  0.00    +0.000 A 
ATOM     19  C   UNL     1       1.251   3.423  19.007  0.00  0.00    +0.000 A 
ATOM     20  C   UNL     1       0.750   2.543  19.969  0.00  0.00    +0.000 A 
ATOM     21  C   UNL     1       1.214   2.601  21.279  0.00  0.00    +0.000 A 
ATOM     22  C   UNL     1       2.201   3.520  21.624  0.00  0.00    +0.000 A 
ATOM     23  C   UNL     1       2.715   4.391  20.659  0.00  0.00    +0.000 A 
ENDBRANCH   1  18
BRANCH   1  25
ATOM     24  C   UNL     1       4.447   5.327  16.338  0.00  0.00    +0.000 C 
ATOM     25  C   UNL     1       4.324   5.092  17.871  0.00  0.00    +0.000 C 
ATOM     26  C   UNL     1       4.827   3.657  18.156  0.00  0.00    +0.000 C 
BRANCH  25  27
ATOM     27  C   UNL     1       5.248   6.142  18.572  0.00  0.00    +0.000 C 
BRANCH  27  28
ATOM     28  N   UNL     1       5.790   7.125  17.607  0.00  0.00    +0.000 NA
ATOM     29  H   UNL     1       5.402   8.068  17.657  0.00  0.00    +0.000 HD
BRANCH  28  30
ATOM     30  S   UNL     1       7.463   7.240  17.457  0.00  0.00    +0.000 S 
ATOM     31  C   UNL     1       8.044   6.275  18.835  0.00  0.00    +0.000 C 
ATOM     32  O   UNL     1       7.793   6.544  16.234  0.00  0.00    +0.000 OA
ATOM     33  O   UNL     1       7.822   8.628  17.662  0.00  0.00    +0.000 OA
ENDBRANCH  28  30
ENDBRANCH  27  28
ENDBRANCH  25  27
ENDBRANCH   1  25
TORSDOF 7
ENDMDL
MODEL 7
REMARK VINA RESULT:      -8.8      1.491      1.792
REMARK  Name = 
REMARK  10 active torsions:
REMARK  status: ('A' for Active; 'I' for Inactive)
REMARK    1  A    between atoms: C_1  and  C_2
REMARK    2  A    between atoms: C_2  and  C_3
REMARK    3  A    between atoms: C_2  and  C_4
REMARK    4  A    between atoms: C_2  and  C_10
REMARK    5  A    between atoms: C_4  and  N_5
REMARK    6  A    between atoms: N_5  and  S_6
REMARK    7  A    between atoms: S_6  and  C_7
REMARK    8  A    between atoms: C_10  and  C_11
REMARK    9  A    between atoms: C_10  and  C_17
REMARK   10  A    between atoms: N_24  and  C_25
REMARK                            x       y       z     vdW  Elec       q    Type
REMARK                         _______ _______ _______ _____ _____    ______ ____
ROOT
ATOM      1  C   UNL     1       2.721   5.387  18.149  0.00  0.00    +0.000 C 
ENDROOT
BRANCH   1   2
ATOM      2  C   UNL     1       2.301   6.825  18.490  0.00  0.00    +0.000 A 
ATOM      3  C   UNL     1       2.188   7.843  17.539  0.00  0.00    +0.000 A 
ATOM      4  C   UNL     1       1.754   9.120  17.885  0.00  0.00    +0.000 A 
ATOM      5  C   UNL     1       1.481   9.381  19.237  0.00  0.00    +0.000 A 
ATOM      6  C   UNL     1       1.593   8.409  20.215  0.00  0.00    +0.000 A 
ATOM      7  C   UNL     1       1.151   9.042  21.396  0.00  0.00    +0.000 A 
ATOM      8  N   UNL     1       0.706  10.286  21.183  0.00  0.00    +0.000 NA
ATOM      9  N   UNL     1       1.036  10.519  19.892  0.00  0.00    +0.000 N 
ATOM     10  C   UNL     1       2.042   7.127  19.850  0.00  0.00    +0.000 A 
BRANCH   9  11
ATOM     11  C   UNL     1       0.830  11.765  19.259  0.00  0.00    +0.000 A 
ATOM     12  C   UNL     1      -0.487  12.231  19.146  0.00  0.00    +0.000 A 
ATOM     13  C   UNL     1      -0.721  13.579  18.919  0.00  0.00    +0.000 A 
ATOM     14  C   UNL     1       0.366  14.434  18.788  0.00  0.00    +0.000 A 
ATOM     15  F   UNL     1       0.147  15.756  18.711  0.00  0.00    +0.000 F 
ATOM     16  C   UNL     1       1.675  13.955  18.780  0.00  0.00    +0.000 A 
ATOM     17  C   UNL     1       1.921  12.593  18.992  0.00  0.00    +0.000 A 
ENDBRANCH   9  11
ENDBRANCH   1   2
BRANCH   1  18
ATOM     18  C   UNL     1       2.200   4.411  19.214  0.00  0.00    +0.000 A 
ATOM     19  C   UNL     1       1.325   3.358  18.895  0.00  0.00    +0.000 A 
ATOM     20  C   UNL     1       0.870   2.479  19.881  0.00  0.00    +0.000 A 
ATOM     21  C   UNL     1       1.278   2.638  21.202  0.00  0.00    +0.000 A 
ATOM     22  C   UNL     1       2.163   3.660  21.535  0.00  0.00    +0.000 A 
ATOM     23  C   UNL     1       2.631   4.530  20.547  0.00  0.00    +0.000 A 
ENDBRANCH   1  18
BRANCH   1  25
ATOM     24  C   UNL     1       4.752   6.434  16.998  0.00  0.00    +0.000 C 
ATOM     25  C   UNL     1       4.212   5.120  17.632  0.00  0.00    +0.000 C 
ATOM     26  C   UNL     1       4.319   4.015  16.555  0.00  0.00    +0.000 C 
BRANCH  25  27
ATOM     27  C   UNL     1       5.134   4.785  18.850  0.00  0.00    +0.000 C 
BRANCH  27  28
ATOM     28  N   UNL     1       5.976   5.940  19.233  0.00  0.00    +0.000 NA
ATOM     29  H   UNL     1       5.741   6.397  20.115  0.00  0.00    +0.000 HD
BRANCH  28  30
ATOM     30  S   UNL     1       7.648   5.755  19.153  0.00  0.00    +0.000 S 
ATOM     31  C   UNL     1       7.844   4.544  17.864  0.00  0.00    +0.000 C 
ATOM     32  O   UNL     1       8.157   7.021  18.678  0.00  0.00    +0.000 OA
ATOM     33  O   UNL     1       8.082   5.186  20.412  0.00  0.00    +0.000 OA
ENDBRANCH  28  30
ENDBRANCH  27  28
ENDBRANCH  25  27
ENDBRANCH   1  25
TORSDOF 7
ENDMDL
MODEL 8
REMARK VINA RESULT:      -8.8      0.808      1.239
REMARK  Name = 
REMARK  10 active torsions:
REMARK  status: ('A' for Active; 'I' for Inactive)
REMARK    1  A    between atoms: C_1  and  C_2
REMARK    2  A    between atoms: C_2  and  C_3
REMARK    3  A    between atoms: C_2  and  C_4
REMARK    4  A    between atoms: C_2  and  C_10
REMARK    5  A    between atoms: C_4  and  N_5
REMARK    6  A    between atoms: N_5  and  S_6
REMARK    7  A    between atoms: S_6  and  C_7
REMARK    8  A    between atoms: C_10  and  C_11
REMARK    9  A    between atoms: C_10  and  C_17
REMARK   10  A    between atoms: N_24  and  C_25
REMARK                            x       y       z     vdW  Elec       q    Type
REMARK                         _______ _______ _______ _____ _____    ______ ____
ROOT
ATOM      1  C   UNL     1       3.130   5.427  18.074  0.00  0.00    +0.000 C 
ENDROOT
BRANCH   1   2
ATOM      2  C   UNL     1       2.589   6.823  18.418  0.00  0.00    +0.000 A 
ATOM      3  C   UNL     1       2.428   7.842  17.475  0.00  0.00    +0.000 A 
ATOM      4  C   UNL     1       1.885   9.077  17.821  0.00  0.00    +0.000 A 
ATOM      5  C   UNL     1       1.549   9.297  19.167  0.00  0.00    +0.000 A 
ATOM      6  C   UNL     1       1.703   8.323  20.136  0.00  0.00    +0.000 A 
ATOM      7  C   UNL     1       1.176   8.903  21.309  0.00  0.00    +0.000 A 
ATOM      8  N   UNL     1       0.643  10.112  21.095  0.00  0.00    +0.000 NA
ATOM      9  N   UNL     1       0.996  10.388  19.819  0.00  0.00    +0.000 N 
ATOM     10  C   UNL     1       2.263   7.086  19.772  0.00  0.00    +0.000 A 
BRANCH   9  11
ATOM     11  C   UNL     1       0.714  11.623  19.194  0.00  0.00    +0.000 A 
ATOM     12  C   UNL     1      -0.626  11.926  18.918  0.00  0.00    +0.000 A 
ATOM     13  C   UNL     1      -1.000  13.242  18.694  0.00  0.00    +0.000 A 
ATOM     14  C   UNL     1      -0.025  14.231  18.728  0.00  0.00    +0.000 A 
ATOM     15  F   UNL     1      -0.400  15.517  18.654  0.00  0.00    +0.000 F 
ATOM     16  C   UNL     1       1.326  13.919  18.883  0.00  0.00    +0.000 A 
ATOM     17  C   UNL     1       1.715  12.591  19.093  0.00  0.00    +0.000 A 
ENDBRANCH   9  11
ENDBRANCH   1   2
BRANCH   1  18
ATOM     18  C   UNL     1       2.298   4.343  18.777  0.00  0.00    +0.000 A 
ATOM     19  C   UNL     1       2.040   4.381  20.158  0.00  0.00    +0.000 A 
ATOM     20  C   UNL     1       1.276   3.387  20.773  0.00  0.00    +0.000 A 
ATOM     21  C   UNL     1       0.759   2.336  20.021  0.00  0.00    +0.000 A 
ATOM     22  C   UNL     1       0.983   2.292  18.648  0.00  0.00    +0.000 A 
ATOM     23  C   UNL     1       1.735   3.294  18.029  0.00  0.00    +0.000 A 
ENDBRANCH   1  18
BRANCH   1  25
ATOM     24  C   UNL     1       5.106   4.469  19.388  0.00  0.00    +0.000 C 
ATOM     25  C   UNL     1       4.713   5.192  18.068  0.00  0.00    +0.000 C 
ATOM     26  C   UNL     1       5.545   6.494  17.994  0.00  0.00    +0.000 C 
BRANCH  25  27
ATOM     27  C   UNL     1       5.093   4.236  16.890  0.00  0.00    +0.000 C 
BRANCH  27  28
ATOM     28  N   UNL     1       6.439   4.536  16.354  0.00  0.00    +0.000 NA
ATOM     29  H   UNL     1       7.145   3.807  16.470  0.00  0.00    +0.000 HD
BRANCH  28  30
ATOM     30  S   UNL     1       6.545   5.139  14.785  0.00  0.00    +0.000 S 
ATOM     31  C   UNL     1       6.118   3.724  13.795  0.00  0.00    +0.000 C 
ATOM     32  O   UNL     1       5.488   6.117  14.673  0.00  0.00    +0.000 OA
ATOM     33  O   UNL     1       7.931   5.487  14.547  0.00  0.00    +0.000 OA
ENDBRANCH  28  30
ENDBRANCH  27  28
ENDBRANCH  25  27
ENDBRANCH   1  25
TORSDOF 7
ENDMDL
MODEL 9
REMARK VINA RESULT:      -8.8      1.772      2.436
REMARK  Name = 
REMARK  10 active torsions:
REMARK  status: ('A' for Active; 'I' for Inactive)
REMARK    1  A    between atoms: C_1  and  C_2
REMARK    2  A    between atoms: C_2  and  C_3
REMARK    3  A    between atoms: C_2  and  C_4
REMARK    4  A    between atoms: C_2  and  C_10
REMARK    5  A    between atoms: C_4  and  N_5
REMARK    6  A    between atoms: N_5  and  S_6
REMARK    7  A    between atoms: S_6  and  C_7
REMARK    8  A    between atoms: C_10  and  C_11
REMARK    9  A    between atoms: C_10  and  C_17
REMARK   10  A    between atoms: N_24  and  C_25
REMARK                            x       y       z     vdW  Elec       q    Type
REMARK                         _______ _______ _______ _____ _____    ______ ____
ROOT
ATOM      1  C   UNL     1       4.610   5.522  17.715  0.00  0.00    +0.000 C 
ENDROOT
BRANCH   1   2
ATOM      2  C   UNL     1       3.630   6.570  18.264  0.00  0.00    +0.000 A 
ATOM      3  C   UNL     1       3.265   7.725  17.566  0.00  0.00    +0.000 A 
ATOM      4  C   UNL     1       2.333   8.624  18.079  0.00  0.00    +0.000 A 
ATOM      5  C   UNL     1       1.801   8.368  19.353  0.00  0.00    +0.000 A 
ATOM      6  C   UNL     1       2.142   7.246  20.085  0.00  0.00    +0.000 A 
ATOM      7  C   UNL     1       1.337   7.317  21.241  0.00  0.00    +0.000 A 
ATOM      8  N   UNL     1       0.482   8.348  21.215  0.00  0.00    +0.000 NA
ATOM      9  N   UNL     1       0.869   9.047  20.124  0.00  0.00    +0.000 N 
ATOM     10  C   UNL     1       3.093   6.355  19.557  0.00  0.00    +0.000 A 
BRANCH   9  11
ATOM     11  C   UNL     1       0.289  10.282  19.757  0.00  0.00    +0.000 A 
ATOM     12  C   UNL     1       1.024  11.449  20.009  0.00  0.00    +0.000 A 
ATOM     13  C   UNL     1       0.712  12.616  19.327  0.00  0.00    +0.000 A 
ATOM     14  C   UNL     1      -0.342  12.601  18.421  0.00  0.00    +0.000 A 
ATOM     15  F   UNL     1      -0.556  13.683  17.657  0.00  0.00    +0.000 F 
ATOM     16  C   UNL     1      -1.149  11.476  18.258  0.00  0.00    +0.000 A 
ATOM     17  C   UNL     1      -0.852  10.298  18.955  0.00  0.00    +0.000 A 
ENDBRANCH   9  11
ENDBRANCH   1   2
BRANCH   1  18
ATOM     18  C   UNL     1       4.106   4.105  18.026  0.00  0.00    +0.000 A 
ATOM     19  C   UNL     1       4.519   3.401  19.170  0.00  0.00    +0.000 A 
ATOM     20  C   UNL     1       4.041   2.115  19.434  0.00  0.00    +0.000 A 
ATOM     21  C   UNL     1       3.146   1.509  18.558  0.00  0.00    +0.000 A 
ATOM     22  C   UNL     1       2.706   2.197  17.432  0.00  0.00    +0.000 A 
ATOM     23  C   UNL     1       3.171   3.489  17.174  0.00  0.00    +0.000 A 
ENDBRANCH   1  18
BRANCH   1  25
ATOM     24  C   UNL     1       6.514   5.615  19.422  0.00  0.00    +0.000 C 
ATOM     25  C   UNL     1       6.181   5.759  17.909  0.00  0.00    +0.000 C 
ATOM     26  C   UNL     1       6.669   7.157  17.463  0.00  0.00    +0.000 C 
BRANCH  25  27
ATOM     27  C   UNL     1       6.973   4.639  17.156  0.00  0.00    +0.000 C 
BRANCH  27  28
ATOM     28  N   UNL     1       7.470   5.108  15.844  0.00  0.00    +0.000 NA
ATOM     29  H   UNL     1       8.431   4.854  15.607  0.00  0.00    +0.000 HD
BRANCH  28  30
ATOM     30  S   UNL     1       6.497   4.844  14.495  0.00  0.00    +0.000 S 
ATOM     31  C   UNL     1       7.645   5.024  13.147  0.00  0.00    +0.000 C 
ATOM     32  O   UNL     1       6.091   3.460  14.574  0.00  0.00    +0.000 OA
ATOM     33  O   UNL     1       5.527   5.919  14.443  0.00  0.00    +0.000 OA
ENDBRANCH  28  30
ENDBRANCH  27  28
ENDBRANCH  25  27
ENDBRANCH   1  25
TORSDOF 7
ENDMDL
