MODEL 1
REMARK VINA RESULT:      -7.6      0.000      0.000
REMARK  Name = 
REMARK  11 active torsions:
REMARK  status: ('A' for Active; 'I' for Inactive)
REMARK    1  A    between atoms: C_1  and  C_2
REMARK    2  A    between atoms: C_2  and  C_3
REMARK    3  A    between atoms: C_3  and  N_4
REMARK    4  A    between atoms: N_4  and  C_5
REMARK    5  A    between atoms: C_13  and  C_14
REMARK    6  A    between atoms: C_16  and  O_17
REMARK    7  A    between atoms: O_17  and  C_18
REMARK    8  A    between atoms: C_19  and  O_20
REMARK    9  A    between atoms: O_20  and  C_21
REMARK   10  A    between atoms: C_22  and  O_23
REMARK   11  A    between atoms: O_23  and  C_24
REMARK                            x       y       z     vdW  Elec       q    Type
REMARK                         _______ _______ _______ _____ _____    ______ ____
ROOT
ATOM      1  C   UNL     1       6.134   5.219  15.704  0.00  0.00    +0.000 C 
ATOM      2  C   UNL     1       7.097   4.172  16.357  0.00  0.00    +0.000 C 
ATOM      3  O   UNL     1       8.151   4.802  17.118  0.00  0.00    +0.000 OA
ATOM      4  C   UNL     1       7.586   5.588  18.174  0.00  0.00    +0.000 C 
ATOM      5  C   UNL     1       6.688   6.698  17.614  0.00  0.00    +0.000 C 
ATOM      6  N   UNL     1       5.634   6.149  16.739  0.00  0.00    +0.000 N 
ATOM      7  C   UNL     1       4.382   5.967  17.326  0.00  0.00    +0.000 A 
ATOM      8  C   UNL     1       3.770   7.084  17.861  0.00  0.00    +0.000 A 
ATOM      9  C   UNL     1       2.499   6.954  18.375  0.00  0.00    +0.000 A 
ATOM     10  N   UNL     1       1.831   5.791  18.309  0.00  0.00    +0.000 NA
ATOM     11  C   UNL     1       2.484   4.759  17.776  0.00  0.00    +0.000 A 
ATOM     12  N   UNL     1       1.777   3.577  17.647  0.00  0.00    +0.000 N 
ATOM     13  N   UNL     1       3.734   4.800  17.298  0.00  0.00    +0.000 NA
ATOM     14  H   UNL     1       0.785   3.786  17.611  0.00  0.00    +0.000 HD
ATOM     15  H   UNL     1       2.166   3.053  16.874  0.00  0.00    +0.000 HD
ENDROOT
BRANCH   9  16
ATOM     16  C   UNL     1       1.813   8.085  19.023  0.00  0.00    +0.000 A 
ATOM     17  C   UNL     1       1.146   9.056  18.269  0.00  0.00    +0.000 A 
ATOM     18  C   UNL     1       0.477  10.120  18.885  0.00  0.00    +0.000 A 
ATOM     19  C   UNL     1       0.501  10.254  20.292  0.00  0.00    +0.000 A 
ATOM     20  C   UNL     1       1.187   9.300  21.068  0.00  0.00    +0.000 A 
ATOM     21  C   UNL     1       1.805   8.223  20.423  0.00  0.00    +0.000 A 
BRANCH  18  22
ATOM     22  O   UNL     1      -0.210  11.078  18.174  0.00  0.00    +0.000 OA
ATOM     23  C   UNL     1      -1.536  10.733  17.786  0.00  0.00    +0.000 C 
ENDBRANCH  18  22
BRANCH  19  24
ATOM     24  O   UNL     1      -0.125  11.375  20.785  0.00  0.00    +0.000 OA
ATOM     25  C   UNL     1       0.668  12.549  20.914  0.00  0.00    +0.000 C 
ENDBRANCH  19  24
BRANCH  20  26
ATOM     26  O   UNL     1       1.245   9.478  22.425  0.00  0.00    +0.000 OA
ATOM     27  C   UNL     1       0.033   9.424  23.171  0.00  0.00    +0.000 C 
ENDBRANCH  20  26
ENDBRANCH   9  16
BRANCH   1  28
ATOM     28  N   UNL     1       5.258   4.548  14.730  0.00  0.00    +0.000 NA
ATOM     29  H   UNL     1       4.657   3.891  15.221  0.00  0.00    +0.000 HD
BRANCH  28  30
ATOM     30  C   UNL     1       6.028   3.845  13.709  0.00  0.00    +0.000 C 
BRANCH  30  32
ATOM     31  C   UNL     1       5.755   2.408  11.679  0.00  0.00    +0.000 C 
ATOM     32  C   UNL     1       5.149   3.538  12.498  0.00  0.00    +0.000 C 
ENDBRANCH  30  32
ENDBRANCH  28  30
ENDBRANCH   1  28
TORSDOF 7
ENDMDL
MODEL 2
REMARK VINA RESULT:      -7.5      3.048      9.006
REMARK  Name = 
REMARK  11 active torsions:
REMARK  status: ('A' for Active; 'I' for Inactive)
REMARK    1  A    between atoms: C_1  and  C_2
REMARK    2  A    between atoms: C_2  and  C_3
REMARK    3  A    between atoms: C_3  and  N_4
REMARK    4  A    between atoms: N_4  and  C_5
REMARK    5  A    between atoms: C_13  and  C_14
REMARK    6  A    between atoms: C_16  and  O_17
REMARK    7  A    between atoms: O_17  and  C_18
REMARK    8  A    between atoms: C_19  and  O_20
REMARK    9  A    between atoms: O_20  and  C_21
REMARK   10  A    between atoms: C_22  and  O_23
REMARK   11  A    between atoms: O_23  and  C_24
REMARK                            x       y       z     vdW  Elec       q    Type
REMARK                         _______ _______ _______ _____ _____    ______ ____
ROOT
ATOM      1  C   UNL     1      -1.015  11.852  18.733  0.00  0.00    +0.000 C 
ATOM      2  C   UNL     1      -2.510  11.654  19.151  0.00  0.00    +0.000 C 
ATOM      3  O   UNL     1      -3.322  11.170  18.059  0.00  0.00    +0.000 OA
ATOM      4  C   UNL     1      -2.827   9.903  17.609  0.00  0.00    +0.000 C 
ATOM      5  C   UNL     1      -1.386  10.024  17.101  0.00  0.00    +0.000 C 
ATOM      6  N   UNL     1      -0.499  10.606  18.128  0.00  0.00    +0.000 N 
ATOM      7  C   UNL     1       0.253   9.699  18.875  0.00  0.00    +0.000 A 
ATOM      8  C   UNL     1       1.110   8.869  18.179  0.00  0.00    +0.000 A 
ATOM      9  C   UNL     1       1.925   8.019  18.894  0.00  0.00    +0.000 A 
ATOM     10  N   UNL     1       1.944   8.030  20.237  0.00  0.00    +0.000 NA
ATOM     11  C   UNL     1       1.092   8.859  20.838  0.00  0.00    +0.000 A 
ATOM     12  N   UNL     1       1.154   8.920  22.219  0.00  0.00    +0.000 N 
ATOM     13  N   UNL     1       0.241   9.680  20.210  0.00  0.00    +0.000 NA
ATOM     14  H   UNL     1       2.078   8.631  22.522  0.00  0.00    +0.000 HD
ATOM     15  H   UNL     1       0.837   9.834  22.515  0.00  0.00    +0.000 HD
ENDROOT
BRANCH   9  16
ATOM     16  C   UNL     1       2.814   7.059  18.218  0.00  0.00    +0.000 A 
ATOM     17  C   UNL     1       2.487   5.701  18.140  0.00  0.00    +0.000 A 
ATOM     18  C   UNL     1       3.322   4.792  17.480  0.00  0.00    +0.000 A 
ATOM     19  C   UNL     1       4.541   5.229  16.914  0.00  0.00    +0.000 A 
ATOM     20  C   UNL     1       4.900   6.587  17.003  0.00  0.00    +0.000 A 
ATOM     21  C   UNL     1       4.020   7.478  17.628  0.00  0.00    +0.000 A 
BRANCH  18  22
ATOM     22  O   UNL     1       3.018   3.454  17.363  0.00  0.00    +0.000 OA
ATOM     23  C   UNL     1       3.006   2.710  18.577  0.00  0.00    +0.000 C 
ENDBRANCH  18  22
BRANCH  19  24
ATOM     24  O   UNL     1       5.317   4.239  16.356  0.00  0.00    +0.000 OA
ATOM     25  C   UNL     1       5.456   4.254  14.941  0.00  0.00    +0.000 C 
ENDBRANCH  19  24
BRANCH  20  26
ATOM     26  O   UNL     1       6.111   6.980  16.496  0.00  0.00    +0.000 OA
ATOM     27  C   UNL     1       7.227   7.052  17.377  0.00  0.00    +0.000 C 
ENDBRANCH  20  26
ENDBRANCH   9  16
BRANCH   1  28
ATOM     28  N   UNL     1      -0.300  12.596  19.782  0.00  0.00    +0.000 NA
ATOM     29  H   UNL     1       0.480  12.034  20.115  0.00  0.00    +0.000 HD
BRANCH  28  30
ATOM     30  C   UNL     1      -1.180  12.932  20.898  0.00  0.00    +0.000 C 
BRANCH  30  32
ATOM     31  C   UNL     1      -1.647  11.659  23.001  0.00  0.00    +0.000 C 
ATOM     32  C   UNL     1      -0.592  12.420  22.211  0.00  0.00    +0.000 C 
ENDBRANCH  30  32
ENDBRANCH  28  30
ENDBRANCH   1  28
TORSDOF 7
ENDMDL
MODEL 3
REMARK VINA RESULT:      -7.4      3.140      8.665
REMARK  Name = 
REMARK  11 active torsions:
REMARK  status: ('A' for Active; 'I' for Inactive)
REMARK    1  A    between atoms: C_1  and  C_2
REMARK    2  A    between atoms: C_2  and  C_3
REMARK    3  A    between atoms: C_3  and  N_4
REMARK    4  A    between atoms: N_4  and  C_5
REMARK    5  A    between atoms: C_13  and  C_14
REMARK    6  A    between atoms: C_16  and  O_17
REMARK    7  A    between atoms: O_17  and  C_18
REMARK    8  A    between atoms: C_19  and  O_20
REMARK    9  A    between atoms: O_20  and  C_21
REMARK   10  A    between atoms: C_22  and  O_23
REMARK   11  A    between atoms: O_23  and  C_24
REMARK                            x       y       z     vdW  Elec       q    Type
REMARK                         _______ _______ _______ _____ _____    ______ ____
ROOT
ATOM      1  C   UNL     1      -1.141  11.932  18.505  0.00  0.00    +0.000 C 
ATOM      2  C   UNL     1      -2.618  11.749  18.987  0.00  0.00    +0.000 C 
ATOM      3  O   UNL     1      -3.457  11.169  17.965  0.00  0.00    +0.000 OA
ATOM      4  C   UNL     1      -2.957   9.876  17.602  0.00  0.00    +0.000 C 
ATOM      5  C   UNL     1      -1.536   9.975  17.037  0.00  0.00    +0.000 C 
ATOM      6  N   UNL     1      -0.625  10.648  17.983  0.00  0.00    +0.000 N 
ATOM      7  C   UNL     1       0.165   9.814  18.774  0.00  0.00    +0.000 A 
ATOM      8  C   UNL     1       1.012   8.942  18.118  0.00  0.00    +0.000 A 
ATOM      9  C   UNL     1       1.864   8.163  18.871  0.00  0.00    +0.000 A 
ATOM     10  N   UNL     1       1.926   8.281  20.207  0.00  0.00    +0.000 NA
ATOM     11  C   UNL     1       1.081   9.145  20.768  0.00  0.00    +0.000 A 
ATOM     12  N   UNL     1       1.188   9.316  22.137  0.00  0.00    +0.000 N 
ATOM     13  N   UNL     1       0.197   9.902  20.107  0.00  0.00    +0.000 NA
ATOM     14  H   UNL     1       2.125   9.065  22.431  0.00  0.00    +0.000 HD
ATOM     15  H   UNL     1       0.866  10.247  22.370  0.00  0.00    +0.000 HD
ENDROOT
BRANCH   9  16
ATOM     16  C   UNL     1       2.744   7.163  18.244  0.00  0.00    +0.000 A 
ATOM     17  C   UNL     1       2.399   5.808  18.217  0.00  0.00    +0.000 A 
ATOM     18  C   UNL     1       3.226   4.861  17.604  0.00  0.00    +0.000 A 
ATOM     19  C   UNL     1       4.457   5.257  17.033  0.00  0.00    +0.000 A 
ATOM     20  C   UNL     1       4.835   6.612  17.070  0.00  0.00    +0.000 A 
ATOM     21  C   UNL     1       3.962   7.541  17.649  0.00  0.00    +0.000 A 
BRANCH  18  22
ATOM     22  O   UNL     1       2.904   3.524  17.538  0.00  0.00    +0.000 OA
ATOM     23  C   UNL     1       1.684   3.146  18.169  0.00  0.00    +0.000 C 
ENDBRANCH  18  22
BRANCH  19  24
ATOM     24  O   UNL     1       5.224   4.234  16.524  0.00  0.00    +0.000 OA
ATOM     25  C   UNL     1       5.420   4.219  15.115  0.00  0.00    +0.000 C 
ENDBRANCH  19  24
BRANCH  20  26
ATOM     26  O   UNL     1       6.056   6.968  16.560  0.00  0.00    +0.000 OA
ATOM     27  C   UNL     1       7.170   7.034  17.443  0.00  0.00    +0.000 C 
ENDBRANCH  20  26
ENDBRANCH   9  16
BRANCH   1  28
ATOM     28  N   UNL     1      -0.403  12.767  19.466  0.00  0.00    +0.000 NA
ATOM     29  H   UNL     1      -1.028  13.034  20.223  0.00  0.00    +0.000 HD
BRANCH  28  30
ATOM     30  C   UNL     1       0.143  13.963  18.832  0.00  0.00    +0.000 C 
BRANCH  30  32
ATOM     31  C   UNL     1       2.345  12.967  18.183  0.00  0.00    +0.000 C 
ATOM     32  C   UNL     1       1.656  14.026  19.031  0.00  0.00    +0.000 C 
ENDBRANCH  30  32
ENDBRANCH  28  30
ENDBRANCH   1  28
TORSDOF 7
ENDMDL
MODEL 4
REMARK VINA RESULT:      -7.4      0.957      2.205
REMARK  Name = 
REMARK  11 active torsions:
REMARK  status: ('A' for Active; 'I' for Inactive)
REMARK    1  A    between atoms: C_1  and  C_2
REMARK    2  A    between atoms: C_2  and  C_3
REMARK    3  A    between atoms: C_3  and  N_4
REMARK    4  A    between atoms: N_4  and  C_5
REMARK    5  A    between atoms: C_13  and  C_14
REMARK    6  A    between atoms: C_16  and  O_17
REMARK    7  A    between atoms: O_17  and  C_18
REMARK    8  A    between atoms: C_19  and  O_20
REMARK    9  A    between atoms: O_20  and  C_21
REMARK   10  A    between atoms: C_22  and  O_23
REMARK   11  A    between atoms: O_23  and  C_24
REMARK                            x       y       z     vdW  Elec       q    Type
REMARK                         _______ _______ _______ _____ _____    ______ ____
ROOT
ATOM      1  C   UNL     1       6.185   5.352  15.858  0.00  0.00    +0.000 C 
ATOM      2  C   UNL     1       7.084   4.316  16.610  0.00  0.00    +0.000 C 
ATOM      3  O   UNL     1       8.135   4.955  17.368  0.00  0.00    +0.000 OA
ATOM      4  C   UNL     1       7.564   5.827  18.351  0.00  0.00    +0.000 C 
ATOM      5  C   UNL     1       6.728   6.929  17.690  0.00  0.00    +0.000 C 
ATOM      6  N   UNL     1       5.685   6.363  16.813  0.00  0.00    +0.000 N 
ATOM      7  C   UNL     1       4.407   6.264  17.364  0.00  0.00    +0.000 A 
ATOM      8  C   UNL     1       3.820   7.434  17.805  0.00  0.00    +0.000 A 
ATOM      9  C   UNL     1       2.528   7.383  18.279  0.00  0.00    +0.000 A 
ATOM     10  N   UNL     1       1.819   6.242  18.261  0.00  0.00    +0.000 NA
ATOM     11  C   UNL     1       2.451   5.155  17.819  0.00  0.00    +0.000 A 
ATOM     12  N   UNL     1       1.705   3.993  17.739  0.00  0.00    +0.000 N 
ATOM     13  N   UNL     1       3.717   5.121  17.386  0.00  0.00    +0.000 NA
ATOM     14  H   UNL     1       0.723   4.234  17.653  0.00  0.00    +0.000 HD
ATOM     15  H   UNL     1       2.100   3.407  17.015  0.00  0.00    +0.000 HD
ENDROOT
BRANCH   9  16
ATOM     16  C   UNL     1       1.863   8.576  18.828  0.00  0.00    +0.000 A 
ATOM     17  C   UNL     1       1.056   8.496  19.968  0.00  0.00    +0.000 A 
ATOM     18  C   UNL     1       0.441   9.634  20.502  0.00  0.00    +0.000 A 
ATOM     19  C   UNL     1       0.593  10.888  19.867  0.00  0.00    +0.000 A 
ATOM     20  C   UNL     1       1.382  10.986  18.705  0.00  0.00    +0.000 A 
ATOM     21  C   UNL     1       2.022   9.837  18.225  0.00  0.00    +0.000 A 
BRANCH  18  22
ATOM     22  O   UNL     1      -0.339   9.594  21.635  0.00  0.00    +0.000 OA
ATOM     23  C   UNL     1       0.361   9.453  22.868  0.00  0.00    +0.000 C 
ENDBRANCH  18  22
BRANCH  19  24
ATOM     24  O   UNL     1      -0.115  11.923  20.434  0.00  0.00    +0.000 OA
ATOM     25  C   UNL     1       0.625  12.856  21.211  0.00  0.00    +0.000 C 
ENDBRANCH  19  24
BRANCH  20  26
ATOM     26  O   UNL     1       1.473  12.198  18.074  0.00  0.00    +0.000 OA
ATOM     27  C   UNL     1       2.686  12.935  18.186  0.00  0.00    +0.000 C 
ENDBRANCH  20  26
ENDBRANCH   9  16
BRANCH   1  28
ATOM     28  N   UNL     1       5.318   4.651  14.896  0.00  0.00    +0.000 NA
ATOM     29  H   UNL     1       4.747   3.974  15.396  0.00  0.00    +0.000 HD
BRANCH  28  30
ATOM     30  C   UNL     1       6.097   3.974  13.863  0.00  0.00    +0.000 C 
BRANCH  30  32
ATOM     31  C   UNL     1       5.870   2.599  11.786  0.00  0.00    +0.000 C 
ATOM     32  C   UNL     1       5.220   3.668  12.652  0.00  0.00    +0.000 C 
ENDBRANCH  30  32
ENDBRANCH  28  30
ENDBRANCH   1  28
TORSDOF 7
ENDMDL
MODEL 5
REMARK VINA RESULT:      -7.3      2.480      4.191
REMARK  Name = 
REMARK  11 active torsions:
REMARK  status: ('A' for Active; 'I' for Inactive)
REMARK    1  A    between atoms: C_1  and  C_2
REMARK    2  A    between atoms: C_2  and  C_3
REMARK    3  A    between atoms: C_3  and  N_4
REMARK    4  A    between atoms: N_4  and  C_5
REMARK    5  A    between atoms: C_13  and  C_14
REMARK    6  A    between atoms: C_16  and  O_17
REMARK    7  A    between atoms: O_17  and  C_18
REMARK    8  A    between atoms: C_19  and  O_20
REMARK    9  A    between atoms: O_20  and  C_21
REMARK   10  A    between atoms: C_22  and  O_23
REMARK   11  A    between atoms: O_23  and  C_24
REMARK                            x       y       z     vdW  Elec       q    Type
REMARK                         _______ _______ _______ _____ _____    ______ ____
ROOT
ATOM      1  C   UNL     1       4.327   3.492  19.457  0.00  0.00    +0.000 C 
ATOM      2  C   UNL     1       3.987   2.364  18.428  0.00  0.00    +0.000 C 
ATOM      3  O   UNL     1       2.765   1.670  18.764  0.00  0.00    +0.000 OA
ATOM      4  C   UNL     1       1.669   2.593  18.773  0.00  0.00    +0.000 C 
ATOM      5  C   UNL     1       1.884   3.692  19.819  0.00  0.00    +0.000 C 
ATOM      6  N   UNL     1       3.166   4.394  19.609  0.00  0.00    +0.000 N 
ATOM      7  C   UNL     1       3.098   5.604  18.919  0.00  0.00    +0.000 A 
ATOM      8  C   UNL     1       2.304   6.594  19.464  0.00  0.00    +0.000 A 
ATOM      9  C   UNL     1       2.280   7.828  18.851  0.00  0.00    +0.000 A 
ATOM     10  N   UNL     1       3.052   8.097  17.785  0.00  0.00    +0.000 NA
ATOM     11  C   UNL     1       3.793   7.092  17.318  0.00  0.00    +0.000 A 
ATOM     12  N   UNL     1       4.637   7.384  16.261  0.00  0.00    +0.000 N 
ATOM     13  N   UNL     1       3.833   5.858  17.834  0.00  0.00    +0.000 NA
ATOM     14  H   UNL     1       4.846   8.376  16.268  0.00  0.00    +0.000 HD
ATOM     15  H   UNL     1       5.423   6.747  16.293  0.00  0.00    +0.000 HD
ENDROOT
BRANCH   9  16
ATOM     16  C   UNL     1       1.405   8.909  19.335  0.00  0.00    +0.000 A 
ATOM     17  C   UNL     1       1.275   9.178  20.702  0.00  0.00    +0.000 A 
ATOM     18  C   UNL     1       0.459  10.218  21.161  0.00  0.00    +0.000 A 
ATOM     19  C   UNL     1      -0.285  10.995  20.244  0.00  0.00    +0.000 A 
ATOM     20  C   UNL     1      -0.187  10.725  18.866  0.00  0.00    +0.000 A 
ATOM     21  C   UNL     1       0.675   9.708  18.437  0.00  0.00    +0.000 A 
BRANCH  18  22
ATOM     22  O   UNL     1       0.328  10.526  22.497  0.00  0.00    +0.000 OA
ATOM     23  C   UNL     1      -0.279   9.525  23.309  0.00  0.00    +0.000 C 
ENDBRANCH  18  22
BRANCH  19  24
ATOM     24  O   UNL     1      -1.110  11.941  20.809  0.00  0.00    +0.000 OA
ATOM     25  C   UNL     1      -0.646  13.285  20.798  0.00  0.00    +0.000 C 
ENDBRANCH  19  24
BRANCH  20  26
ATOM     26  O   UNL     1      -0.958  11.452  17.998  0.00  0.00    +0.000 OA
ATOM     27  C   UNL     1      -2.226  10.933  17.615  0.00  0.00    +0.000 C 
ENDBRANCH  20  26
ENDBRANCH   9  16
BRANCH   1  28
ATOM     28  N   UNL     1       5.699   3.974  19.230  0.00  0.00    +0.000 NA
ATOM     29  H   UNL     1       5.788   4.914  19.609  0.00  0.00    +0.000 HD
BRANCH  28  30
ATOM     30  C   UNL     1       6.039   3.980  17.810  0.00  0.00    +0.000 C 
BRANCH  30  32
ATOM     31  C   UNL     1       7.488   5.981  18.207  0.00  0.00    +0.000 C 
ATOM     32  C   UNL     1       7.424   4.588  17.598  0.00  0.00    +0.000 C 
ENDBRANCH  30  32
ENDBRANCH  28  30
ENDBRANCH   1  28
TORSDOF 7
ENDMDL
MODEL 6
REMARK VINA RESULT:      -7.3      2.482      3.592
REMARK  Name = 
REMARK  11 active torsions:
REMARK  status: ('A' for Active; 'I' for Inactive)
REMARK    1  A    between atoms: C_1  and  C_2
REMARK    2  A    between atoms: C_2  and  C_3
REMARK    3  A    between atoms: C_3  and  N_4
REMARK    4  A    between atoms: N_4  and  C_5
REMARK    5  A    between atoms: C_13  and  C_14
REMARK    6  A    between atoms: C_16  and  O_17
REMARK    7  A    between atoms: O_17  and  C_18
REMARK    8  A    between atoms: C_19  and  O_20
REMARK    9  A    between atoms: O_20  and  C_21
REMARK   10  A    between atoms: C_22  and  O_23
REMARK   11  A    between atoms: O_23  and  C_24
REMARK                            x       y       z     vdW  Elec       q    Type
REMARK                         _______ _______ _______ _____ _____    ______ ____
ROOT
ATOM      1  C   UNL     1       4.302   3.433  19.416  0.00  0.00    +0.000 C 
ATOM      2  C   UNL     1       3.994   2.316  18.364  0.00  0.00    +0.000 C 
ATOM      3  O   UNL     1       2.764   1.617  18.656  0.00  0.00    +0.000 OA
ATOM      4  C   UNL     1       1.666   2.539  18.642  0.00  0.00    +0.000 C 
ATOM      5  C   UNL     1       1.849   3.626  19.707  0.00  0.00    +0.000 C 
ATOM      6  N   UNL     1       3.135   4.331  19.544  0.00  0.00    +0.000 N 
ATOM      7  C   UNL     1       3.085   5.549  18.866  0.00  0.00    +0.000 A 
ATOM      8  C   UNL     1       2.274   6.532  19.398  0.00  0.00    +0.000 A 
ATOM      9  C   UNL     1       2.267   7.773  18.799  0.00  0.00    +0.000 A 
ATOM     10  N   UNL     1       3.069   8.055  17.760  0.00  0.00    +0.000 NA
ATOM     11  C   UNL     1       3.825   7.057  17.304  0.00  0.00    +0.000 A 
ATOM     12  N   UNL     1       4.700   7.361  16.276  0.00  0.00    +0.000 N 
ATOM     13  N   UNL     1       3.853   5.817  17.806  0.00  0.00    +0.000 NA
ATOM     14  H   UNL     1       4.908   8.354  16.300  0.00  0.00    +0.000 HD
ATOM     15  H   UNL     1       5.486   6.725  16.324  0.00  0.00    +0.000 HD
ENDROOT
BRANCH   9  16
ATOM     16  C   UNL     1       1.376   8.847  19.269  0.00  0.00    +0.000 A 
ATOM     17  C   UNL     1       0.619   9.606  18.371  0.00  0.00    +0.000 A 
ATOM     18  C   UNL     1      -0.243  10.614  18.819  0.00  0.00    +0.000 A 
ATOM     19  C   UNL     1      -0.330  10.912  20.198  0.00  0.00    +0.000 A 
ATOM     20  C   UNL     1       0.442  10.176  21.117  0.00  0.00    +0.000 A 
ATOM     21  C   UNL     1       1.258   9.143  20.639  0.00  0.00    +0.000 A 
BRANCH  18  22
ATOM     22  O   UNL     1      -1.020  11.361  17.964  0.00  0.00    +0.000 OA
ATOM     23  C   UNL     1      -2.018  10.645  17.242  0.00  0.00    +0.000 C 
ENDBRANCH  18  22
BRANCH  19  24
ATOM     24  O   UNL     1      -1.150  11.969  20.519  0.00  0.00    +0.000 OA
ATOM     25  C   UNL     1      -0.524  13.230  20.717  0.00  0.00    +0.000 C 
ENDBRANCH  19  24
BRANCH  20  26
ATOM     26  O   UNL     1       0.385  10.516  22.443  0.00  0.00    +0.000 OA
ATOM     27  C   UNL     1      -0.563   9.857  23.274  0.00  0.00    +0.000 C 
ENDBRANCH  20  26
ENDBRANCH   9  16
BRANCH   1  28
ATOM     28  N   UNL     1       5.679   3.919  19.236  0.00  0.00    +0.000 NA
ATOM     29  H   UNL     1       5.751   4.860  19.615  0.00  0.00    +0.000 HD
BRANCH  28  30
ATOM     30  C   UNL     1       6.069   3.922  17.829  0.00  0.00    +0.000 C 
BRANCH  30  32
ATOM     31  C   UNL     1       7.477   5.865  18.537  0.00  0.00    +0.000 C 
ATOM     32  C   UNL     1       7.410   4.630  17.650  0.00  0.00    +0.000 C 
ENDBRANCH  30  32
ENDBRANCH  28  30
ENDBRANCH   1  28
TORSDOF 7
ENDMDL
MODEL 7
REMARK VINA RESULT:      -7.3      1.117      1.284
REMARK  Name = 
REMARK  11 active torsions:
REMARK  status: ('A' for Active; 'I' for Inactive)
REMARK    1  A    between atoms: C_1  and  C_2
REMARK    2  A    between atoms: C_2  and  C_3
REMARK    3  A    between atoms: C_3  and  N_4
REMARK    4  A    between atoms: N_4  and  C_5
REMARK    5  A    between atoms: C_13  and  C_14
REMARK    6  A    between atoms: C_16  and  O_17
REMARK    7  A    between atoms: O_17  and  C_18
REMARK    8  A    between atoms: C_19  and  O_20
REMARK    9  A    between atoms: O_20  and  C_21
REMARK   10  A    between atoms: C_22  and  O_23
REMARK   11  A    between atoms: O_23  and  C_24
REMARK                            x       y       z     vdW  Elec       q    Type
REMARK                         _______ _______ _______ _____ _____    ______ ____
ROOT
ATOM      1  C   UNL     1       6.207   5.422  15.942  0.00  0.00    +0.000 C 
ATOM      2  C   UNL     1       7.090   4.384  16.710  0.00  0.00    +0.000 C 
ATOM      3  O   UNL     1       8.128   5.021  17.487  0.00  0.00    +0.000 OA
ATOM      4  C   UNL     1       7.541   5.894  18.460  0.00  0.00    +0.000 C 
ATOM      5  C   UNL     1       6.721   6.998  17.783  0.00  0.00    +0.000 C 
ATOM      6  N   UNL     1       5.692   6.434  16.888  0.00  0.00    +0.000 N 
ATOM      7  C   UNL     1       4.404   6.338  17.416  0.00  0.00    +0.000 A 
ATOM      8  C   UNL     1       3.812   7.509  17.846  0.00  0.00    +0.000 A 
ATOM      9  C   UNL     1       2.511   7.460  18.296  0.00  0.00    +0.000 A 
ATOM     10  N   UNL     1       1.800   6.322  18.266  0.00  0.00    +0.000 NA
ATOM     11  C   UNL     1       2.438   5.233  17.835  0.00  0.00    +0.000 A 
ATOM     12  N   UNL     1       1.690   4.073  17.741  0.00  0.00    +0.000 N 
ATOM     13  N   UNL     1       3.711   5.196  17.425  0.00  0.00    +0.000 NA
ATOM     14  H   UNL     1       0.711   4.316  17.637  0.00  0.00    +0.000 HD
ATOM     15  H   UNL     1       2.097   3.486  17.024  0.00  0.00    +0.000 HD
ENDROOT
BRANCH   9  16
ATOM     16  C   UNL     1       1.839   8.656  18.834  0.00  0.00    +0.000 A 
ATOM     17  C   UNL     1       1.965   9.900  18.209  0.00  0.00    +0.000 A 
ATOM     18  C   UNL     1       1.310  11.032  18.708  0.00  0.00    +0.000 A 
ATOM     19  C   UNL     1       0.538  10.942  19.888  0.00  0.00    +0.000 A 
ATOM     20  C   UNL     1       0.418   9.704  20.547  0.00  0.00    +0.000 A 
ATOM     21  C   UNL     1       1.047   8.582  19.994  0.00  0.00    +0.000 A 
BRANCH  18  22
ATOM     22  O   UNL     1       1.392  12.266  18.103  0.00  0.00    +0.000 OA
ATOM     23  C   UNL     1       2.658  12.915  18.182  0.00  0.00    +0.000 C 
ENDBRANCH  18  22
BRANCH  19  24
ATOM     24  O   UNL     1       0.000  12.130  20.330  0.00  0.00    +0.000 OA
ATOM     25  C   UNL     1      -1.394  12.319  20.124  0.00  0.00    +0.000 C 
ENDBRANCH  19  24
BRANCH  20  26
ATOM     26  O   UNL     1      -0.290   9.649  21.719  0.00  0.00    +0.000 OA
ATOM     27  C   UNL     1       0.417   9.405  22.930  0.00  0.00    +0.000 C 
ENDBRANCH  20  26
ENDBRANCH   9  16
BRANCH   1  28
ATOM     28  N   UNL     1       5.356   4.723  14.965  0.00  0.00    +0.000 NA
ATOM     29  H   UNL     1       4.554   4.324  15.447  0.00  0.00    +0.000 HD
BRANCH  28  30
ATOM     30  C   UNL     1       6.089   3.670  14.269  0.00  0.00    +0.000 C 
BRANCH  30  32
ATOM     31  C   UNL     1       6.921   3.816  11.914  0.00  0.00    +0.000 C 
ATOM     32  C   UNL     1       5.694   3.632  12.795  0.00  0.00    +0.000 C 
ENDBRANCH  30  32
ENDBRANCH  28  30
ENDBRANCH   1  28
TORSDOF 7
ENDMDL
MODEL 8
REMARK VINA RESULT:      -7.3      3.539      8.614
REMARK  Name = 
REMARK  11 active torsions:
REMARK  status: ('A' for Active; 'I' for Inactive)
REMARK    1  A    between atoms: C_1  and  C_2
REMARK    2  A    between atoms: C_2  and  C_3
REMARK    3  A    between atoms: C_3  and  N_4
REMARK    4  A    between atoms: N_4  and  C_5
REMARK    5  A    between atoms: C_13  and  C_14
REMARK    6  A    between atoms: C_16  and  O_17
REMARK    7  A    between atoms: O_17  and  C_18
REMARK    8  A    between atoms: C_19  and  O_20
REMARK    9  A    between atoms: O_20  and  C_21
REMARK   10  A    between atoms: C_22  and  O_23
REMARK   11  A    between atoms: O_23  and  C_24
REMARK                            x       y       z     vdW  Elec       q    Type
REMARK                         _______ _______ _______ _____ _____    ______ ____
ROOT
ATOM      1  C   UNL     1      -1.755  11.835  20.127  0.00  0.00    +0.000 C 
ATOM      2  C   UNL     1      -1.446  12.887  21.244  0.00  0.00    +0.000 C 
ATOM      3  O   UNL     1      -1.485  12.306  22.565  0.00  0.00    +0.000 OA
ATOM      4  C   UNL     1      -0.505  11.266  22.668  0.00  0.00    +0.000 C 
ATOM      5  C   UNL     1      -0.783  10.147  21.658  0.00  0.00    +0.000 C 
ATOM      6  N   UNL     1      -0.858  10.670  20.280  0.00  0.00    +0.000 N 
ATOM      7  C   UNL     1       0.299  10.545  19.512  0.00  0.00    +0.000 A 
ATOM      8  C   UNL     1       0.791   9.269  19.318  0.00  0.00    +0.000 A 
ATOM      9  C   UNL     1       1.885   9.104  18.497  0.00  0.00    +0.000 A 
ATOM     10  N   UNL     1       2.434  10.141  17.844  0.00  0.00    +0.000 NA
ATOM     11  C   UNL     1       1.904  11.341  18.079  0.00  0.00    +0.000 A 
ATOM     12  N   UNL     1       2.426  12.401  17.359  0.00  0.00    +0.000 N 
ATOM     13  N   UNL     1       0.872  11.583  18.896  0.00  0.00    +0.000 NA
ATOM     14  H   UNL     1       2.841  12.049  16.504  0.00  0.00    +0.000 HD
ATOM     15  H   UNL     1       1.708  13.109  17.265  0.00  0.00    +0.000 HD
ENDROOT
BRANCH   9  16
ATOM     16  C   UNL     1       2.504   7.783  18.299  0.00  0.00    +0.000 A 
ATOM     17  C   UNL     1       1.973   6.637  18.899  0.00  0.00    +0.000 A 
ATOM     18  C   UNL     1       2.549   5.378  18.694  0.00  0.00    +0.000 A 
ATOM     19  C   UNL     1       3.714   5.251  17.903  0.00  0.00    +0.000 A 
ATOM     20  C   UNL     1       4.279   6.395  17.309  0.00  0.00    +0.000 A 
ATOM     21  C   UNL     1       3.649   7.632  17.496  0.00  0.00    +0.000 A 
BRANCH  18  22
ATOM     22  O   UNL     1       2.037   4.227  19.249  0.00  0.00    +0.000 OA
ATOM     23  C   UNL     1       1.220   4.402  20.402  0.00  0.00    +0.000 C 
ENDBRANCH  18  22
BRANCH  19  24
ATOM     24  O   UNL     1       4.238   3.980  17.830  0.00  0.00    +0.000 OA
ATOM     25  C   UNL     1       5.178   3.614  18.833  0.00  0.00    +0.000 C 
ENDBRANCH  19  24
BRANCH  20  26
ATOM     26  O   UNL     1       5.438   6.259  16.592  0.00  0.00    +0.000 OA
ATOM     27  C   UNL     1       6.654   6.718  17.171  0.00  0.00    +0.000 C 
ENDBRANCH  20  26
ENDBRANCH   9  16
BRANCH   1  28
ATOM     28  N   UNL     1      -1.973  12.522  18.844  0.00  0.00    +0.000 NA
ATOM     29  H   UNL     1      -2.296  13.470  19.025  0.00  0.00    +0.000 HD
BRANCH  28  30
ATOM     30  C   UNL     1      -2.948  11.818  18.016  0.00  0.00    +0.000 C 
BRANCH  30  32
ATOM     31  C   UNL     1      -2.136   9.756  16.855  0.00  0.00    +0.000 C 
ATOM     32  C   UNL     1      -2.279  11.268  16.759  0.00  0.00    +0.000 C 
ENDBRANCH  30  32
ENDBRANCH  28  30
ENDBRANCH   1  28
TORSDOF 7
ENDMDL
MODEL 9
REMARK VINA RESULT:      -7.2      3.457      8.788
REMARK  Name = 
REMARK  11 active torsions:
REMARK  status: ('A' for Active; 'I' for Inactive)
REMARK    1  A    between atoms: C_1  and  C_2
REMARK    2  A    between atoms: C_2  and  C_3
REMARK    3  A    between atoms: C_3  and  N_4
REMARK    4  A    between atoms: N_4  and  C_5
REMARK    5  A    between atoms: C_13  and  C_14
REMARK    6  A    between atoms: C_16  and  O_17
REMARK    7  A    between atoms: O_17  and  C_18
REMARK    8  A    between atoms: C_19  and  O_20
REMARK    9  A    between atoms: O_20  and  C_21
REMARK   10  A    between atoms: C_22  and  O_23
REMARK   11  A    between atoms: O_23  and  C_24
REMARK                            x       y       z     vdW  Elec       q    Type
REMARK                         _______ _______ _______ _____ _____    ______ ____
ROOT
ATOM      1  C   UNL     1      -1.814  12.008  19.978  0.00  0.00    +0.000 C 
ATOM      2  C   UNL     1      -1.540  13.160  21.000  0.00  0.00    +0.000 C 
ATOM      3  O   UNL     1      -1.642  12.709  22.369  0.00  0.00    +0.000 OA
ATOM      4  C   UNL     1      -0.680  11.676  22.613  0.00  0.00    +0.000 C 
ATOM      5  C   UNL     1      -0.928  10.467  21.705  0.00  0.00    +0.000 C 
ATOM      6  N   UNL     1      -0.939  10.855  20.281  0.00  0.00    +0.000 N 
ATOM      7  C   UNL     1       0.248  10.648  19.579  0.00  0.00    +0.000 A 
ATOM      8  C   UNL     1       0.731   9.355  19.529  0.00  0.00    +0.000 A 
ATOM      9  C   UNL     1       1.857   9.103  18.776  0.00  0.00    +0.000 A 
ATOM     10  N   UNL     1       2.446  10.068  18.050  0.00  0.00    +0.000 NA
ATOM     11  C   UNL     1       1.921  11.289  18.146  0.00  0.00    +0.000 A 
ATOM     12  N   UNL     1       2.486  12.271  17.351  0.00  0.00    +0.000 N 
ATOM     13  N   UNL     1       0.859  11.617  18.891  0.00  0.00    +0.000 NA
ATOM     14  H   UNL     1       2.933  11.834  16.552  0.00  0.00    +0.000 HD
ATOM     15  H   UNL     1       1.781  12.971  17.158  0.00  0.00    +0.000 HD
ENDROOT
BRANCH   9  16
ATOM     16  C   UNL     1       2.468   7.764  18.732  0.00  0.00    +0.000 A 
ATOM     17  C   UNL     1       3.307   7.384  17.679  0.00  0.00    +0.000 A 
ATOM     18  C   UNL     1       3.903   6.119  17.648  0.00  0.00    +0.000 A 
ATOM     19  C   UNL     1       3.631   5.180  18.669  0.00  0.00    +0.000 A 
ATOM     20  C   UNL     1       2.771   5.533  19.725  0.00  0.00    +0.000 A 
ATOM     21  C   UNL     1       2.228   6.824  19.751  0.00  0.00    +0.000 A 
BRANCH  18  22
ATOM     22  O   UNL     1       4.753   5.722  16.640  0.00  0.00    +0.000 OA
ATOM     23  C   UNL     1       6.081   6.234  16.709  0.00  0.00    +0.000 C 
ENDBRANCH  18  22
BRANCH  19  24
ATOM     24  O   UNL     1       4.211   3.944  18.499  0.00  0.00    +0.000 OA
ATOM     25  C   UNL     1       3.442   2.962  17.815  0.00  0.00    +0.000 C 
ENDBRANCH  19  24
BRANCH  20  26
ATOM     26  O   UNL     1       2.476   4.592  20.676  0.00  0.00    +0.000 OA
ATOM     27  C   UNL     1       1.203   3.957  20.634  0.00  0.00    +0.000 C 
ENDBRANCH  20  26
ENDBRANCH   9  16
BRANCH   1  28
ATOM     28  N   UNL     1      -1.970  12.569  18.626  0.00  0.00    +0.000 NA
ATOM     29  H   UNL     1      -2.389  13.494  18.696  0.00  0.00    +0.000 HD
BRANCH  28  30
ATOM     30  C   UNL     1      -2.799  11.715  17.781  0.00  0.00    +0.000 C 
BRANCH  30  32
ATOM     31  C   UNL     1      -5.232  11.468  17.252  0.00  0.00    +0.000 C 
ATOM     32  C   UNL     1      -4.203  11.589  18.367  0.00  0.00    +0.000 C 
ENDBRANCH  30  32
ENDBRANCH  28  30
ENDBRANCH   1  28
TORSDOF 7
ENDMDL
