MODEL 1
REMARK VINA RESULT:      -8.5      0.000      0.000
REMARK  Name = 
REMARK  12 active torsions:
REMARK  status: ('A' for Active; 'I' for Inactive)
REMARK    1  A    between atoms: C_1  and  C_2
REMARK    2  A    between atoms: C_4  and  C_5
REMARK    3  A    between atoms: C_5  and  C_6
REMARK    4  A    between atoms: C_5  and  C_7
REMARK    5  A    between atoms: C_5  and  C_8
REMARK    6  A    between atoms: C_10  and  C_11
REMARK    7  A    between atoms: C_12  and  C_13
REMARK    8  A    between atoms: C_13  and  N_14
REMARK    9  A    between atoms: N_14  and  C_15
REMARK   10  A    between atoms: N_14  and  C_16
REMARK   11  A    between atoms: C_16  and  C_17
REMARK   12  A    between atoms: C_16  and  C_18
REMARK                            x       y       z     vdW  Elec       q    Type
REMARK                         _______ _______ _______ _____ _____    ______ ____
ROOT
ATOM      1  N   UNL     1       2.824   3.229  18.507  0.00  0.00    +0.000 NA
ATOM      2  C   UNL     1       1.858   2.189  18.174  0.00  0.00    +0.000 C 
ENDROOT
BRANCH   1   3
ATOM      3  C   UNL     1       4.260   2.907  18.709  0.00  0.00    +0.000 C 
ATOM      4  C   UNL     1       4.539   2.348  20.112  0.00  0.00    +0.000 C 
BRANCH   3   5
ATOM      5  C   UNL     1       5.190   4.093  18.268  0.00  0.00    +0.000 A 
ATOM      6  C   UNL     1       5.765   4.814  19.343  0.00  0.00    +0.000 A 
ATOM      7  C   UNL     1       6.877   5.628  19.177  0.00  0.00    +0.000 A 
ATOM      8  C   UNL     1       7.438   5.773  17.919  0.00  0.00    +0.000 A 
ATOM      9  C   UNL     1       6.854   5.178  16.797  0.00  0.00    +0.000 A 
ATOM     10  C   UNL     1       7.487   5.361  15.556  0.00  0.00    +0.000 A 
ATOM     11  C   UNL     1       6.964   4.816  14.391  0.00  0.00    +0.000 A 
ATOM     12  C   UNL     1       5.788   4.091  14.459  0.00  0.00    +0.000 A 
ATOM     13  C   UNL     1       5.168   3.873  15.699  0.00  0.00    +0.000 A 
ATOM     14  C   UNL     1       5.681   4.370  16.928  0.00  0.00    +0.000 A 
ENDBRANCH   3   5
ENDBRANCH   1   3
BRANCH   1  15
ATOM     15  C   UNL     1       2.470   4.515  17.899  0.00  0.00    +0.000 C 
BRANCH  15  23
ATOM     16  C   UNL     1       3.408   7.331  17.349  0.00  0.00    +0.000 C 
ATOM     17  C   UNL     1       2.552   6.977  18.544  0.00  0.00    +0.000 A 
ATOM     18  C   UNL     1       2.167   8.045  19.378  0.00  0.00    +0.000 A 
ATOM     19  C   UNL     1       1.426   7.857  20.547  0.00  0.00    +0.000 A 
ATOM     20  C   UNL     1       1.153   6.545  20.920  0.00  0.00    +0.000 A 
ATOM     21  C   UNL     1       1.568   5.452  20.156  0.00  0.00    +0.000 A 
ATOM     22  C   UNL     1       1.312   4.134  20.823  0.00  0.00    +0.000 C 
ATOM     23  C   UNL     1       2.197   5.646  18.898  0.00  0.00    +0.000 A 
BRANCH  19  24
ATOM     24  C   UNL     1       0.880   8.981  21.420  0.00  0.00    +0.000 C 
ATOM     25  C   UNL     1       1.753   9.253  22.657  0.00  0.00    +0.000 C 
ATOM     26  C   UNL     1       0.821  10.273  20.576  0.00  0.00    +0.000 C 
ATOM     27  C   UNL     1      -0.543   8.624  21.907  0.00  0.00    +0.000 C 
ENDBRANCH  19  24
ENDBRANCH  15  23
ENDBRANCH   1  15
TORSDOF 5
ENDMDL
MODEL 2
REMARK VINA RESULT:      -7.2      4.111      9.015
REMARK  Name = 
REMARK  12 active torsions:
REMARK  status: ('A' for Active; 'I' for Inactive)
REMARK    1  A    between atoms: C_1  and  C_2
REMARK    2  A    between atoms: C_4  and  C_5
REMARK    3  A    between atoms: C_5  and  C_6
REMARK    4  A    between atoms: C_5  and  C_7
REMARK    5  A    between atoms: C_5  and  C_8
REMARK    6  A    between atoms: C_10  and  C_11
REMARK    7  A    between atoms: C_12  and  C_13
REMARK    8  A    between atoms: C_13  and  N_14
REMARK    9  A    between atoms: N_14  and  C_15
REMARK   10  A    between atoms: N_14  and  C_16
REMARK   11  A    between atoms: C_16  and  C_17
REMARK   12  A    between atoms: C_16  and  C_18
REMARK                            x       y       z     vdW  Elec       q    Type
REMARK                         _______ _______ _______ _____ _____    ______ ____
ROOT
ATOM      1  N   UNL     1      -0.549  11.618  20.911  0.00  0.00    +0.000 NA
ATOM      2  C   UNL     1      -1.032  11.666  22.286  0.00  0.00    +0.000 C 
ENDROOT
BRANCH   1   3
ATOM      3  C   UNL     1      -1.088  12.536  19.876  0.00  0.00    +0.000 C 
ATOM      4  C   UNL     1      -0.992  14.010  20.298  0.00  0.00    +0.000 C 
BRANCH   3   5
ATOM      5  C   UNL     1      -2.503  12.079  19.371  0.00  0.00    +0.000 A 
ATOM      6  C   UNL     1      -3.587  12.660  20.072  0.00  0.00    +0.000 A 
ATOM      7  C   UNL     1      -4.875  12.684  19.554  0.00  0.00    +0.000 A 
ATOM      8  C   UNL     1      -5.130  12.098  18.326  0.00  0.00    +0.000 A 
ATOM      9  C   UNL     1      -4.129  11.412  17.633  0.00  0.00    +0.000 A 
ATOM     10  C   UNL     1      -4.460  10.853  16.387  0.00  0.00    +0.000 A 
ATOM     11  C   UNL     1      -3.528  10.143  15.642  0.00  0.00    +0.000 A 
ATOM     12  C   UNL     1      -2.253   9.974  16.151  0.00  0.00    +0.000 A 
ATOM     13  C   UNL     1      -1.902  10.558  17.378  0.00  0.00    +0.000 A 
ATOM     14  C   UNL     1      -2.802  11.331  18.162  0.00  0.00    +0.000 A 
ENDBRANCH   3   5
ENDBRANCH   1   3
BRANCH   1  15
ATOM     15  C   UNL     1       0.863  11.232  20.844  0.00  0.00    +0.000 C 
BRANCH  15  23
ATOM     16  C   UNL     1       1.740  10.530  18.042  0.00  0.00    +0.000 C 
ATOM     17  C   UNL     1       1.639   9.501  19.146  0.00  0.00    +0.000 A 
ATOM     18  C   UNL     1       2.023   8.187  18.814  0.00  0.00    +0.000 A 
ATOM     19  C   UNL     1       1.926   7.124  19.716  0.00  0.00    +0.000 A 
ATOM     20  C   UNL     1       1.339   7.392  20.948  0.00  0.00    +0.000 A 
ATOM     21  C   UNL     1       0.888   8.666  21.297  0.00  0.00    +0.000 A 
ATOM     22  C   UNL     1       0.145   8.694  22.600  0.00  0.00    +0.000 C 
ATOM     23  C   UNL     1       1.114   9.774  20.438  0.00  0.00    +0.000 A 
BRANCH  19  24
ATOM     24  C   UNL     1       2.437   5.712  19.454  0.00  0.00    +0.000 C 
ATOM     25  C   UNL     1       3.971   5.617  19.486  0.00  0.00    +0.000 C 
ATOM     26  C   UNL     1       1.871   4.776  20.545  0.00  0.00    +0.000 C 
ATOM     27  C   UNL     1       1.955   5.229  18.067  0.00  0.00    +0.000 C 
ENDBRANCH  19  24
ENDBRANCH  15  23
ENDBRANCH   1  15
TORSDOF 5
ENDMDL
MODEL 3
REMARK VINA RESULT:      -7.2      4.085      9.295
REMARK  Name = 
REMARK  12 active torsions:
REMARK  status: ('A' for Active; 'I' for Inactive)
REMARK    1  A    between atoms: C_1  and  C_2
REMARK    2  A    between atoms: C_4  and  C_5
REMARK    3  A    between atoms: C_5  and  C_6
REMARK    4  A    between atoms: C_5  and  C_7
REMARK    5  A    between atoms: C_5  and  C_8
REMARK    6  A    between atoms: C_10  and  C_11
REMARK    7  A    between atoms: C_12  and  C_13
REMARK    8  A    between atoms: C_13  and  N_14
REMARK    9  A    between atoms: N_14  and  C_15
REMARK   10  A    between atoms: N_14  and  C_16
REMARK   11  A    between atoms: C_16  and  C_17
REMARK   12  A    between atoms: C_16  and  C_18
REMARK                            x       y       z     vdW  Elec       q    Type
REMARK                         _______ _______ _______ _____ _____    ______ ____
ROOT
ATOM      1  N   UNL     1      -0.580  11.521  20.339  0.00  0.00    +0.000 NA
ATOM      2  C   UNL     1      -1.310  11.765  21.577  0.00  0.00    +0.000 C 
ENDROOT
BRANCH   1   3
ATOM      3  C   UNL     1      -0.867  12.304  19.111  0.00  0.00    +0.000 C 
ATOM      4  C   UNL     1      -0.985  13.809  19.394  0.00  0.00    +0.000 C 
BRANCH   3   5
ATOM      5  C   UNL     1      -2.056  11.686  18.291  0.00  0.00    +0.000 A 
ATOM      6  C   UNL     1      -1.652  10.827  17.240  0.00  0.00    +0.000 A 
ATOM      7  C   UNL     1      -2.520   9.913  16.658  0.00  0.00    +0.000 A 
ATOM      8  C   UNL     1      -3.835   9.847  17.089  0.00  0.00    +0.000 A 
ATOM      9  C   UNL     1      -4.326  10.740  18.045  0.00  0.00    +0.000 A 
ATOM     10  C   UNL     1      -5.667  10.604  18.440  0.00  0.00    +0.000 A 
ATOM     11  C   UNL     1      -6.236  11.461  19.373  0.00  0.00    +0.000 A 
ATOM     12  C   UNL     1      -5.464  12.476  19.908  0.00  0.00    +0.000 A 
ATOM     13  C   UNL     1      -4.114  12.598  19.547  0.00  0.00    +0.000 A 
ATOM     14  C   UNL     1      -3.468  11.724  18.630  0.00  0.00    +0.000 A 
ENDBRANCH   3   5
ENDBRANCH   1   3
BRANCH   1  15
ATOM     15  C   UNL     1       0.800  11.096  20.596  0.00  0.00    +0.000 C 
BRANCH  15  23
ATOM     16  C   UNL     1       1.926  10.296  17.913  0.00  0.00    +0.000 C 
ATOM     17  C   UNL     1       1.731   9.308  19.041  0.00  0.00    +0.000 A 
ATOM     18  C   UNL     1       2.149   7.985  18.795  0.00  0.00    +0.000 A 
ATOM     19  C   UNL     1       1.976   6.957  19.725  0.00  0.00    +0.000 A 
ATOM     20  C   UNL     1       1.280   7.266  20.889  0.00  0.00    +0.000 A 
ATOM     21  C   UNL     1       0.794   8.549  21.147  0.00  0.00    +0.000 A 
ATOM     22  C   UNL     1      -0.062   8.621  22.376  0.00  0.00    +0.000 C 
ATOM     23  C   UNL     1       1.092   9.626  20.270  0.00  0.00    +0.000 A 
BRANCH  19  24
ATOM     24  C   UNL     1       2.514   5.540  19.563  0.00  0.00    +0.000 C 
ATOM     25  C   UNL     1       4.050   5.489  19.497  0.00  0.00    +0.000 C 
ATOM     26  C   UNL     1       2.054   4.699  20.775  0.00  0.00    +0.000 C 
ATOM     27  C   UNL     1       1.957   4.911  18.266  0.00  0.00    +0.000 C 
ENDBRANCH  19  24
ENDBRANCH  15  23
ENDBRANCH   1  15
TORSDOF 5
ENDMDL
MODEL 4
REMARK VINA RESULT:      -6.9      3.369      6.221
REMARK  Name = 
REMARK  12 active torsions:
REMARK  status: ('A' for Active; 'I' for Inactive)
REMARK    1  A    between atoms: C_1  and  C_2
REMARK    2  A    between atoms: C_4  and  C_5
REMARK    3  A    between atoms: C_5  and  C_6
REMARK    4  A    between atoms: C_5  and  C_7
REMARK    5  A    between atoms: C_5  and  C_8
REMARK    6  A    between atoms: C_10  and  C_11
REMARK    7  A    between atoms: C_12  and  C_13
REMARK    8  A    between atoms: C_13  and  N_14
REMARK    9  A    between atoms: N_14  and  C_15
REMARK   10  A    between atoms: N_14  and  C_16
REMARK   11  A    between atoms: C_16  and  C_17
REMARK   12  A    between atoms: C_16  and  C_18
REMARK                            x       y       z     vdW  Elec       q    Type
REMARK                         _______ _______ _______ _____ _____    ______ ____
ROOT
ATOM      1  N   UNL     1       0.658   9.763  19.939  0.00  0.00    +0.000 NA
ATOM      2  C   UNL     1      -0.731   9.947  19.536  0.00  0.00    +0.000 C 
ENDROOT
BRANCH   1   3
ATOM      3  C   UNL     1       1.659   9.191  19.003  0.00  0.00    +0.000 C 
ATOM      4  C   UNL     1       1.217   9.304  17.536  0.00  0.00    +0.000 C 
BRANCH   3   5
ATOM      5  C   UNL     1       2.122   7.758  19.450  0.00  0.00    +0.000 A 
ATOM      6  C   UNL     1       1.455   7.262  20.596  0.00  0.00    +0.000 A 
ATOM      7  C   UNL     1       1.444   5.911  20.919  0.00  0.00    +0.000 A 
ATOM      8  C   UNL     1       2.127   5.011  20.119  0.00  0.00    +0.000 A 
ATOM      9  C   UNL     1       2.896   5.448  19.036  0.00  0.00    +0.000 A 
ATOM     10  C   UNL     1       3.552   4.474  18.265  0.00  0.00    +0.000 A 
ATOM     11  C   UNL     1       4.347   4.825  17.182  0.00  0.00    +0.000 A 
ATOM     12  C   UNL     1       4.504   6.163  16.872  0.00  0.00    +0.000 A 
ATOM     13  C   UNL     1       3.825   7.141  17.615  0.00  0.00    +0.000 A 
ATOM     14  C   UNL     1       2.965   6.837  18.706  0.00  0.00    +0.000 A 
ENDBRANCH   3   5
ENDBRANCH   1   3
BRANCH   1  15
ATOM     15  C   UNL     1       1.090  10.792  20.889  0.00  0.00    +0.000 C 
BRANCH  15  23
ATOM     16  C   UNL     1       0.357  13.670  20.350  0.00  0.00    +0.000 C 
ATOM     17  C   UNL     1      -0.435  12.791  21.292  0.00  0.00    +0.000 A 
ATOM     18  C   UNL     1      -1.576  13.370  21.881  0.00  0.00    +0.000 A 
ATOM     19  C   UNL     1      -2.366  12.695  22.814  0.00  0.00    +0.000 A 
ATOM     20  C   UNL     1      -1.930  11.439  23.222  0.00  0.00    +0.000 A 
ATOM     21  C   UNL     1      -0.772  10.850  22.711  0.00  0.00    +0.000 A 
ATOM     22  C   UNL     1      -0.401   9.574  23.404  0.00  0.00    +0.000 C 
ATOM     23  C   UNL     1      -0.046  11.474  21.661  0.00  0.00    +0.000 A 
BRANCH  19  24
ATOM     24  C   UNL     1      -3.674  13.225  23.391  0.00  0.00    +0.000 C 
ATOM     25  C   UNL     1      -3.565  14.678  23.880  0.00  0.00    +0.000 C 
ATOM     26  C   UNL     1      -4.756  13.166  22.289  0.00  0.00    +0.000 C 
ATOM     27  C   UNL     1      -4.114  12.348  24.585  0.00  0.00    +0.000 C 
ENDBRANCH  19  24
ENDBRANCH  15  23
ENDBRANCH   1  15
TORSDOF 5
ENDMDL
MODEL 5
REMARK VINA RESULT:      -6.9      4.101      9.390
REMARK  Name = 
REMARK  12 active torsions:
REMARK  status: ('A' for Active; 'I' for Inactive)
REMARK    1  A    between atoms: C_1  and  C_2
REMARK    2  A    between atoms: C_4  and  C_5
REMARK    3  A    between atoms: C_5  and  C_6
REMARK    4  A    between atoms: C_5  and  C_7
REMARK    5  A    between atoms: C_5  and  C_8
REMARK    6  A    between atoms: C_10  and  C_11
REMARK    7  A    between atoms: C_12  and  C_13
REMARK    8  A    between atoms: C_13  and  N_14
REMARK    9  A    between atoms: N_14  and  C_15
REMARK   10  A    between atoms: N_14  and  C_16
REMARK   11  A    between atoms: C_16  and  C_17
REMARK   12  A    between atoms: C_16  and  C_18
REMARK                            x       y       z     vdW  Elec       q    Type
REMARK                         _______ _______ _______ _____ _____    ______ ____
ROOT
ATOM      1  N   UNL     1      -0.547  11.519  20.445  0.00  0.00    +0.000 NA
ATOM      2  C   UNL     1      -1.234  11.555  21.730  0.00  0.00    +0.000 C 
ENDROOT
BRANCH   1   3
ATOM      3  C   UNL     1      -0.948  12.419  19.334  0.00  0.00    +0.000 C 
ATOM      4  C   UNL     1      -1.183  13.861  19.809  0.00  0.00    +0.000 C 
BRANCH   3   5
ATOM      5  C   UNL     1      -2.109  11.803  18.475  0.00  0.00    +0.000 A 
ATOM      6  C   UNL     1      -1.671  10.989  17.402  0.00  0.00    +0.000 A 
ATOM      7  C   UNL     1      -2.510  10.076  16.776  0.00  0.00    +0.000 A 
ATOM      8  C   UNL     1      -3.829   9.967  17.184  0.00  0.00    +0.000 A 
ATOM      9  C   UNL     1      -4.354  10.817  18.161  0.00  0.00    +0.000 A 
ATOM     10  C   UNL     1      -5.697  10.639  18.530  0.00  0.00    +0.000 A 
ATOM     11  C   UNL     1      -6.300  11.450  19.482  0.00  0.00    +0.000 A 
ATOM     12  C   UNL     1      -5.559  12.463  20.063  0.00  0.00    +0.000 A 
ATOM     13  C   UNL     1      -4.206  12.627  19.728  0.00  0.00    +0.000 A 
ATOM     14  C   UNL     1      -3.527  11.799  18.792  0.00  0.00    +0.000 A 
ENDBRANCH   3   5
ENDBRANCH   1   3
BRANCH   1  15
ATOM     15  C   UNL     1       0.869  11.173  20.595  0.00  0.00    +0.000 C 
BRANCH  15  23
ATOM     16  C   UNL     1       1.917  10.964  17.772  0.00  0.00    +0.000 C 
ATOM     17  C   UNL     1       1.867   9.780  18.711  0.00  0.00    +0.000 A 
ATOM     18  C   UNL     1       2.382   8.566  18.217  0.00  0.00    +0.000 A 
ATOM     19  C   UNL     1       2.346   7.379  18.953  0.00  0.00    +0.000 A 
ATOM     20  C   UNL     1       1.688   7.413  20.178  0.00  0.00    +0.000 A 
ATOM     21  C   UNL     1       1.110   8.580  20.680  0.00  0.00    +0.000 A 
ATOM     22  C   UNL     1       0.316   8.355  21.932  0.00  0.00    +0.000 C 
ATOM     23  C   UNL     1       1.268   9.817  20.000  0.00  0.00    +0.000 A 
BRANCH  19  24
ATOM     24  C   UNL     1       2.994   6.068  18.520  0.00  0.00    +0.000 C 
ATOM     25  C   UNL     1       1.989   5.082  17.902  0.00  0.00    +0.000 C 
ATOM     26  C   UNL     1       4.076   6.381  17.463  0.00  0.00    +0.000 C 
ATOM     27  C   UNL     1       3.653   5.382  19.737  0.00  0.00    +0.000 C 
ENDBRANCH  19  24
ENDBRANCH  15  23
ENDBRANCH   1  15
TORSDOF 5
ENDMDL
MODEL 6
REMARK VINA RESULT:      -6.9      4.466     10.013
REMARK  Name = 
REMARK  12 active torsions:
REMARK  status: ('A' for Active; 'I' for Inactive)
REMARK    1  A    between atoms: C_1  and  C_2
REMARK    2  A    between atoms: C_4  and  C_5
REMARK    3  A    between atoms: C_5  and  C_6
REMARK    4  A    between atoms: C_5  and  C_7
REMARK    5  A    between atoms: C_5  and  C_8
REMARK    6  A    between atoms: C_10  and  C_11
REMARK    7  A    between atoms: C_12  and  C_13
REMARK    8  A    between atoms: C_13  and  N_14
REMARK    9  A    between atoms: N_14  and  C_15
REMARK   10  A    between atoms: N_14  and  C_16
REMARK   11  A    between atoms: C_16  and  C_17
REMARK   12  A    between atoms: C_16  and  C_18
REMARK                            x       y       z     vdW  Elec       q    Type
REMARK                         _______ _______ _______ _____ _____    ______ ____
ROOT
ATOM      1  N   UNL     1      -0.850  11.219  19.013  0.00  0.00    +0.000 NA
ATOM      2  C   UNL     1      -1.461   9.955  18.618  0.00  0.00    +0.000 C 
ENDROOT
BRANCH   1   3
ATOM      3  C   UNL     1      -1.629  12.482  19.012  0.00  0.00    +0.000 C 
ATOM      4  C   UNL     1      -0.763  13.702  19.361  0.00  0.00    +0.000 C 
BRANCH   3   5
ATOM      5  C   UNL     1      -2.955  12.349  19.844  0.00  0.00    +0.000 A 
ATOM      6  C   UNL     1      -2.818  12.675  21.215  0.00  0.00    +0.000 A 
ATOM      7  C   UNL     1      -3.911  12.980  22.016  0.00  0.00    +0.000 A 
ATOM      8  C   UNL     1      -5.186  12.939  21.477  0.00  0.00    +0.000 A 
ATOM      9  C   UNL     1      -5.400  12.518  20.162  0.00  0.00    +0.000 A 
ATOM     10  C   UNL     1      -6.721  12.514  19.683  0.00  0.00    +0.000 A 
ATOM     11  C   UNL     1      -7.021  12.095  18.394  0.00  0.00    +0.000 A 
ATOM     12  C   UNL     1      -5.995  11.661  17.575  0.00  0.00    +0.000 A 
ATOM     13  C   UNL     1      -4.668  11.695  18.032  0.00  0.00    +0.000 A 
ATOM     14  C   UNL     1      -4.299  12.154  19.326  0.00  0.00    +0.000 A 
ENDBRANCH   3   5
ENDBRANCH   1   3
BRANCH   1  15
ATOM     15  C   UNL     1       0.181  11.028  20.037  0.00  0.00    +0.000 C 
BRANCH  15  23
ATOM     16  C   UNL     1       0.171   9.099  22.359  0.00  0.00    +0.000 C 
ATOM     17  C   UNL     1       0.801   8.764  21.025  0.00  0.00    +0.000 A 
ATOM     18  C   UNL     1       1.350   7.473  20.898  0.00  0.00    +0.000 A 
ATOM     19  C   UNL     1       2.014   7.049  19.745  0.00  0.00    +0.000 A 
ATOM     20  C   UNL     1       2.201   7.992  18.738  0.00  0.00    +0.000 A 
ATOM     21  C   UNL     1       1.727   9.300  18.847  0.00  0.00    +0.000 A 
ATOM     22  C   UNL     1       2.178  10.188  17.726  0.00  0.00    +0.000 C 
ATOM     23  C   UNL     1       0.930   9.692  19.956  0.00  0.00    +0.000 A 
BRANCH  19  24
ATOM     24  C   UNL     1       2.521   5.632  19.505  0.00  0.00    +0.000 C 
ATOM     25  C   UNL     1       4.056   5.540  19.503  0.00  0.00    +0.000 C 
ATOM     26  C   UNL     1       1.984   4.721  20.632  0.00  0.00    +0.000 C 
ATOM     27  C   UNL     1       2.008   5.114  18.142  0.00  0.00    +0.000 C 
ENDBRANCH  19  24
ENDBRANCH  15  23
ENDBRANCH   1  15
TORSDOF 5
ENDMDL
MODEL 7
REMARK VINA RESULT:      -6.8      0.928      2.387
REMARK  Name = 
REMARK  12 active torsions:
REMARK  status: ('A' for Active; 'I' for Inactive)
REMARK    1  A    between atoms: C_1  and  C_2
REMARK    2  A    between atoms: C_4  and  C_5
REMARK    3  A    between atoms: C_5  and  C_6
REMARK    4  A    between atoms: C_5  and  C_7
REMARK    5  A    between atoms: C_5  and  C_8
REMARK    6  A    between atoms: C_10  and  C_11
REMARK    7  A    between atoms: C_12  and  C_13
REMARK    8  A    between atoms: C_13  and  N_14
REMARK    9  A    between atoms: N_14  and  C_15
REMARK   10  A    between atoms: N_14  and  C_16
REMARK   11  A    between atoms: C_16  and  C_17
REMARK   12  A    between atoms: C_16  and  C_18
REMARK                            x       y       z     vdW  Elec       q    Type
REMARK                         _______ _______ _______ _____ _____    ______ ____
ROOT
ATOM      1  N   UNL     1       2.649   4.201  17.961  0.00  0.00    +0.000 NA
ATOM      2  C   UNL     1       1.241   3.945  17.684  0.00  0.00    +0.000 C 
ENDROOT
BRANCH   1   3
ATOM      3  C   UNL     1       3.683   3.165  17.707  0.00  0.00    +0.000 C 
ATOM      4  C   UNL     1       3.967   2.310  18.951  0.00  0.00    +0.000 C 
BRANCH   3   5
ATOM      5  C   UNL     1       4.954   3.769  17.010  0.00  0.00    +0.000 A 
ATOM      6  C   UNL     1       4.965   3.631  15.600  0.00  0.00    +0.000 A 
ATOM      7  C   UNL     1       5.783   4.405  14.788  0.00  0.00    +0.000 A 
ATOM      8  C   UNL     1       6.643   5.326  15.362  0.00  0.00    +0.000 A 
ATOM      9  C   UNL     1       6.761   5.435  16.750  0.00  0.00    +0.000 A 
ATOM     10  C   UNL     1       7.647   6.400  17.258  0.00  0.00    +0.000 A 
ATOM     11  C   UNL     1       7.834   6.562  18.625  0.00  0.00    +0.000 A 
ATOM     12  C   UNL     1       7.141   5.742  19.497  0.00  0.00    +0.000 A 
ATOM     13  C   UNL     1       6.228   4.798  19.000  0.00  0.00    +0.000 A 
ATOM     14  C   UNL     1       5.965   4.619  17.614  0.00  0.00    +0.000 A 
ENDBRANCH   3   5
ENDBRANCH   1   3
BRANCH   1  15
ATOM     15  C   UNL     1       2.998   5.610  17.751  0.00  0.00    +0.000 C 
BRANCH  15  23
ATOM     16  C   UNL     1       2.828   8.582  17.254  0.00  0.00    +0.000 C 
ATOM     17  C   UNL     1       2.329   7.940  18.529  0.00  0.00    +0.000 A 
ATOM     18  C   UNL     1       1.729   8.799  19.470  0.00  0.00    +0.000 A 
ATOM     19  C   UNL     1       1.278   8.353  20.715  0.00  0.00    +0.000 A 
ATOM     20  C   UNL     1       1.527   7.024  21.040  0.00  0.00    +0.000 A 
ATOM     21  C   UNL     1       2.173   6.151  20.162  0.00  0.00    +0.000 A 
ATOM     22  C   UNL     1       2.483   4.818  20.775  0.00  0.00    +0.000 C 
ATOM     23  C   UNL     1       2.505   6.565  18.845  0.00  0.00    +0.000 A 
BRANCH  19  24
ATOM     24  C   UNL     1       0.516   9.209  21.720  0.00  0.00    +0.000 C 
ATOM     25  C   UNL     1       0.203  10.617  21.189  0.00  0.00    +0.000 C 
ATOM     26  C   UNL     1      -0.821   8.507  22.047  0.00  0.00    +0.000 C 
ATOM     27  C   UNL     1       1.344   9.358  23.017  0.00  0.00    +0.000 C 
ENDBRANCH  19  24
ENDBRANCH  15  23
ENDBRANCH   1  15
TORSDOF 5
ENDMDL
MODEL 8
REMARK VINA RESULT:      -6.7      3.334      8.358
REMARK  Name = 
REMARK  12 active torsions:
REMARK  status: ('A' for Active; 'I' for Inactive)
REMARK    1  A    between atoms: C_1  and  C_2
REMARK    2  A    between atoms: C_4  and  C_5
REMARK    3  A    between atoms: C_5  and  C_6
REMARK    4  A    between atoms: C_5  and  C_7
REMARK    5  A    between atoms: C_5  and  C_8
REMARK    6  A    between atoms: C_10  and  C_11
REMARK    7  A    between atoms: C_12  and  C_13
REMARK    8  A    between atoms: C_13  and  N_14
REMARK    9  A    between atoms: N_14  and  C_15
REMARK   10  A    between atoms: N_14  and  C_16
REMARK   11  A    between atoms: C_16  and  C_17
REMARK   12  A    between atoms: C_16  and  C_18
REMARK                            x       y       z     vdW  Elec       q    Type
REMARK                         _______ _______ _______ _____ _____    ______ ____
ROOT
ATOM      1  N   UNL     1       0.297   9.151  20.274  0.00  0.00    +0.000 NA
ATOM      2  C   UNL     1      -0.741   8.526  21.085  0.00  0.00    +0.000 C 
ENDROOT
BRANCH   1   3
ATOM      3  C   UNL     1       0.155  10.547  19.788  0.00  0.00    +0.000 C 
ATOM      4  C   UNL     1       0.979  11.541  20.621  0.00  0.00    +0.000 C 
BRANCH   3   5
ATOM      5  C   UNL     1      -1.351  10.942  19.581  0.00  0.00    +0.000 A 
ATOM      6  C   UNL     1      -1.878  11.779  20.595  0.00  0.00    +0.000 A 
ATOM      7  C   UNL     1      -3.034  12.526  20.410  0.00  0.00    +0.000 A 
ATOM      8  C   UNL     1      -3.722  12.438  19.212  0.00  0.00    +0.000 A 
ATOM      9  C   UNL     1      -3.318  11.549  18.212  0.00  0.00    +0.000 A 
ATOM     10  C   UNL     1      -4.059  11.524  17.019  0.00  0.00    +0.000 A 
ATOM     11  C   UNL     1      -3.733  10.659  15.983  0.00  0.00    +0.000 A 
ATOM     12  C   UNL     1      -2.664   9.797  16.142  0.00  0.00    +0.000 A 
ATOM     13  C   UNL     1      -1.895   9.838  17.316  0.00  0.00    +0.000 A 
ATOM     14  C   UNL     1      -2.157  10.732  18.390  0.00  0.00    +0.000 A 
ENDBRANCH   3   5
ENDBRANCH   1   3
BRANCH   1  15
ATOM     15  C   UNL     1       1.633   8.661  20.627  0.00  0.00    +0.000 C 
BRANCH  15  23
ATOM     16  C   UNL     1       2.485   9.508  17.858  0.00  0.00    +0.000 C 
ATOM     17  C   UNL     1       2.725   8.114  18.393  0.00  0.00    +0.000 A 
ATOM     18  C   UNL     1       3.417   7.228  17.544  0.00  0.00    +0.000 A 
ATOM     19  C   UNL     1       3.656   5.894  17.884  0.00  0.00    +0.000 A 
ATOM     20  C   UNL     1       3.097   5.433  19.072  0.00  0.00    +0.000 A 
ATOM     21  C   UNL     1       2.352   6.260  19.914  0.00  0.00    +0.000 A 
ATOM     22  C   UNL     1       1.710   5.522  21.051  0.00  0.00    +0.000 C 
ATOM     23  C   UNL     1       2.228   7.649  19.641  0.00  0.00    +0.000 A 
BRANCH  19  24
ATOM     24  C   UNL     1       4.500   4.926  17.063  0.00  0.00    +0.000 C 
ATOM     25  C   UNL     1       3.704   3.700  16.585  0.00  0.00    +0.000 C 
ATOM     26  C   UNL     1       5.032   5.672  15.819  0.00  0.00    +0.000 C 
ATOM     27  C   UNL     1       5.693   4.424  17.906  0.00  0.00    +0.000 C 
ENDBRANCH  19  24
ENDBRANCH  15  23
ENDBRANCH   1  15
TORSDOF 5
ENDMDL
MODEL 9
REMARK VINA RESULT:      -6.7      6.810     10.511
REMARK  Name = 
REMARK  12 active torsions:
REMARK  status: ('A' for Active; 'I' for Inactive)
REMARK    1  A    between atoms: C_1  and  C_2
REMARK    2  A    between atoms: C_4  and  C_5
REMARK    3  A    between atoms: C_5  and  C_6
REMARK    4  A    between atoms: C_5  and  C_7
REMARK    5  A    between atoms: C_5  and  C_8
REMARK    6  A    between atoms: C_10  and  C_11
REMARK    7  A    between atoms: C_12  and  C_13
REMARK    8  A    between atoms: C_13  and  N_14
REMARK    9  A    between atoms: N_14  and  C_15
REMARK   10  A    between atoms: N_14  and  C_16
REMARK   11  A    between atoms: C_16  and  C_17
REMARK   12  A    between atoms: C_16  and  C_18
REMARK                            x       y       z     vdW  Elec       q    Type
REMARK                         _______ _______ _______ _____ _____    ______ ____
ROOT
ATOM      1  N   UNL     1       0.105  12.240  19.396  0.00  0.00    +0.000 NA
ATOM      2  C   UNL     1       0.813  12.987  18.363  0.00  0.00    +0.000 C 
ENDROOT
BRANCH   1   3
ATOM      3  C   UNL     1      -0.703  11.041  19.058  0.00  0.00    +0.000 C 
ATOM      4  C   UNL     1       0.112   9.983  18.299  0.00  0.00    +0.000 C 
BRANCH   3   5
ATOM      5  C   UNL     1      -2.072  11.431  18.392  0.00  0.00    +0.000 A 
ATOM      6  C   UNL     1      -2.208  11.002  17.049  0.00  0.00    +0.000 A 
ATOM      7  C   UNL     1      -3.445  10.913  16.423  0.00  0.00    +0.000 A 
ATOM      8  C   UNL     1      -4.588  11.280  17.112  0.00  0.00    +0.000 A 
ATOM      9  C   UNL     1      -4.513  11.816  18.401  0.00  0.00    +0.000 A 
ATOM     10  C   UNL     1      -5.717  12.154  19.040  0.00  0.00    +0.000 A 
ATOM     11  C   UNL     1      -5.729  12.705  20.315  0.00  0.00    +0.000 A 
ATOM     12  C   UNL     1      -4.525  12.936  20.955  0.00  0.00    +0.000 A 
ATOM     13  C   UNL     1      -3.319  12.568  20.340  0.00  0.00    +0.000 A 
ATOM     14  C   UNL     1      -3.250  11.962  19.056  0.00  0.00    +0.000 A 
ENDBRANCH   3   5
ENDBRANCH   1   3
BRANCH   1  15
ATOM     15  C   UNL     1       0.820  12.269  20.675  0.00  0.00    +0.000 C 
BRANCH  15  23
ATOM     16  C   UNL     1       1.538  15.156  21.184  0.00  0.00    +0.000 C 
ATOM     17  C   UNL     1       0.410  14.458  21.909  0.00  0.00    +0.000 A 
ATOM     18  C   UNL     1      -0.333  15.241  22.814  0.00  0.00    +0.000 A 
ATOM     19  C   UNL     1      -1.364  14.713  23.595  0.00  0.00    +0.000 A 
ATOM     20  C   UNL     1      -1.578  13.341  23.518  0.00  0.00    +0.000 A 
ATOM     21  C   UNL     1      -0.825  12.516  22.680  0.00  0.00    +0.000 A 
ATOM     22  C   UNL     1      -1.112  11.057  22.874  0.00  0.00    +0.000 C 
ATOM     23  C   UNL     1       0.126  13.071  21.783  0.00  0.00    +0.000 A 
BRANCH  19  24
ATOM     24  C   UNL     1      -2.278  15.534  24.498  0.00  0.00    +0.000 C 
ATOM     25  C   UNL     1      -2.390  17.003  24.056  0.00  0.00    +0.000 C 
ATOM     26  C   UNL     1      -3.691  14.910  24.463  0.00  0.00    +0.000 C 
ATOM     27  C   UNL     1      -1.745  15.508  25.948  0.00  0.00    +0.000 C 
ENDBRANCH  19  24
ENDBRANCH  15  23
ENDBRANCH   1  15
TORSDOF 5
ENDMDL
