MODEL 1
REMARK VINA RESULT:      -7.1      0.000      0.000
REMARK  Name = 
REMARK  2 active torsions:
REMARK  status: ('A' for Active; 'I' for Inactive)
REMARK    1  A    between atoms: O_1  and  C_2
REMARK    2  A    between atoms: C_11  and  O_12
REMARK                            x       y       z     vdW  Elec       q    Type
REMARK                         _______ _______ _______ _____ _____    ______ ____
ROOT
ATOM      1  C   UNL     1       2.920   3.214  17.937  0.00  0.00    +0.000 A 
ATOM      2  C   UNL     1       2.884   2.253  18.931  0.00  0.00    +0.000 A 
ATOM      3  C   UNL     1       3.916   2.263  19.842  0.00  0.00    +0.000 A 
ATOM      4  N   UNL     1       4.937   3.147  19.811  0.00  0.00    +0.000 NA
ATOM      5  C   UNL     1       4.990   4.099  18.842  0.00  0.00    +0.000 A 
ATOM      6  C   UNL     1       3.965   4.152  17.870  0.00  0.00    +0.000 A 
ATOM      7  C   UNL     1       3.996   5.122  16.863  0.00  0.00    +0.000 A 
ATOM      8  C   UNL     1       5.030   6.041  16.805  0.00  0.00    +0.000 A 
ATOM      9  C   UNL     1       6.066   6.017  17.753  0.00  0.00    +0.000 A 
ATOM     10  C   UNL     1       7.144   6.929  17.740  0.00  0.00    +0.000 A 
ATOM     11  C   UNL     1       8.147   6.875  18.691  0.00  0.00    +0.000 A 
ATOM     12  C   UNL     1       8.052   5.897  19.649  0.00  0.00    +0.000 A 
ATOM     13  N   UNL     1       7.043   5.002  19.706  0.00  0.00    +0.000 NA
ATOM     14  C   UNL     1       6.046   5.037  18.782  0.00  0.00    +0.000 A 
ENDROOT
BRANCH   1  15
ATOM     15  O   UNL     1       1.921   3.256  16.999  0.00  0.00    +0.000 OA
ATOM     16  H   UNL     1       2.164   2.698  16.243  0.00  0.00    +0.000 HD
ENDBRANCH   1  15
BRANCH  10  17
ATOM     17  O   UNL     1       7.297   7.927  16.811  0.00  0.00    +0.000 OA
ATOM     18  H   UNL     1       6.942   7.653  15.953  0.00  0.00    +0.000 HD
ENDBRANCH  10  17
TORSDOF 2
ENDMDL
MODEL 2
REMARK VINA RESULT:      -7.0      1.883      4.885
REMARK  Name = 
REMARK  2 active torsions:
REMARK  status: ('A' for Active; 'I' for Inactive)
REMARK    1  A    between atoms: O_1  and  C_2
REMARK    2  A    between atoms: C_11  and  O_12
REMARK                            x       y       z     vdW  Elec       q    Type
REMARK                         _______ _______ _______ _____ _____    ______ ____
ROOT
ATOM      1  C   UNL     1       6.585   4.658  17.062  0.00  0.00    +0.000 A 
ATOM      2  C   UNL     1       7.502   5.271  17.896  0.00  0.00    +0.000 A 
ATOM      3  C   UNL     1       7.095   5.525  19.186  0.00  0.00    +0.000 A 
ATOM      4  N   UNL     1       5.870   5.211  19.663  0.00  0.00    +0.000 NA
ATOM      5  C   UNL     1       4.956   4.608  18.859  0.00  0.00    +0.000 A 
ATOM      6  C   UNL     1       5.301   4.314  17.521  0.00  0.00    +0.000 A 
ATOM      7  C   UNL     1       4.377   3.694  16.673  0.00  0.00    +0.000 A 
ATOM      8  C   UNL     1       3.115   3.360  17.134  0.00  0.00    +0.000 A 
ATOM      9  C   UNL     1       2.737   3.638  18.457  0.00  0.00    +0.000 A 
ATOM     10  C   UNL     1       1.463   3.321  18.978  0.00  0.00    +0.000 A 
ATOM     11  C   UNL     1       1.127   3.611  20.288  0.00  0.00    +0.000 A 
ATOM     12  C   UNL     1       2.082   4.220  21.062  0.00  0.00    +0.000 A 
ATOM     13  N   UNL     1       3.313   4.543  20.613  0.00  0.00    +0.000 NA
ATOM     14  C   UNL     1       3.667   4.268  19.330  0.00  0.00    +0.000 A 
ENDROOT
BRANCH   1  15
ATOM     15  O   UNL     1       6.930   4.378  15.764  0.00  0.00    +0.000 OA
ATOM     16  H   UNL     1       6.584   5.073  15.182  0.00  0.00    +0.000 HD
ENDBRANCH   1  15
BRANCH  10  17
ATOM     17  O   UNL     1       0.466   2.713  18.258  0.00  0.00    +0.000 OA
ATOM     18  H   UNL     1      -0.202   2.338  18.849  0.00  0.00    +0.000 HD
ENDBRANCH  10  17
TORSDOF 2
ENDMDL
MODEL 3
REMARK VINA RESULT:      -7.0      1.872      2.168
REMARK  Name = 
REMARK  2 active torsions:
REMARK  status: ('A' for Active; 'I' for Inactive)
REMARK    1  A    between atoms: O_1  and  C_2
REMARK    2  A    between atoms: C_11  and  O_12
REMARK                            x       y       z     vdW  Elec       q    Type
REMARK                         _______ _______ _______ _____ _____    ______ ____
ROOT
ATOM      1  C   UNL     1       1.465   3.223  19.063  0.00  0.00    +0.000 A 
ATOM      2  C   UNL     1       1.137   3.518  20.373  0.00  0.00    +0.000 A 
ATOM      3  C   UNL     1       2.096   4.157  21.124  0.00  0.00    +0.000 A 
ATOM      4  N   UNL     1       3.315   4.501  20.653  0.00  0.00    +0.000 NA
ATOM      5  C   UNL     1       3.656   4.219  19.368  0.00  0.00    +0.000 A 
ATOM      6  C   UNL     1       2.723   3.564  18.533  0.00  0.00    +0.000 A 
ATOM      7  C   UNL     1       3.050   3.263  17.208  0.00  0.00    +0.000 A 
ATOM      8  C   UNL     1       4.291   3.602  16.696  0.00  0.00    +0.000 A 
ATOM      9  C   UNL     1       5.244   4.253  17.497  0.00  0.00    +0.000 A 
ATOM     10  C   UNL     1       6.524   4.620  17.026  0.00  0.00    +0.000 A 
ATOM     11  C   UNL     1       7.437   5.260  17.845  0.00  0.00    +0.000 A 
ATOM     12  C   UNL     1       7.048   5.524  19.134  0.00  0.00    +0.000 A 
ATOM     13  N   UNL     1       5.837   5.194  19.632  0.00  0.00    +0.000 NA
ATOM     14  C   UNL     1       4.924   4.565  18.846  0.00  0.00    +0.000 A 
ENDROOT
BRANCH   1  15
ATOM     15  O   UNL     1       0.552   2.586  18.261  0.00  0.00    +0.000 OA
ATOM     16  H   UNL     1       1.018   2.121  17.548  0.00  0.00    +0.000 HD
ENDBRANCH   1  15
BRANCH  10  17
ATOM     17  O   UNL     1       6.973   4.385  15.751  0.00  0.00    +0.000 OA
ATOM     18  H   UNL     1       7.877   4.714  15.642  0.00  0.00    +0.000 HD
ENDBRANCH  10  17
TORSDOF 2
ENDMDL
MODEL 4
REMARK VINA RESULT:      -7.0      0.128      4.765
REMARK  Name = 
REMARK  2 active torsions:
REMARK  status: ('A' for Active; 'I' for Inactive)
REMARK    1  A    between atoms: O_1  and  C_2
REMARK    2  A    between atoms: C_11  and  O_12
REMARK                            x       y       z     vdW  Elec       q    Type
REMARK                         _______ _______ _______ _____ _____    ______ ____
ROOT
ATOM      1  C   UNL     1       7.234   6.925  17.786  0.00  0.00    +0.000 A 
ATOM      2  C   UNL     1       8.202   6.887  18.772  0.00  0.00    +0.000 A 
ATOM      3  C   UNL     1       8.076   5.906  19.728  0.00  0.00    +0.000 A 
ATOM      4  N   UNL     1       7.074   4.999  19.748  0.00  0.00    +0.000 NA
ATOM      5  C   UNL     1       6.114   5.020  18.787  0.00  0.00    +0.000 A 
ATOM      6  C   UNL     1       6.176   5.999  17.769  0.00  0.00    +0.000 A 
ATOM      7  C   UNL     1       5.200   6.041  16.769  0.00  0.00    +0.000 A 
ATOM      8  C   UNL     1       4.161   5.126  16.762  0.00  0.00    +0.000 A 
ATOM      9  C   UNL     1       4.066   4.140  17.758  0.00  0.00    +0.000 A 
ATOM     10  C   UNL     1       3.028   3.184  17.800  0.00  0.00    +0.000 A 
ATOM     11  C   UNL     1       2.968   2.227  18.797  0.00  0.00    +0.000 A 
ATOM     12  C   UNL     1       3.959   2.245  19.746  0.00  0.00    +0.000 A 
ATOM     13  N   UNL     1       4.973   3.137  19.750  0.00  0.00    +0.000 NA
ATOM     14  C   UNL     1       5.053   4.086  18.781  0.00  0.00    +0.000 A 
ENDROOT
BRANCH   1  15
ATOM     15  O   UNL     1       7.304   7.879  16.803  0.00  0.00    +0.000 OA
ATOM     16  H   UNL     1       6.633   7.695  16.127  0.00  0.00    +0.000 HD
ENDBRANCH   1  15
BRANCH  10  17
ATOM     17  O   UNL     1       2.009   3.112  16.884  0.00  0.00    +0.000 OA
ATOM     18  H   UNL     1       1.151   3.073  17.330  0.00  0.00    +0.000 HD
ENDBRANCH  10  17
TORSDOF 2
ENDMDL
MODEL 5
REMARK VINA RESULT:      -7.0      1.105      1.155
REMARK  Name = 
REMARK  2 active torsions:
REMARK  status: ('A' for Active; 'I' for Inactive)
REMARK    1  A    between atoms: O_1  and  C_2
REMARK    2  A    between atoms: C_11  and  O_12
REMARK                            x       y       z     vdW  Elec       q    Type
REMARK                         _______ _______ _______ _____ _____    ______ ____
ROOT
ATOM      1  C   UNL     1       2.632   2.441  18.267  0.00  0.00    +0.000 A 
ATOM      2  C   UNL     1       2.321   2.121  19.575  0.00  0.00    +0.000 A 
ATOM      3  C   UNL     1       3.138   2.642  20.553  0.00  0.00    +0.000 A 
ATOM      4  N   UNL     1       4.204   3.433  20.299  0.00  0.00    +0.000 NA
ATOM      5  C   UNL     1       4.525   3.759  19.019  0.00  0.00    +0.000 A 
ATOM      6  C   UNL     1       3.732   3.262  17.960  0.00  0.00    +0.000 A 
ATOM      7  C   UNL     1       4.042   3.583  16.635  0.00  0.00    +0.000 A 
ATOM      8  C   UNL     1       5.128   4.392  16.344  0.00  0.00    +0.000 A 
ATOM      9  C   UNL     1       5.938   4.903  17.370  0.00  0.00    +0.000 A 
ATOM     10  C   UNL     1       7.057   5.729  17.129  0.00  0.00    +0.000 A 
ATOM     11  C   UNL     1       7.833   6.214  18.166  0.00  0.00    +0.000 A 
ATOM     12  C   UNL     1       7.471   5.859  19.442  0.00  0.00    +0.000 A 
ATOM     13  N   UNL     1       6.411   5.072  19.725  0.00  0.00    +0.000 NA
ATOM     14  C   UNL     1       5.634   4.584  18.722  0.00  0.00    +0.000 A 
ENDROOT
BRANCH   1  15
ATOM     15  O   UNL     1       1.856   1.953  17.246  0.00  0.00    +0.000 OA
ATOM     16  H   UNL     1       2.311   2.094  16.400  0.00  0.00    +0.000 HD
ENDBRANCH   1  15
BRANCH  10  17
ATOM     17  O   UNL     1       7.472   6.121  15.881  0.00  0.00    +0.000 OA
ATOM     18  H   UNL     1       6.938   5.694  15.195  0.00  0.00    +0.000 HD
ENDBRANCH  10  17
TORSDOF 2
ENDMDL
MODEL 6
REMARK VINA RESULT:      -7.0      1.107      4.860
REMARK  Name = 
REMARK  2 active torsions:
REMARK  status: ('A' for Active; 'I' for Inactive)
REMARK    1  A    between atoms: O_1  and  C_2
REMARK    2  A    between atoms: C_11  and  O_12
REMARK                            x       y       z     vdW  Elec       q    Type
REMARK                         _______ _______ _______ _____ _____    ______ ____
ROOT
ATOM      1  C   UNL     1       7.064   5.750  17.123  0.00  0.00    +0.000 A 
ATOM      2  C   UNL     1       7.849   6.229  18.155  0.00  0.00    +0.000 A 
ATOM      3  C   UNL     1       7.490   5.859  19.431  0.00  0.00    +0.000 A 
ATOM      4  N   UNL     1       6.431   5.069  19.714  0.00  0.00    +0.000 NA
ATOM      5  C   UNL     1       5.647   4.589  18.713  0.00  0.00    +0.000 A 
ATOM      6  C   UNL     1       5.954   4.925  17.375  0.00  0.00    +0.000 A 
ATOM      7  C   UNL     1       5.162   4.444  16.328  0.00  0.00    +0.000 A 
ATOM      8  C   UNL     1       4.071   3.632  16.587  0.00  0.00    +0.000 A 
ATOM      9  C   UNL     1       3.736   3.279  17.904  0.00  0.00    +0.000 A 
ATOM     10  C   UNL     1       2.633   2.456  18.225  0.00  0.00    +0.000 A 
ATOM     11  C   UNL     1       2.335   2.130  19.535  0.00  0.00    +0.000 A 
ATOM     12  C   UNL     1       3.154   2.637  20.512  0.00  0.00    +0.000 A 
ATOM     13  N   UNL     1       4.219   3.426  20.258  0.00  0.00    +0.000 NA
ATOM     14  C   UNL     1       4.532   3.761  18.979  0.00  0.00    +0.000 A 
ENDROOT
BRANCH   1  15
ATOM     15  O   UNL     1       7.369   6.083  15.827  0.00  0.00    +0.000 OA
ATOM     16  H   UNL     1       7.228   5.312  15.255  0.00  0.00    +0.000 HD
ENDBRANCH   1  15
BRANCH  10  17
ATOM     17  O   UNL     1       1.778   1.918  17.297  0.00  0.00    +0.000 OA
ATOM     18  H   UNL     1       1.625   0.980  17.478  0.00  0.00    +0.000 HD
ENDBRANCH  10  17
TORSDOF 2
ENDMDL
MODEL 7
REMARK VINA RESULT:      -6.8      1.805      4.714
REMARK  Name = 
REMARK  2 active torsions:
REMARK  status: ('A' for Active; 'I' for Inactive)
REMARK    1  A    between atoms: O_1  and  C_2
REMARK    2  A    between atoms: C_11  and  O_12
REMARK                            x       y       z     vdW  Elec       q    Type
REMARK                         _______ _______ _______ _____ _____    ______ ____
ROOT
ATOM      1  C   UNL     1       5.649   6.075  16.616  0.00  0.00    +0.000 A 
ATOM      2  C   UNL     1       6.977   5.692  16.632  0.00  0.00    +0.000 A 
ATOM      3  C   UNL     1       7.328   4.708  17.529  0.00  0.00    +0.000 A 
ATOM      4  N   UNL     1       6.456   4.114  18.373  0.00  0.00    +0.000 NA
ATOM      5  C   UNL     1       5.146   4.478  18.371  0.00  0.00    +0.000 A 
ATOM      6  C   UNL     1       4.710   5.481  17.477  0.00  0.00    +0.000 A 
ATOM      7  C   UNL     1       3.367   5.872  17.457  0.00  0.00    +0.000 A 
ATOM      8  C   UNL     1       2.450   5.282  18.310  0.00  0.00    +0.000 A 
ATOM      9  C   UNL     1       2.849   4.283  19.212  0.00  0.00    +0.000 A 
ATOM     10  C   UNL     1       1.956   3.649  20.104  0.00  0.00    +0.000 A 
ATOM     11  C   UNL     1       2.386   2.668  20.979  0.00  0.00    +0.000 A 
ATOM     12  C   UNL     1       3.717   2.335  20.945  0.00  0.00    +0.000 A 
ATOM     13  N   UNL     1       4.610   2.909  20.112  0.00  0.00    +0.000 NA
ATOM     14  C   UNL     1       4.211   3.875  19.243  0.00  0.00    +0.000 A 
ENDROOT
BRANCH   1  15
ATOM     15  O   UNL     1       5.235   7.051  15.745  0.00  0.00    +0.000 OA
ATOM     16  H   UNL     1       4.971   6.642  14.905  0.00  0.00    +0.000 HD
ENDBRANCH   1  15
BRANCH  10  17
ATOM     17  O   UNL     1       0.617   3.937  20.188  0.00  0.00    +0.000 OA
ATOM     18  H   UNL     1       0.097   3.281  19.701  0.00  0.00    +0.000 HD
ENDBRANCH  10  17
TORSDOF 2
ENDMDL
MODEL 8
REMARK VINA RESULT:      -6.7      1.805      2.072
REMARK  Name = 
REMARK  2 active torsions:
REMARK  status: ('A' for Active; 'I' for Inactive)
REMARK    1  A    between atoms: O_1  and  C_2
REMARK    2  A    between atoms: C_11  and  O_12
REMARK                            x       y       z     vdW  Elec       q    Type
REMARK                         _______ _______ _______ _____ _____    ______ ____
ROOT
ATOM      1  C   UNL     1       1.973   3.555  20.173  0.00  0.00    +0.000 A 
ATOM      2  C   UNL     1       2.423   2.558  21.018  0.00  0.00    +0.000 A 
ATOM      3  C   UNL     1       3.759   2.238  20.944  0.00  0.00    +0.000 A 
ATOM      4  N   UNL     1       4.631   2.839  20.104  0.00  0.00    +0.000 NA
ATOM      5  C   UNL     1       4.207   3.822  19.266  0.00  0.00    +0.000 A 
ATOM      6  C   UNL     1       2.847   4.206  19.285  0.00  0.00    +0.000 A 
ATOM      7  C   UNL     1       2.387   5.215  18.433  0.00  0.00    +0.000 A 
ATOM      8  C   UNL     1       3.256   5.849  17.561  0.00  0.00    +0.000 A 
ATOM      9  C   UNL     1       4.614   5.492  17.515  0.00  0.00    +0.000 A 
ATOM     10  C   UNL     1       5.542   6.104  16.644  0.00  0.00    +0.000 A 
ATOM     11  C   UNL     1       6.872   5.726  16.627  0.00  0.00    +0.000 A 
ATOM     12  C   UNL     1       7.254   4.729  17.490  0.00  0.00    +0.000 A 
ATOM     13  N   UNL     1       6.406   4.113  18.341  0.00  0.00    +0.000 NA
ATOM     14  C   UNL     1       5.095   4.468  18.376  0.00  0.00    +0.000 A 
ENDROOT
BRANCH   1  15
ATOM     15  O   UNL     1       0.651   3.921  20.199  0.00  0.00    +0.000 OA
ATOM     16  H   UNL     1       0.576   4.839  20.505  0.00  0.00    +0.000 HD
ENDBRANCH   1  15
BRANCH  10  17
ATOM     17  O   UNL     1       5.225   7.103  15.760  0.00  0.00    +0.000 OA
ATOM     18  H   UNL     1       5.829   7.093  15.002  0.00  0.00    +0.000 HD
ENDBRANCH  10  17
TORSDOF 2
ENDMDL
MODEL 9
REMARK VINA RESULT:      -6.6      2.710      3.107
REMARK  Name = 
REMARK  2 active torsions:
REMARK  status: ('A' for Active; 'I' for Inactive)
REMARK    1  A    between atoms: O_1  and  C_2
REMARK    2  A    between atoms: C_11  and  O_12
REMARK                            x       y       z     vdW  Elec       q    Type
REMARK                         _______ _______ _______ _____ _____    ______ ____
ROOT
ATOM      1  C   UNL     1       2.172   5.230  20.578  0.00  0.00    +0.000 A 
ATOM      2  C   UNL     1       2.098   3.985  21.173  0.00  0.00    +0.000 A 
ATOM      3  C   UNL     1       2.767   2.958  20.547  0.00  0.00    +0.000 A 
ATOM      4  N   UNL     1       3.476   3.107  19.406  0.00  0.00    +0.000 NA
ATOM      5  C   UNL     1       3.560   4.325  18.807  0.00  0.00    +0.000 A 
ATOM      6  C   UNL     1       2.899   5.429  19.391  0.00  0.00    +0.000 A 
ATOM      7  C   UNL     1       2.971   6.691  18.794  0.00  0.00    +0.000 A 
ATOM      8  C   UNL     1       3.689   6.875  17.625  0.00  0.00    +0.000 A 
ATOM      9  C   UNL     1       4.357   5.801  17.016  0.00  0.00    +0.000 A 
ATOM     10  C   UNL     1       5.102   5.933  15.823  0.00  0.00    +0.000 A 
ATOM     11  C   UNL     1       5.747   4.851  15.253  0.00  0.00    +0.000 A 
ATOM     12  C   UNL     1       5.634   3.642  15.893  0.00  0.00    +0.000 A 
ATOM     13  N   UNL     1       4.935   3.463  17.034  0.00  0.00    +0.000 NA
ATOM     14  C   UNL     1       4.293   4.512  17.613  0.00  0.00    +0.000 A 
ENDROOT
BRANCH   1  15
ATOM     15  O   UNL     1       1.526   6.296  21.153  0.00  0.00    +0.000 OA
ATOM     16  H   UNL     1       0.851   6.632  20.541  0.00  0.00    +0.000 HD
ENDBRANCH   1  15
BRANCH  10  17
ATOM     17  O   UNL     1       5.254   7.110  15.136  0.00  0.00    +0.000 OA
ATOM     18  H   UNL     1       4.561   7.207  14.467  0.00  0.00    +0.000 HD
ENDBRANCH  10  17
TORSDOF 2
ENDMDL
