MODEL 1
REMARK VINA RESULT:      -8.9      0.000      0.000
REMARK  Name = 
REMARK  7 active torsions:
REMARK  status: ('A' for Active; 'I' for Inactive)
REMARK    1  A    between atoms: CD1_1  and  CG_2
REMARK    2  A    between atoms: CG_2  and  CD2_3
REMARK    3  A    between atoms: CG_2  and  CB_4
REMARK    4  A    between atoms: CB_4  and  CA_5
REMARK    5  A    between atoms: C_10  and  C_11
REMARK    6  A    between atoms: C_11  and  C_12
REMARK    7  A    between atoms: C_28  and  C_29
REMARK                            x       y       z     vdW  Elec       q    Type
REMARK                         _______ _______ _______ _____ _____    ______ ____
ROOT
ATOM      1  CA  LEU A   1       0.579  14.332  18.735  0.00  0.00    +0.000 C 
ATOM      2  N   LEU A   1       0.259  12.566  19.108  0.00  0.00    +0.000 N 
ATOM      3  C   UNK A   0       0.385  11.045  19.524  0.00  0.00    +0.000 C 
ATOM      4  O   UNK A   0      -0.750  10.530  19.552  0.00  0.00    +0.000 OA
ATOM      5  O   UNK A   0       1.525  10.011  19.880  0.00  0.00    +0.000 OA
ATOM      6  C   UNK A   0       1.249   8.407  20.577  0.00  0.00    +0.000 C 
ATOM      7  C   UNK A   0       1.301   8.724  22.062  0.00  0.00    +0.000 C 
ATOM      8  C   UNK A   0      -0.108   8.878  22.547  0.00  0.00    +0.000 C 
ATOM      9  C   UNK A   0      -0.245  10.219  23.118  0.00  0.00    +0.000 C 
ATOM     10  C   UNK A   0      -1.481  10.732  23.099  0.00  0.00    +0.000 C 
ATOM     11  C   UNK A   2      -1.477  12.109  22.671  0.00  0.00    +0.000 C 
ATOM     12  N   UNK A   2      -2.553  12.518  21.881  0.00  0.00    +0.000 N 
ATOM     13  C   UNK A   2      -2.202  13.539  21.064  0.00  0.00    +0.000 C 
ATOM     14  O   UNK A   2      -2.942  13.848  20.125  0.00  0.00    +0.000 OA
ATOM     15  C   UNK A   2      -0.856  14.294  21.354  0.00  0.00    +0.000 C 
ATOM     16  C   UNK A   2       0.768  13.848  21.585  0.00  0.00    +0.000 C 
ATOM     17  C   UNK A   2       2.146  14.631  21.078  0.00  0.00    +0.000 C 
ATOM     18  N   UNK A   2       2.644  14.810  19.685  0.00  0.00    +0.000 N 
ATOM     19  C   LEU A   1       1.996  14.600  18.511  0.00  0.00    +0.000 C 
ATOM     20  O   LEU A   1       2.510  14.807  17.423  0.00  0.00    +0.000 OA
ATOM     21  H   LEU A   1      -0.735  12.549  18.884  0.00  0.00    +0.000 HD
ATOM     22  H   UNK A   2      -3.247  11.882  21.488  0.00  0.00    +0.000 HD
ATOM     23  H   UNK A   2       3.511  15.320  19.510  0.00  0.00    +0.000 HD
ENDROOT
BRANCH  17  24
ATOM     24  C   UNK A   2       3.356  13.873  21.583  0.00  0.00    +0.000 C 
ATOM     25  O   UNK A   2       4.183  14.298  22.352  0.00  0.00    +0.000 OA
ENDBRANCH  17  24
BRANCH   1  26
ATOM     26  CB  LEU A   1       0.142  15.980  19.558  0.00  0.00    +0.000 C 
BRANCH  26  28
ATOM     27  CD1 LEU A   1      -0.124  17.942  17.758  0.00  0.00    +0.000 C 
ATOM     28  CG  LEU A   1      -0.499  17.453  19.240  0.00  0.00    +0.000 C 
ATOM     29  CD2 LEU A   1      -2.002  17.731  19.295  0.00  0.00    +0.000 C 
ENDBRANCH  26  28
ENDBRANCH   1  26
BRANCH   6  30
ATOM     30  C   UNK A   0       2.147   6.853  20.698  0.00  0.00    +0.000 C 
BRANCH  30  31
ATOM     31  C   UNK A   0       1.740   5.397  19.902  0.00  0.00    +0.000 A 
ATOM     32  C   UNK A   0       1.080   4.284  20.464  0.00  0.00    +0.000 A 
ATOM     33  C   UNK A   0       0.800   3.063  19.744  0.00  0.00    +0.000 A 
ATOM     34  C   UNK A   0       1.145   2.916  18.399  0.00  0.00    +0.000 A 
ATOM     35  C   UNK A   0       1.771   3.992  17.790  0.00  0.00    +0.000 A 
ATOM     36  C   UNK A   0       2.055   5.210  18.508  0.00  0.00    +0.000 A 
ENDBRANCH  30  31
ENDBRANCH   6  30
TORSDOF 5
ENDMDL
MODEL 2
REMARK VINA RESULT:      -8.7      0.900      1.076
REMARK  Name = 
REMARK  7 active torsions:
REMARK  status: ('A' for Active; 'I' for Inactive)
REMARK    1  A    between atoms: CD1_1  and  CG_2
REMARK    2  A    between atoms: CG_2  and  CD2_3
REMARK    3  A    between atoms: CG_2  and  CB_4
REMARK    4  A    between atoms: CB_4  and  CA_5
REMARK    5  A    between atoms: C_10  and  C_11
REMARK    6  A    between atoms: C_11  and  C_12
REMARK    7  A    between atoms: C_28  and  C_29
REMARK                            x       y       z     vdW  Elec       q    Type
REMARK                         _______ _______ _______ _____ _____    ______ ____
ROOT
ATOM      1  CA  LEU A   1       0.245  14.833  19.117  0.00  0.00    +0.000 C 
ATOM      2  N   LEU A   1       0.066  13.008  19.127  0.00  0.00    +0.000 N 
ATOM      3  C   UNK A   0       0.325  11.448  19.174  0.00  0.00    +0.000 C 
ATOM      4  O   UNK A   0      -0.769  10.852  19.239  0.00  0.00    +0.000 OA
ATOM      5  O   UNK A   0       1.551  10.454  19.134  0.00  0.00    +0.000 OA
ATOM      6  C   UNK A   0       1.457   8.722  19.488  0.00  0.00    +0.000 C 
ATOM      7  C   UNK A   0       1.715   8.718  20.985  0.00  0.00    +0.000 C 
ATOM      8  C   UNK A   0       0.388   8.655  21.677  0.00  0.00    +0.000 C 
ATOM      9  C   UNK A   0       0.276   9.828  22.546  0.00  0.00    +0.000 C 
ATOM     10  C   UNK A   0      -0.972  10.235  22.808  0.00  0.00    +0.000 C 
ATOM     11  C   UNK A   2      -1.096  11.668  22.700  0.00  0.00    +0.000 C 
ATOM     12  N   UNK A   2      -2.295  12.150  22.174  0.00  0.00    +0.000 N 
ATOM     13  C   UNK A   2      -2.118  13.347  21.565  0.00  0.00    +0.000 C 
ATOM     14  O   UNK A   2      -3.003  13.789  20.826  0.00  0.00    +0.000 OA
ATOM     15  C   UNK A   2      -0.780  14.125  21.831  0.00  0.00    +0.000 C 
ATOM     16  C   UNK A   2       0.879  13.768  21.736  0.00  0.00    +0.000 C 
ATOM     17  C   UNK A   2       2.128  14.746  21.234  0.00  0.00    +0.000 C 
ATOM     18  N   UNK A   2       2.404  15.256  19.861  0.00  0.00    +0.000 N 
ATOM     19  C   LEU A   1       1.599  15.252  18.769  0.00  0.00    +0.000 C 
ATOM     20  O   LEU A   1       1.935  15.726  17.695  0.00  0.00    +0.000 OA
ATOM     21  H   LEU A   1      -0.947  12.962  19.042  0.00  0.00    +0.000 HD
ATOM     22  H   UNK A   2      -3.010  11.560  21.747  0.00  0.00    +0.000 HD
ATOM     23  H   UNK A   2       3.210  15.858  19.689  0.00  0.00    +0.000 HD
ENDROOT
BRANCH  17  24
ATOM     24  C   UNK A   2       3.434  13.995  21.390  0.00  0.00    +0.000 C 
ATOM     25  O   UNK A   2       4.073  13.897  22.408  0.00  0.00    +0.000 OA
ENDBRANCH  17  24
BRANCH   1  26
ATOM     26  CB  LEU A   1      -0.140  16.227  20.337  0.00  0.00    +0.000 C 
BRANCH  26  28
ATOM     27  CD1 LEU A   1      -1.596  18.423  19.865  0.00  0.00    +0.000 C 
ATOM     28  CG  LEU A   1      -0.213  17.860  20.452  0.00  0.00    +0.000 C 
ATOM     29  CD2 LEU A   1      -0.111  18.600  21.787  0.00  0.00    +0.000 C 
ENDBRANCH  26  28
ENDBRANCH   1  26
BRANCH   6  30
ATOM     30  C   UNK A   0       2.435   7.253  19.137  0.00  0.00    +0.000 C 
BRANCH  30  31
ATOM     31  C   UNK A   0       1.911   5.636  19.312  0.00  0.00    +0.000 A 
ATOM     32  C   UNK A   0       1.507   5.004  20.506  0.00  0.00    +0.000 A 
ATOM     33  C   UNK A   0       1.111   3.617  20.592  0.00  0.00    +0.000 A 
ATOM     34  C   UNK A   0       1.070   2.800  19.460  0.00  0.00    +0.000 A 
ATOM     35  C   UNK A   0       1.430   3.381  18.254  0.00  0.00    +0.000 A 
ATOM     36  C   UNK A   0       1.830   4.764  18.167  0.00  0.00    +0.000 A 
ENDBRANCH  30  31
ENDBRANCH   6  30
TORSDOF 5
ENDMDL
MODEL 3
REMARK VINA RESULT:      -8.6      1.149      1.564
REMARK  Name = 
REMARK  7 active torsions:
REMARK  status: ('A' for Active; 'I' for Inactive)
REMARK    1  A    between atoms: CD1_1  and  CG_2
REMARK    2  A    between atoms: CG_2  and  CD2_3
REMARK    3  A    between atoms: CG_2  and  CB_4
REMARK    4  A    between atoms: CB_4  and  CA_5
REMARK    5  A    between atoms: C_10  and  C_11
REMARK    6  A    between atoms: C_11  and  C_12
REMARK    7  A    between atoms: C_28  and  C_29
REMARK                            x       y       z     vdW  Elec       q    Type
REMARK                         _______ _______ _______ _____ _____    ______ ____
ROOT
ATOM      1  CA  LEU A   1      -0.523  14.917  19.463  0.00  0.00    +0.000 C 
ATOM      2  N   LEU A   1      -0.534  13.083  19.443  0.00  0.00    +0.000 N 
ATOM      3  C   UNK A   0      -0.133  11.553  19.439  0.00  0.00    +0.000 C 
ATOM      4  O   UNK A   0      -1.161  10.858  19.560  0.00  0.00    +0.000 OA
ATOM      5  O   UNK A   0       1.174  10.677  19.299  0.00  0.00    +0.000 OA
ATOM      6  C   UNK A   0       1.261   8.938  19.620  0.00  0.00    +0.000 C 
ATOM      7  C   UNK A   0       1.614   8.933  21.097  0.00  0.00    +0.000 C 
ATOM      8  C   UNK A   0       0.346   8.736  21.870  0.00  0.00    +0.000 C 
ATOM      9  C   UNK A   0       0.184   9.879  22.770  0.00  0.00    +0.000 C 
ATOM     10  C   UNK A   0      -1.076  10.165  23.119  0.00  0.00    +0.000 C 
ATOM     11  C   UNK A   2      -1.336  11.583  23.052  0.00  0.00    +0.000 C 
ATOM     12  N   UNK A   2      -2.606  11.961  22.613  0.00  0.00    +0.000 N 
ATOM     13  C   UNK A   2      -2.577  13.179  22.021  0.00  0.00    +0.000 C 
ATOM     14  O   UNK A   2      -3.545  13.551  21.350  0.00  0.00    +0.000 OA
ATOM     15  C   UNK A   2      -1.302  14.072  22.220  0.00  0.00    +0.000 C 
ATOM     16  C   UNK A   2       0.374  13.871  22.012  0.00  0.00    +0.000 C 
ATOM     17  C   UNK A   2       1.493  14.969  21.455  0.00  0.00    +0.000 C 
ATOM     18  N   UNK A   2       1.633  15.525  20.079  0.00  0.00    +0.000 N 
ATOM     19  C   LEU A   1       0.763  15.464  19.040  0.00  0.00    +0.000 C 
ATOM     20  O   LEU A   1       0.984  15.985  17.958  0.00  0.00    +0.000 OA
ATOM     21  H   LEU A   1      -1.542  12.945  19.421  0.00  0.00    +0.000 HD
ATOM     22  H   UNK A   2      -3.290  11.315  22.219  0.00  0.00    +0.000 HD
ATOM     23  H   UNK A   2       2.368  16.201  19.870  0.00  0.00    +0.000 HD
ENDROOT
BRANCH  17  24
ATOM     24  C   UNK A   2       2.869  14.338  21.511  0.00  0.00    +0.000 C 
ATOM     25  O   UNK A   2       3.916  14.915  21.344  0.00  0.00    +0.000 OA
ENDBRANCH  17  24
BRANCH   1  26
ATOM     26  CB  LEU A   1      -0.953  16.249  20.736  0.00  0.00    +0.000 C 
BRANCH  26  28
ATOM     27  CD1 LEU A   1      -2.875  17.810  19.717  0.00  0.00    +0.000 C 
ATOM     28  CG  LEU A   1      -2.013  17.465  21.026  0.00  0.00    +0.000 C 
ATOM     29  CD2 LEU A   1      -3.094  17.380  22.105  0.00  0.00    +0.000 C 
ENDBRANCH  26  28
ENDBRANCH   1  26
BRANCH   6  30
ATOM     30  C   UNK A   0       2.343   7.571  19.175  0.00  0.00    +0.000 C 
BRANCH  30  31
ATOM     31  C   UNK A   0       1.930   5.914  19.215  0.00  0.00    +0.000 A 
ATOM     32  C   UNK A   0       1.910   5.022  18.123  0.00  0.00    +0.000 A 
ATOM     33  C   UNK A   0       1.511   3.636  18.219  0.00  0.00    +0.000 A 
ATOM     34  C   UNK A   0       1.141   3.068  19.439  0.00  0.00    +0.000 A 
ATOM     35  C   UNK A   0       1.171   3.895  20.551  0.00  0.00    +0.000 A 
ATOM     36  C   UNK A   0       1.565   5.279  20.457  0.00  0.00    +0.000 A 
ENDBRANCH  30  31
ENDBRANCH   6  30
TORSDOF 5
ENDMDL
MODEL 4
REMARK VINA RESULT:      -8.5      0.657      1.149
REMARK  Name = 
REMARK  7 active torsions:
REMARK  status: ('A' for Active; 'I' for Inactive)
REMARK    1  A    between atoms: CD1_1  and  CG_2
REMARK    2  A    between atoms: CG_2  and  CD2_3
REMARK    3  A    between atoms: CG_2  and  CB_4
REMARK    4  A    between atoms: CB_4  and  CA_5
REMARK    5  A    between atoms: C_10  and  C_11
REMARK    6  A    between atoms: C_11  and  C_12
REMARK    7  A    between atoms: C_28  and  C_29
REMARK                            x       y       z     vdW  Elec       q    Type
REMARK                         _______ _______ _______ _____ _____    ______ ____
ROOT
ATOM      1  CA  LEU A   1       0.801  14.474  18.720  0.00  0.00    +0.000 C 
ATOM      2  N   LEU A   1       0.341  12.743  19.111  0.00  0.00    +0.000 N 
ATOM      3  C   UNK A   0       0.343  11.225  19.557  0.00  0.00    +0.000 C 
ATOM      4  O   UNK A   0      -0.827  10.795  19.558  0.00  0.00    +0.000 OA
ATOM      5  O   UNK A   0       1.393  10.118  19.964  0.00  0.00    +0.000 OA
ATOM      6  C   UNK A   0       0.979   8.552  20.679  0.00  0.00    +0.000 C 
ATOM      7  C   UNK A   0       1.011   8.892  22.159  0.00  0.00    +0.000 C 
ATOM      8  C   UNK A   0      -0.396   9.157  22.598  0.00  0.00    +0.000 C 
ATOM      9  C   UNK A   0      -0.451  10.515  23.143  0.00  0.00    +0.000 C 
ATOM     10  C   UNK A   0      -1.645  11.116  23.077  0.00  0.00    +0.000 C 
ATOM     11  C   UNK A   2      -1.527  12.481  22.627  0.00  0.00    +0.000 C 
ATOM     12  N   UNK A   2      -2.547  12.952  21.798  0.00  0.00    +0.000 N 
ATOM     13  C   UNK A   2      -2.098  13.930  20.976  0.00  0.00    +0.000 C 
ATOM     14  O   UNK A   2      -2.785  14.274  20.009  0.00  0.00    +0.000 OA
ATOM     15  C   UNK A   2      -0.709  14.590  21.294  0.00  0.00    +0.000 C 
ATOM     16  C   UNK A   2       0.870  14.031  21.582  0.00  0.00    +0.000 C 
ATOM     17  C   UNK A   2       2.316  14.702  21.105  0.00  0.00    +0.000 C 
ATOM     18  N   UNK A   2       2.867  14.818  19.725  0.00  0.00    +0.000 N 
ATOM     19  C   LEU A   1       2.240  14.634  18.535  0.00  0.00    +0.000 C 
ATOM     20  O   LEU A   1       2.799  14.783  17.460  0.00  0.00    +0.000 OA
ATOM     21  H   LEU A   1      -0.644  12.795  18.858  0.00  0.00    +0.000 HD
ATOM     22  H   UNK A   2      -3.274  12.361  21.395  0.00  0.00    +0.000 HD
ATOM     23  H   UNK A   2       3.773  15.260  19.567  0.00  0.00    +0.000 HD
ENDROOT
BRANCH  17  24
ATOM     24  C   UNK A   2       3.452  13.867  21.658  0.00  0.00    +0.000 C 
ATOM     25  O   UNK A   2       4.076  14.105  22.663  0.00  0.00    +0.000 OA
ENDBRANCH  17  24
BRANCH   1  26
ATOM     26  CB  LEU A   1       0.462  16.164  19.502  0.00  0.00    +0.000 C 
BRANCH  26  28
ATOM     27  CD1 LEU A   1       0.675  18.271  17.865  0.00  0.00    +0.000 C 
ATOM     28  CG  LEU A   1      -0.082  17.668  19.145  0.00  0.00    +0.000 C 
ATOM     29  CD2 LEU A   1      -1.546  17.961  18.815  0.00  0.00    +0.000 C 
ENDBRANCH  26  28
ENDBRANCH   1  26
BRANCH   6  30
ATOM     30  C   UNK A   0       1.757   6.938  20.852  0.00  0.00    +0.000 C 
BRANCH  30  31
ATOM     31  C   UNK A   0       2.299   5.946  19.572  0.00  0.00    +0.000 A 
ATOM     32  C   UNK A   0       3.277   6.270  18.608  0.00  0.00    +0.000 A 
ATOM     33  C   UNK A   0       3.662   5.396  17.523  0.00  0.00    +0.000 A 
ATOM     34  C   UNK A   0       3.098   4.128  17.375  0.00  0.00    +0.000 A 
ATOM     35  C   UNK A   0       2.151   3.748  18.313  0.00  0.00    +0.000 A 
ATOM     36  C   UNK A   0       1.762   4.620  19.394  0.00  0.00    +0.000 A 
ENDBRANCH  30  31
ENDBRANCH   6  30
TORSDOF 5
ENDMDL
MODEL 5
REMARK VINA RESULT:      -8.5      1.329      1.625
REMARK  Name = 
REMARK  7 active torsions:
REMARK  status: ('A' for Active; 'I' for Inactive)
REMARK    1  A    between atoms: CD1_1  and  CG_2
REMARK    2  A    between atoms: CG_2  and  CD2_3
REMARK    3  A    between atoms: CG_2  and  CB_4
REMARK    4  A    between atoms: CB_4  and  CA_5
REMARK    5  A    between atoms: C_10  and  C_11
REMARK    6  A    between atoms: C_11  and  C_12
REMARK    7  A    between atoms: C_28  and  C_29
REMARK                            x       y       z     vdW  Elec       q    Type
REMARK                         _______ _______ _______ _____ _____    ______ ____
ROOT
ATOM      1  CA  LEU A   1      -0.748  14.785  19.569  0.00  0.00    +0.000 C 
ATOM      2  N   LEU A   1      -0.697  12.954  19.500  0.00  0.00    +0.000 N 
ATOM      3  C   UNK A   0      -0.245  11.439  19.429  0.00  0.00    +0.000 C 
ATOM      4  O   UNK A   0      -1.240  10.705  19.592  0.00  0.00    +0.000 OA
ATOM      5  O   UNK A   0       1.080  10.615  19.188  0.00  0.00    +0.000 OA
ATOM      6  C   UNK A   0       1.246   8.873  19.454  0.00  0.00    +0.000 C 
ATOM      7  C   UNK A   0       1.687   8.842  20.907  0.00  0.00    +0.000 C 
ATOM      8  C   UNK A   0       0.476   8.581  21.749  0.00  0.00    +0.000 C 
ATOM      9  C   UNK A   0       0.330   9.694  22.688  0.00  0.00    +0.000 C 
ATOM     10  C   UNK A   0      -0.916   9.926  23.119  0.00  0.00    +0.000 C 
ATOM     11  C   UNK A   2      -1.228  11.334  23.107  0.00  0.00    +0.000 C 
ATOM     12  N   UNK A   2      -2.534  11.678  22.755  0.00  0.00    +0.000 N 
ATOM     13  C   UNK A   2      -2.583  12.911  22.196  0.00  0.00    +0.000 C 
ATOM     14  O   UNK A   2      -3.602  13.264  21.594  0.00  0.00    +0.000 OA
ATOM     15  C   UNK A   2      -1.329  13.844  22.343  0.00  0.00    +0.000 C 
ATOM     16  C   UNK A   2       0.336  13.708  22.030  0.00  0.00    +0.000 C 
ATOM     17  C   UNK A   2       1.382  14.859  21.438  0.00  0.00    +0.000 C 
ATOM     18  N   UNK A   2       1.419  15.454  20.072  0.00  0.00    +0.000 N 
ATOM     19  C   LEU A   1       0.490  15.389  19.085  0.00  0.00    +0.000 C 
ATOM     20  O   LEU A   1       0.627  15.945  18.006  0.00  0.00    +0.000 OA
ATOM     21  H   LEU A   1      -1.700  12.781  19.534  0.00  0.00    +0.000 HD
ATOM     22  H   UNK A   2      -3.218  11.018  22.385  0.00  0.00    +0.000 HD
ATOM     23  H   UNK A   2       2.116  16.162  19.838  0.00  0.00    +0.000 HD
ENDROOT
BRANCH  17  24
ATOM     24  C   UNK A   2       2.780  14.277  21.394  0.00  0.00    +0.000 C 
ATOM     25  O   UNK A   2       3.526  14.166  22.336  0.00  0.00    +0.000 OA
ENDBRANCH  17  24
BRANCH   1  26
ATOM     26  CB  LEU A   1      -1.146  16.069  20.901  0.00  0.00    +0.000 C 
BRANCH  26  28
ATOM     27  CD1 LEU A   1      -2.241  17.491  22.887  0.00  0.00    +0.000 C 
ATOM     28  CG  LEU A   1      -2.248  17.212  21.307  0.00  0.00    +0.000 C 
ATOM     29  CD2 LEU A   1      -2.217  18.630  20.734  0.00  0.00    +0.000 C 
ENDBRANCH  26  28
ENDBRANCH   1  26
BRANCH   6  30
ATOM     30  C   UNK A   0       2.345   7.557  18.909  0.00  0.00    +0.000 C 
BRANCH  30  31
ATOM     31  C   UNK A   0       2.084   5.882  19.120  0.00  0.00    +0.000 A 
ATOM     32  C   UNK A   0       1.826   5.214  20.336  0.00  0.00    +0.000 A 
ATOM     33  C   UNK A   0       1.653   3.784  20.451  0.00  0.00    +0.000 A 
ATOM     34  C   UNK A   0       1.699   2.953  19.331  0.00  0.00    +0.000 A 
ATOM     35  C   UNK A   0       1.922   3.562  18.106  0.00  0.00    +0.000 A 
ATOM     36  C   UNK A   0       2.099   4.989  17.989  0.00  0.00    +0.000 A 
ENDBRANCH  30  31
ENDBRANCH   6  30
TORSDOF 5
ENDMDL
MODEL 6
REMARK VINA RESULT:      -8.5      2.615      5.323
REMARK  Name = 
REMARK  7 active torsions:
REMARK  status: ('A' for Active; 'I' for Inactive)
REMARK    1  A    between atoms: CD1_1  and  CG_2
REMARK    2  A    between atoms: CG_2  and  CD2_3
REMARK    3  A    between atoms: CG_2  and  CB_4
REMARK    4  A    between atoms: CB_4  and  CA_5
REMARK    5  A    between atoms: C_10  and  C_11
REMARK    6  A    between atoms: C_11  and  C_12
REMARK    7  A    between atoms: C_28  and  C_29
REMARK                            x       y       z     vdW  Elec       q    Type
REMARK                         _______ _______ _______ _____ _____    ______ ____
ROOT
ATOM      1  CA  LEU A   1      -2.295  13.256  23.593  0.00  0.00    +0.000 C 
ATOM      2  N   LEU A   1      -0.915  12.536  22.623  0.00  0.00    +0.000 N 
ATOM      3  C   UNK A   0      -0.035  11.749  21.569  0.00  0.00    +0.000 C 
ATOM      4  O   UNK A   0       1.162  12.064  21.717  0.00  0.00    +0.000 OA
ATOM      5  O   UNK A   0      -0.242  10.679  20.427  0.00  0.00    +0.000 OA
ATOM      6  C   UNK A   0       0.992  10.217  19.244  0.00  0.00    +0.000 C 
ATOM      7  C   UNK A   0       0.716  11.215  18.132  0.00  0.00    +0.000 C 
ATOM      8  C   UNK A   0       1.678  12.352  18.287  0.00  0.00    +0.000 C 
ATOM      9  C   UNK A   0       0.902  13.583  18.446  0.00  0.00    +0.000 C 
ATOM     10  C   UNK A   0       1.512  14.568  19.117  0.00  0.00    +0.000 C 
ATOM     11  C   UNK A   2       0.626  15.187  20.072  0.00  0.00    +0.000 C 
ATOM     12  N   UNK A   2       1.198  15.590  21.279  0.00  0.00    +0.000 N 
ATOM     13  C   UNK A   2       0.287  15.580  22.281  0.00  0.00    +0.000 C 
ATOM     14  O   UNK A   2       0.671  15.653  23.453  0.00  0.00    +0.000 OA
ATOM     15  C   UNK A   2      -1.233  15.478  21.902  0.00  0.00    +0.000 C 
ATOM     16  C   UNK A   2      -2.186  14.440  20.950  0.00  0.00    +0.000 C 
ATOM     17  C   UNK A   2      -3.732  13.893  21.234  0.00  0.00    +0.000 C 
ATOM     18  N   UNK A   2      -4.197  12.955  22.294  0.00  0.00    +0.000 N 
ATOM     19  C   LEU A   1      -3.543  12.523  23.402  0.00  0.00    +0.000 C 
ATOM     20  O   LEU A   1      -4.045  11.765  24.217  0.00  0.00    +0.000 OA
ATOM     21  H   LEU A   1      -0.143  12.943  23.147  0.00  0.00    +0.000 HD
ATOM     22  H   UNK A   2       2.147  15.353  21.569  0.00  0.00    +0.000 HD
ATOM     23  H   UNK A   2      -5.184  12.702  22.361  0.00  0.00    +0.000 HD
ENDROOT
BRANCH  17  24
ATOM     24  C   UNK A   2      -4.174  13.040  20.063  0.00  0.00    +0.000 C 
ATOM     25  O   UNK A   2      -3.500  12.211  19.503  0.00  0.00    +0.000 OA
ENDBRANCH  17  24
BRANCH   1  26
ATOM     26  CB  LEU A   1      -3.047  14.983  23.781  0.00  0.00    +0.000 C 
BRANCH  26  28
ATOM     27  CD1 LEU A   1      -3.672  17.295  24.975  0.00  0.00    +0.000 C 
ATOM     28  CG  LEU A   1      -4.180  15.814  24.623  0.00  0.00    +0.000 C 
ATOM     29  CD2 LEU A   1      -5.584  16.081  24.078  0.00  0.00    +0.000 C 
ENDBRANCH  26  28
ENDBRANCH   1  26
BRANCH   6  30
ATOM     30  C   UNK A   0       1.312   8.823  18.152  0.00  0.00    +0.000 C 
BRANCH  30  31
ATOM     31  C   UNK A   0       2.456   7.583  18.421  0.00  0.00    +0.000 A 
ATOM     32  C   UNK A   0       2.457   6.649  19.479  0.00  0.00    +0.000 A 
ATOM     33  C   UNK A   0       3.481   5.648  19.671  0.00  0.00    +0.000 A 
ATOM     34  C   UNK A   0       4.547   5.517  18.779  0.00  0.00    +0.000 A 
ATOM     35  C   UNK A   0       4.579   6.393  17.706  0.00  0.00    +0.000 A 
ATOM     36  C   UNK A   0       3.560   7.396  17.514  0.00  0.00    +0.000 A 
ENDBRANCH  30  31
ENDBRANCH   6  30
TORSDOF 5
ENDMDL
MODEL 7
REMARK VINA RESULT:      -8.3      2.525      5.226
REMARK  Name = 
REMARK  7 active torsions:
REMARK  status: ('A' for Active; 'I' for Inactive)
REMARK    1  A    between atoms: CD1_1  and  CG_2
REMARK    2  A    between atoms: CG_2  and  CD2_3
REMARK    3  A    between atoms: CG_2  and  CB_4
REMARK    4  A    between atoms: CB_4  and  CA_5
REMARK    5  A    between atoms: C_10  and  C_11
REMARK    6  A    between atoms: C_11  and  C_12
REMARK    7  A    between atoms: C_28  and  C_29
REMARK                            x       y       z     vdW  Elec       q    Type
REMARK                         _______ _______ _______ _____ _____    ______ ____
ROOT
ATOM      1  CA  LEU A   1      -1.824  13.084  22.984  0.00  0.00    +0.000 C 
ATOM      2  N   LEU A   1      -0.461  12.132  22.211  0.00  0.00    +0.000 N 
ATOM      3  C   UNK A   0       0.402  11.129  21.343  0.00  0.00    +0.000 C 
ATOM      4  O   UNK A   0       1.611  11.395  21.489  0.00  0.00    +0.000 OA
ATOM      5  O   UNK A   0       0.166   9.895  20.387  0.00  0.00    +0.000 OA
ATOM      6  C   UNK A   0       1.407   9.169  19.354  0.00  0.00    +0.000 C 
ATOM      7  C   UNK A   0       1.233   9.979  18.080  0.00  0.00    +0.000 C 
ATOM      8  C   UNK A   0       2.261  11.068  18.086  0.00  0.00    +0.000 C 
ATOM      9  C   UNK A   0       1.560  12.351  18.002  0.00  0.00    +0.000 C 
ATOM     10  C   UNK A   0       2.209  13.398  18.525  0.00  0.00    +0.000 C 
ATOM     11  C   UNK A   2       1.332  14.220  19.323  0.00  0.00    +0.000 C 
ATOM     12  N   UNK A   2       1.887  14.788  20.470  0.00  0.00    +0.000 N 
ATOM     13  C   UNK A   2       0.944  15.001  21.418  0.00  0.00    +0.000 C 
ATOM     14  O   UNK A   2       1.292  15.249  22.577  0.00  0.00    +0.000 OA
ATOM     15  C   UNK A   2      -0.566  14.923  20.994  0.00  0.00    +0.000 C 
ATOM     16  C   UNK A   2      -1.551  13.795  20.188  0.00  0.00    +0.000 C 
ATOM     17  C   UNK A   2      -3.137  13.394  20.491  0.00  0.00    +0.000 C 
ATOM     18  N   UNK A   2      -3.697  12.677  21.671  0.00  0.00    +0.000 N 
ATOM     19  C   LEU A   1      -3.109  12.402  22.863  0.00  0.00    +0.000 C 
ATOM     20  O   LEU A   1      -3.687  11.823  23.770  0.00  0.00    +0.000 OA
ATOM     21  H   LEU A   1       0.317  12.578  22.692  0.00  0.00    +0.000 HD
ATOM     22  H   UNK A   2       2.809  14.550  20.837  0.00  0.00    +0.000 HD
ATOM     23  H   UNK A   2      -4.700  12.496  21.736  0.00  0.00    +0.000 HD
ENDROOT
BRANCH  17  24
ATOM     24  C   UNK A   2      -3.592  12.381  19.460  0.00  0.00    +0.000 C 
ATOM     25  O   UNK A   2      -4.680  12.346  18.940  0.00  0.00    +0.000 OA
ENDBRANCH  17  24
BRANCH   1  26
ATOM     26  CB  LEU A   1      -2.470  14.858  22.848  0.00  0.00    +0.000 C 
BRANCH  26  28
ATOM     27  CD1 LEU A   1      -4.945  15.832  23.146  0.00  0.00    +0.000 C 
ATOM     28  CG  LEU A   1      -3.416  15.951  23.618  0.00  0.00    +0.000 C 
ATOM     29  CD2 LEU A   1      -3.556  15.997  25.140  0.00  0.00    +0.000 C 
ENDBRANCH  26  28
ENDBRANCH   1  26
BRANCH   6  30
ATOM     30  C   UNK A   0       1.674   7.594  18.526  0.00  0.00    +0.000 C 
BRANCH  30  31
ATOM     31  C   UNK A   0       3.174   6.794  18.355  0.00  0.00    +0.000 A 
ATOM     32  C   UNK A   0       4.143   7.020  17.355  0.00  0.00    +0.000 A 
ATOM     33  C   UNK A   0       5.378   6.278  17.244  0.00  0.00    +0.000 A 
ATOM     34  C   UNK A   0       5.716   5.286  18.166  0.00  0.00    +0.000 A 
ATOM     35  C   UNK A   0       4.811   5.043  19.187  0.00  0.00    +0.000 A 
ATOM     36  C   UNK A   0       3.575   5.779  19.297  0.00  0.00    +0.000 A 
ENDBRANCH  30  31
ENDBRANCH   6  30
TORSDOF 5
ENDMDL
MODEL 8
REMARK VINA RESULT:      -8.3      1.154      1.566
REMARK  Name = 
REMARK  7 active torsions:
REMARK  status: ('A' for Active; 'I' for Inactive)
REMARK    1  A    between atoms: CD1_1  and  CG_2
REMARK    2  A    between atoms: CG_2  and  CD2_3
REMARK    3  A    between atoms: CG_2  and  CB_4
REMARK    4  A    between atoms: CB_4  and  CA_5
REMARK    5  A    between atoms: C_10  and  C_11
REMARK    6  A    between atoms: C_11  and  C_12
REMARK    7  A    between atoms: C_28  and  C_29
REMARK                            x       y       z     vdW  Elec       q    Type
REMARK                         _______ _______ _______ _____ _____    ______ ____
ROOT
ATOM      1  CA  LEU A   1       0.762  14.681  18.888  0.00  0.00    +0.000 C 
ATOM      2  N   LEU A   1       0.343  12.912  19.130  0.00  0.00    +0.000 N 
ATOM      3  C   UNK A   0       0.387  11.357  19.417  0.00  0.00    +0.000 C 
ATOM      4  O   UNK A   0      -0.778  10.912  19.448  0.00  0.00    +0.000 OA
ATOM      5  O   UNK A   0       1.469  10.230  19.644  0.00  0.00    +0.000 OA
ATOM      6  C   UNK A   0       1.116   8.594  20.220  0.00  0.00    +0.000 C 
ATOM      7  C   UNK A   0       1.238   8.783  21.723  0.00  0.00    +0.000 C 
ATOM      8  C   UNK A   0      -0.140   8.982  22.273  0.00  0.00    +0.000 C 
ATOM      9  C   UNK A   0      -0.172  10.277  22.955  0.00  0.00    +0.000 C 
ATOM     10  C   UNK A   0      -1.373  10.864  23.025  0.00  0.00    +0.000 C 
ATOM     11  C   UNK A   2      -1.296  12.269  22.710  0.00  0.00    +0.000 C 
ATOM     12  N   UNK A   2      -2.370  12.806  21.998  0.00  0.00    +0.000 N 
ATOM     13  C   UNK A   2      -1.982  13.868  21.253  0.00  0.00    +0.000 C 
ATOM     14  O   UNK A   2      -2.733  14.297  20.371  0.00  0.00    +0.000 OA
ATOM     15  C   UNK A   2      -0.582  14.513  21.550  0.00  0.00    +0.000 C 
ATOM     16  C   UNK A   2       1.017  13.952  21.680  0.00  0.00    +0.000 C 
ATOM     17  C   UNK A   2       2.424  14.689  21.184  0.00  0.00    +0.000 C 
ATOM     18  N   UNK A   2       2.885  14.952  19.792  0.00  0.00    +0.000 N 
ATOM     19  C   LEU A   1       2.185  14.879  18.631  0.00  0.00    +0.000 C 
ATOM     20  O   LEU A   1       2.674  15.144  17.544  0.00  0.00    +0.000 OA
ATOM     21  H   LEU A   1      -0.656  12.974  18.944  0.00  0.00    +0.000 HD
ATOM     22  H   UNK A   2      -3.116  12.248  21.583  0.00  0.00    +0.000 HD
ATOM     23  H   UNK A   2       3.776  15.421  19.624  0.00  0.00    +0.000 HD
ENDROOT
BRANCH  17  24
ATOM     24  C   UNK A   2       3.600  13.819  21.579  0.00  0.00    +0.000 C 
ATOM     25  O   UNK A   2       4.318  13.996  22.532  0.00  0.00    +0.000 OA
ENDBRANCH  17  24
BRANCH   1  26
ATOM     26  CB  LEU A   1       0.460  16.278  19.857  0.00  0.00    +0.000 C 
BRANCH  26  28
ATOM     27  CD1 LEU A   1      -1.146  17.877  18.433  0.00  0.00    +0.000 C 
ATOM     28  CG  LEU A   1      -0.172  17.782  19.705  0.00  0.00    +0.000 C 
ATOM     29  CD2 LEU A   1      -1.013  18.440  20.799  0.00  0.00    +0.000 C 
ENDBRANCH  26  28
ENDBRANCH   1  26
BRANCH   6  30
ATOM     30  C   UNK A   0       1.917   6.983  20.180  0.00  0.00    +0.000 C 
BRANCH  30  31
ATOM     31  C   UNK A   0       2.865   6.368  18.899  0.00  0.00    +0.000 A 
ATOM     32  C   UNK A   0       3.029   5.013  18.545  0.00  0.00    +0.000 A 
ATOM     33  C   UNK A   0       3.880   4.556  17.470  0.00  0.00    +0.000 A 
ATOM     34  C   UNK A   0       4.588   5.455  16.670  0.00  0.00    +0.000 A 
ATOM     35  C   UNK A   0       4.439   6.803  16.957  0.00  0.00    +0.000 A 
ATOM     36  C   UNK A   0       3.593   7.261  18.033  0.00  0.00    +0.000 A 
ENDBRANCH  30  31
ENDBRANCH   6  30
TORSDOF 5
ENDMDL
MODEL 9
REMARK VINA RESULT:      -8.2      2.269      4.930
REMARK  Name = 
REMARK  7 active torsions:
REMARK  status: ('A' for Active; 'I' for Inactive)
REMARK    1  A    between atoms: CD1_1  and  CG_2
REMARK    2  A    between atoms: CG_2  and  CD2_3
REMARK    3  A    between atoms: CG_2  and  CB_4
REMARK    4  A    between atoms: CB_4  and  CA_5
REMARK    5  A    between atoms: C_10  and  C_11
REMARK    6  A    between atoms: C_11  and  C_12
REMARK    7  A    between atoms: C_28  and  C_29
REMARK                            x       y       z     vdW  Elec       q    Type
REMARK                         _______ _______ _______ _____ _____    ______ ____
ROOT
ATOM      1  CA  LEU A   1      -1.670  12.916  23.006  0.00  0.00    +0.000 C 
ATOM      2  N   LEU A   1      -0.326  11.939  22.231  0.00  0.00    +0.000 N 
ATOM      3  C   UNK A   0       0.517  10.923  21.359  0.00  0.00    +0.000 C 
ATOM      4  O   UNK A   0       1.732  11.159  21.512  0.00  0.00    +0.000 OA
ATOM      5  O   UNK A   0       0.257   9.702  20.393  0.00  0.00    +0.000 OA
ATOM      6  C   UNK A   0       1.485   8.955  19.358  0.00  0.00    +0.000 C 
ATOM      7  C   UNK A   0       1.336   9.778  18.091  0.00  0.00    +0.000 C 
ATOM      8  C   UNK A   0       2.389  10.843  18.109  0.00  0.00    +0.000 C 
ATOM      9  C   UNK A   0       1.719  12.143  18.032  0.00  0.00    +0.000 C 
ATOM     10  C   UNK A   0       2.389  13.171  18.566  0.00  0.00    +0.000 C 
ATOM     11  C   UNK A   2       1.529  14.006  19.367  0.00  0.00    +0.000 C 
ATOM     12  N   UNK A   2       2.092  14.552  20.521  0.00  0.00    +0.000 N 
ATOM     13  C   UNK A   2       1.149  14.780  21.467  0.00  0.00    +0.000 C 
ATOM     14  O   UNK A   2       1.498  15.011  22.629  0.00  0.00    +0.000 OA
ATOM     15  C   UNK A   2      -0.360  14.740  21.036  0.00  0.00    +0.000 C 
ATOM     16  C   UNK A   2      -1.367  13.643  20.217  0.00  0.00    +0.000 C 
ATOM     17  C   UNK A   2      -2.964  13.276  20.509  0.00  0.00    +0.000 C 
ATOM     18  N   UNK A   2      -3.545  12.564  21.682  0.00  0.00    +0.000 N 
ATOM     19  C   LEU A   1      -2.970  12.266  22.875  0.00  0.00    +0.000 C 
ATOM     20  O   LEU A   1      -3.564  11.694  23.774  0.00  0.00    +0.000 OA
ATOM     21  H   LEU A   1       0.461  12.362  22.719  0.00  0.00    +0.000 HD
ATOM     22  H   UNK A   2       3.006  14.290  20.890  0.00  0.00    +0.000 HD
ATOM     23  H   UNK A   2      -4.552  12.406  21.741  0.00  0.00    +0.000 HD
ENDROOT
BRANCH  17  24
ATOM     24  C   UNK A   2      -3.438  12.282  19.469  0.00  0.00    +0.000 C 
ATOM     25  O   UNK A   2      -2.779  11.853  18.554  0.00  0.00    +0.000 OA
ENDBRANCH  17  24
BRANCH   1  26
ATOM     26  CB  LEU A   1      -2.273  14.706  22.881  0.00  0.00    +0.000 C 
BRANCH  26  28
ATOM     27  CD1 LEU A   1      -4.735  15.400  23.668  0.00  0.00    +0.000 C 
ATOM     28  CG  LEU A   1      -3.186  15.819  23.662  0.00  0.00    +0.000 C 
ATOM     29  CD2 LEU A   1      -2.955  16.199  25.125  0.00  0.00    +0.000 C 
ENDBRANCH  26  28
ENDBRANCH   1  26
BRANCH   6  30
ATOM     30  C   UNK A   0       1.719   7.380  18.519  0.00  0.00    +0.000 C 
BRANCH  30  31
ATOM     31  C   UNK A   0       2.260   5.931  19.244  0.00  0.00    +0.000 A 
ATOM     32  C   UNK A   0       3.387   5.169  18.871  0.00  0.00    +0.000 A 
ATOM     33  C   UNK A   0       3.767   3.927  19.503  0.00  0.00    +0.000 A 
ATOM     34  C   UNK A   0       3.041   3.403  20.574  0.00  0.00    +0.000 A 
ATOM     35  C   UNK A   0       1.938   4.127  20.999  0.00  0.00    +0.000 A 
ATOM     36  C   UNK A   0       1.555   5.366  20.367  0.00  0.00    +0.000 A 
ENDBRANCH  30  31
ENDBRANCH   6  30
TORSDOF 5
ENDMDL
