MODEL 1
REMARK VINA RESULT:      -7.8      0.000      0.000
REMARK  Name = 
REMARK  2 active torsions:
REMARK  status: ('A' for Active; 'I' for Inactive)
REMARK    1  A    between atoms: C_1  and  C_2
REMARK    2  A    between atoms: C_3  and  C_4
REMARK                            x       y       z     vdW  Elec       q    Type
REMARK                         _______ _______ _______ _____ _____    ______ ____
ROOT
ATOM      1  C   UNL     1       3.530   5.303  17.980  0.00  0.00    +0.000 C 
ATOM      2  O   UNL     1       2.766   6.280  17.931  0.00  0.00    +0.000 OA
ATOM      3  N   UNL     1       4.866   5.477  17.612  0.00  0.00    +0.000 N 
ATOM      4  C   UNL     1       5.177   6.832  17.081  0.00  0.00    +0.000 C 
ATOM      5  C   UNL     1       5.083   6.580  15.578  0.00  0.00    +0.000 C 
ATOM      6  C   UNL     1       5.687   5.184  15.397  0.00  0.00    +0.000 C 
ATOM      7  C   UNL     1       5.626   4.511  16.796  0.00  0.00    +0.000 C 
ATOM      8  C   UNL     1       7.055   4.236  17.329  0.00  0.00    +0.000 C 
ATOM      9  C   UNL     1       7.641   5.417  18.061  0.00  0.00    +0.000 C 
ATOM     10  O   UNL     1       7.954   5.390  19.245  0.00  0.00    +0.000 OA
ATOM     11  N   UNL     1       7.688   6.568  17.297  0.00  0.00    +0.000 N 
ATOM     12  C   UNL     1       6.550   7.442  17.495  0.00  0.00    +0.000 C 
ATOM     13  H   UNL     1       7.915   6.426  16.324  0.00  0.00    +0.000 HD
ENDROOT
BRANCH   1  16
ATOM     14  C   UNL     1       4.353   2.442  19.880  0.00  0.00    +0.000 C 
ATOM     15  C   UNL     1       3.159   2.897  19.130  0.00  0.00    +0.000 C 
ATOM     16  C   UNL     1       2.885   4.005  18.407  0.00  0.00    +0.000 C 
ATOM     17  C   UNL     1       1.433   3.926  17.937  0.00  0.00    +0.000 C 
ATOM     18  C   UNL     1       0.808   2.804  18.746  0.00  0.00    +0.000 C 
ATOM     19  C   UNL     1       1.978   1.956  19.200  0.00  0.00    +0.000 C 
ENDBRANCH   1  16
TORSDOF 1
ENDMDL
MODEL 2
REMARK VINA RESULT:      -7.8      3.080      5.380
REMARK  Name = 
REMARK  2 active torsions:
REMARK  status: ('A' for Active; 'I' for Inactive)
REMARK    1  A    between atoms: C_1  and  C_2
REMARK    2  A    between atoms: C_3  and  C_4
REMARK                            x       y       z     vdW  Elec       q    Type
REMARK                         _______ _______ _______ _____ _____    ______ ____
ROOT
ATOM      1  C   UNL     1       3.249   6.299  18.751  0.00  0.00    +0.000 C 
ATOM      2  O   UNL     1       4.358   6.455  18.216  0.00  0.00    +0.000 OA
ATOM      3  N   UNL     1       2.875   5.015  19.156  0.00  0.00    +0.000 N 
ATOM      4  C   UNL     1       3.842   3.952  18.771  0.00  0.00    +0.000 C 
ATOM      5  C   UNL     1       3.204   3.435  17.484  0.00  0.00    +0.000 C 
ATOM      6  C   UNL     1       1.701   3.473  17.774  0.00  0.00    +0.000 C 
ATOM      7  C   UNL     1       1.524   4.456  18.965  0.00  0.00    +0.000 C 
ATOM      8  C   UNL     1       0.979   3.708  20.209  0.00  0.00    +0.000 C 
ATOM      9  C   UNL     1       2.073   3.092  21.042  0.00  0.00    +0.000 C 
ATOM     10  O   UNL     1       2.297   3.409  22.204  0.00  0.00    +0.000 OA
ATOM     11  N   UNL     1       2.872   2.212  20.336  0.00  0.00    +0.000 N 
ATOM     12  C   UNL     1       4.079   2.818  19.812  0.00  0.00    +0.000 C 
ATOM     13  H   UNL     1       2.386   1.644  19.658  0.00  0.00    +0.000 HD
ENDROOT
BRANCH   1  16
ATOM     14  C   UNL     1       1.263   7.941  21.166  0.00  0.00    +0.000 C 
ATOM     15  C   UNL     1       1.644   8.212  19.760  0.00  0.00    +0.000 C 
ATOM     16  C   UNL     1       2.408   7.549  18.863  0.00  0.00    +0.000 C 
ATOM     17  C   UNL     1       2.482   8.384  17.585  0.00  0.00    +0.000 C 
ATOM     18  C   UNL     1       1.944   9.751  17.965  0.00  0.00    +0.000 C 
ATOM     19  C   UNL     1       1.103   9.506  19.201  0.00  0.00    +0.000 C 
ENDBRANCH   1  16
TORSDOF 1
ENDMDL
MODEL 3
REMARK VINA RESULT:      -7.8      1.082      1.339
REMARK  Name = 
REMARK  2 active torsions:
REMARK  status: ('A' for Active; 'I' for Inactive)
REMARK    1  A    between atoms: C_1  and  C_2
REMARK    2  A    between atoms: C_3  and  C_4
REMARK                            x       y       z     vdW  Elec       q    Type
REMARK                         _______ _______ _______ _____ _____    ______ ____
ROOT
ATOM      1  C   UNL     1       3.371   6.008  18.198  0.00  0.00    +0.000 C 
ATOM      2  O   UNL     1       2.809   7.092  17.975  0.00  0.00    +0.000 OA
ATOM      3  N   UNL     1       4.710   5.859  17.831  0.00  0.00    +0.000 N 
ATOM      4  C   UNL     1       5.268   7.021  17.089  0.00  0.00    +0.000 C 
ATOM      5  C   UNL     1       5.106   6.546  15.646  0.00  0.00    +0.000 C 
ATOM      6  C   UNL     1       5.428   5.050  15.710  0.00  0.00    +0.000 C 
ATOM      7  C   UNL     1       5.258   4.643  17.200  0.00  0.00    +0.000 C 
ATOM      8  C   UNL     1       6.616   4.192  17.797  0.00  0.00    +0.000 C 
ATOM      9  C   UNL     1       7.428   5.344  18.333  0.00  0.00    +0.000 C 
ATOM     10  O   UNL     1       7.747   5.454  19.511  0.00  0.00    +0.000 OA
ATOM     11  N   UNL     1       7.684   6.321  17.390  0.00  0.00    +0.000 N 
ATOM     12  C   UNL     1       6.738   7.417  17.420  0.00  0.00    +0.000 C 
ATOM     13  H   UNL     1       7.866   5.978  16.458  0.00  0.00    +0.000 HD
ENDROOT
BRANCH   1  16
ATOM     14  C   UNL     1       2.323   2.705  17.515  0.00  0.00    +0.000 C 
ATOM     15  C   UNL     1       2.075   3.682  18.601  0.00  0.00    +0.000 C 
ATOM     16  C   UNL     1       2.495   4.947  18.823  0.00  0.00    +0.000 C 
ATOM     17  C   UNL     1       1.948   5.405  20.175  0.00  0.00    +0.000 C 
ATOM     18  C   UNL     1       1.439   4.144  20.851  0.00  0.00    +0.000 C 
ATOM     19  C   UNL     1       1.197   3.168  19.719  0.00  0.00    +0.000 C 
ENDBRANCH   1  16
TORSDOF 1
ENDMDL
MODEL 4
REMARK VINA RESULT:      -7.7      1.910      3.043
REMARK  Name = 
REMARK  2 active torsions:
REMARK  status: ('A' for Active; 'I' for Inactive)
REMARK    1  A    between atoms: C_1  and  C_2
REMARK    2  A    between atoms: C_3  and  C_4
REMARK                            x       y       z     vdW  Elec       q    Type
REMARK                         _______ _______ _______ _____ _____    ______ ____
ROOT
ATOM      1  C   UNL     1       4.879   4.224  18.745  0.00  0.00    +0.000 C 
ATOM      2  O   UNL     1       5.589   3.600  19.549  0.00  0.00    +0.000 OA
ATOM      3  N   UNL     1       5.484   4.818  17.636  0.00  0.00    +0.000 N 
ATOM      4  C   UNL     1       6.969   4.719  17.630  0.00  0.00    +0.000 C 
ATOM      5  C   UNL     1       7.350   6.075  18.219  0.00  0.00    +0.000 C 
ATOM      6  C   UNL     1       6.329   7.043  17.612  0.00  0.00    +0.000 C 
ATOM      7  C   UNL     1       5.141   6.162  17.135  0.00  0.00    +0.000 C 
ATOM      8  C   UNL     1       4.998   6.234  15.593  0.00  0.00    +0.000 C 
ATOM      9  C   UNL     1       5.867   5.228  14.881  0.00  0.00    +0.000 C 
ATOM     10  O   UNL     1       5.422   4.331  14.176  0.00  0.00    +0.000 OA
ATOM     11  N   UNL     1       7.210   5.348  15.188  0.00  0.00    +0.000 N 
ATOM     12  C   UNL     1       7.643   4.463  16.249  0.00  0.00    +0.000 C 
ATOM     13  H   UNL     1       7.539   6.295  15.301  0.00  0.00    +0.000 HD
ENDROOT
BRANCH   1  16
ATOM     14  C   UNL     1       1.932   2.357  18.189  0.00  0.00    +0.000 C 
ATOM     15  C   UNL     1       2.264   3.604  18.918  0.00  0.00    +0.000 C 
ATOM     16  C   UNL     1       3.412   4.292  19.103  0.00  0.00    +0.000 C 
ATOM     17  C   UNL     1       3.121   5.476  20.025  0.00  0.00    +0.000 C 
ATOM     18  C   UNL     1       1.747   5.201  20.610  0.00  0.00    +0.000 C 
ATOM     19  C   UNL     1       1.097   4.239  19.637  0.00  0.00    +0.000 C 
ENDBRANCH   1  16
TORSDOF 1
ENDMDL
MODEL 5
REMARK VINA RESULT:      -7.5      1.842      3.113
REMARK  Name = 
REMARK  2 active torsions:
REMARK  status: ('A' for Active; 'I' for Inactive)
REMARK    1  A    between atoms: C_1  and  C_2
REMARK    2  A    between atoms: C_3  and  C_4
REMARK                            x       y       z     vdW  Elec       q    Type
REMARK                         _______ _______ _______ _____ _____    ______ ____
ROOT
ATOM      1  C   UNL     1       4.862   4.219  18.875  0.00  0.00    +0.000 C 
ATOM      2  O   UNL     1       5.563   3.532  19.635  0.00  0.00    +0.000 OA
ATOM      3  N   UNL     1       5.467   4.825  17.771  0.00  0.00    +0.000 N 
ATOM      4  C   UNL     1       6.944   4.655  17.719  0.00  0.00    +0.000 C 
ATOM      5  C   UNL     1       7.407   5.968  18.346  0.00  0.00    +0.000 C 
ATOM      6  C   UNL     1       6.419   7.006  17.804  0.00  0.00    +0.000 C 
ATOM      7  C   UNL     1       5.177   6.202  17.329  0.00  0.00    +0.000 C 
ATOM      8  C   UNL     1       4.996   6.339  15.796  0.00  0.00    +0.000 C 
ATOM      9  C   UNL     1       5.795   5.320  15.023  0.00  0.00    +0.000 C 
ATOM     10  O   UNL     1       5.288   4.472  14.299  0.00  0.00    +0.000 OA
ATOM     11  N   UNL     1       7.150   5.363  15.296  0.00  0.00    +0.000 N 
ATOM     12  C   UNL     1       7.567   4.419  16.311  0.00  0.00    +0.000 C 
ATOM     13  H   UNL     1       7.528   6.289  15.434  0.00  0.00    +0.000 HD
ENDROOT
BRANCH   1  16
ATOM     14  C   UNL     1       2.536   6.770  19.621  0.00  0.00    +0.000 C 
ATOM     15  C   UNL     1       2.490   5.290  19.564  0.00  0.00    +0.000 C 
ATOM     16  C   UNL     1       3.411   4.344  19.277  0.00  0.00    +0.000 C 
ATOM     17  C   UNL     1       2.726   2.978  19.315  0.00  0.00    +0.000 C 
ATOM     18  C   UNL     1       1.238   3.275  19.335  0.00  0.00    +0.000 C 
ATOM     19  C   UNL     1       1.132   4.693  19.855  0.00  0.00    +0.000 C 
ENDBRANCH   1  16
TORSDOF 1
ENDMDL
MODEL 6
REMARK VINA RESULT:      -7.4      0.921      1.013
REMARK  Name = 
REMARK  2 active torsions:
REMARK  status: ('A' for Active; 'I' for Inactive)
REMARK    1  A    between atoms: C_1  and  C_2
REMARK    2  A    between atoms: C_3  and  C_4
REMARK                            x       y       z     vdW  Elec       q    Type
REMARK                         _______ _______ _______ _____ _____    ______ ____
ROOT
ATOM      1  C   UNL     1       3.398   5.756  18.153  0.00  0.00    +0.000 C 
ATOM      2  O   UNL     1       2.762   6.809  17.987  0.00  0.00    +0.000 OA
ATOM      3  N   UNL     1       4.739   5.714  17.767  0.00  0.00    +0.000 N 
ATOM      4  C   UNL     1       5.210   6.945  17.076  0.00  0.00    +0.000 C 
ATOM      5  C   UNL     1       5.062   6.529  15.614  0.00  0.00    +0.000 C 
ATOM      6  C   UNL     1       5.483   5.056  15.603  0.00  0.00    +0.000 C 
ATOM      7  C   UNL     1       5.359   4.569  17.073  0.00  0.00    +0.000 C 
ATOM      8  C   UNL     1       6.751   4.181  17.635  0.00  0.00    +0.000 C 
ATOM      9  C   UNL     1       7.491   5.357  18.219  0.00  0.00    +0.000 C 
ATOM     10  O   UNL     1       7.817   5.433  19.397  0.00  0.00    +0.000 OA
ATOM     11  N   UNL     1       7.670   6.393  17.321  0.00  0.00    +0.000 N 
ATOM     12  C   UNL     1       6.654   7.422  17.412  0.00  0.00    +0.000 C 
ATOM     13  H   UNL     1       7.863   6.108  16.372  0.00  0.00    +0.000 HD
ENDROOT
BRANCH   1  16
ATOM     14  C   UNL     1       2.304   4.635  21.319  0.00  0.00    +0.000 C 
ATOM     15  C   UNL     1       2.159   4.151  19.926  0.00  0.00    +0.000 C 
ATOM     16  C   UNL     1       2.601   4.611  18.734  0.00  0.00    +0.000 C 
ATOM     17  C   UNL     1       2.054   3.701  17.634  0.00  0.00    +0.000 C 
ATOM     18  C   UNL     1       0.981   2.861  18.304  0.00  0.00    +0.000 C 
ATOM     19  C   UNL     1       1.322   2.902  19.779  0.00  0.00    +0.000 C 
ENDBRANCH   1  16
TORSDOF 1
ENDMDL
MODEL 7
REMARK VINA RESULT:      -7.4      2.090      5.639
REMARK  Name = 
REMARK  2 active torsions:
REMARK  status: ('A' for Active; 'I' for Inactive)
REMARK    1  A    between atoms: C_1  and  C_2
REMARK    2  A    between atoms: C_3  and  C_4
REMARK                            x       y       z     vdW  Elec       q    Type
REMARK                         _______ _______ _______ _____ _____    ______ ____
ROOT
ATOM      1  C   UNL     1       4.899   4.213  18.578  0.00  0.00    +0.000 C 
ATOM      2  O   UNL     1       5.963   4.031  19.191  0.00  0.00    +0.000 OA
ATOM      3  N   UNL     1       3.738   3.596  19.050  0.00  0.00    +0.000 N 
ATOM      4  C   UNL     1       3.965   2.677  20.198  0.00  0.00    +0.000 C 
ATOM      5  C   UNL     1       4.055   1.334  19.477  0.00  0.00    +0.000 C 
ATOM      6  C   UNL     1       3.004   1.437  18.367  0.00  0.00    +0.000 C 
ATOM      7  C   UNL     1       2.736   2.956  18.178  0.00  0.00    +0.000 C 
ATOM      8  C   UNL     1       1.272   3.298  18.558  0.00  0.00    +0.000 C 
ATOM      9  C   UNL     1       1.103   3.579  20.030  0.00  0.00    +0.000 C 
ATOM     10  O   UNL     1       0.729   4.657  20.473  0.00  0.00    +0.000 OA
ATOM     11  N   UNL     1       1.518   2.536  20.838  0.00  0.00    +0.000 N 
ATOM     12  C   UNL     1       2.878   2.677  21.314  0.00  0.00    +0.000 C 
ATOM     13  H   UNL     1       1.315   1.613  20.483  0.00  0.00    +0.000 HD
ENDROOT
BRANCH   1  16
ATOM     14  C   UNL     1       3.852   7.400  17.473  0.00  0.00    +0.000 C 
ATOM     15  C   UNL     1       4.634   6.289  16.882  0.00  0.00    +0.000 C 
ATOM     16  C   UNL     1       5.010   5.074  17.341  0.00  0.00    +0.000 C 
ATOM     17  C   UNL     1       5.879   4.406  16.276  0.00  0.00    +0.000 C 
ATOM     18  C   UNL     1       6.227   5.508  15.291  0.00  0.00    +0.000 C 
ATOM     19  C   UNL     1       5.154   6.558  15.490  0.00  0.00    +0.000 C 
ENDBRANCH   1  16
TORSDOF 1
ENDMDL
MODEL 8
REMARK VINA RESULT:      -7.4      1.821      3.125
REMARK  Name = 
REMARK  2 active torsions:
REMARK  status: ('A' for Active; 'I' for Inactive)
REMARK    1  A    between atoms: C_1  and  C_2
REMARK    2  A    between atoms: C_3  and  C_4
REMARK                            x       y       z     vdW  Elec       q    Type
REMARK                         _______ _______ _______ _____ _____    ______ ____
ROOT
ATOM      1  C   UNL     1       4.651   3.789  19.024  0.00  0.00    +0.000 C 
ATOM      2  O   UNL     1       5.359   3.044  19.720  0.00  0.00    +0.000 OA
ATOM      3  N   UNL     1       5.259   4.547  18.021  0.00  0.00    +0.000 N 
ATOM      4  C   UNL     1       6.743   4.445  18.000  0.00  0.00    +0.000 C 
ATOM      5  C   UNL     1       7.129   5.691  18.795  0.00  0.00    +0.000 C 
ATOM      6  C   UNL     1       6.113   6.746  18.347  0.00  0.00    +0.000 C 
ATOM      7  C   UNL     1       4.922   5.955  17.738  0.00  0.00    +0.000 C 
ATOM      8  C   UNL     1       4.779   6.269  16.226  0.00  0.00    +0.000 C 
ATOM      9  C   UNL     1       5.644   5.384  15.365  0.00  0.00    +0.000 C 
ATOM     10  O   UNL     1       5.196   4.610  14.528  0.00  0.00    +0.000 OA
ATOM     11  N   UNL     1       6.987   5.449  15.687  0.00  0.00    +0.000 N 
ATOM     12  C   UNL     1       7.417   4.407  16.596  0.00  0.00    +0.000 C 
ATOM     13  H   UNL     1       7.320   6.366  15.947  0.00  0.00    +0.000 HD
ENDROOT
BRANCH   1  16
ATOM     14  C   UNL     1       1.549   4.467  17.476  0.00  0.00    +0.000 C 
ATOM     15  C   UNL     1       1.977   4.051  18.832  0.00  0.00    +0.000 C 
ATOM     16  C   UNL     1       3.185   3.805  19.389  0.00  0.00    +0.000 C 
ATOM     17  C   UNL     1       2.965   3.333  20.826  0.00  0.00    +0.000 C 
ATOM     18  C   UNL     1       1.482   3.024  20.925  0.00  0.00    +0.000 C 
ATOM     19  C   UNL     1       0.844   3.817  19.804  0.00  0.00    +0.000 C 
ENDBRANCH   1  16
TORSDOF 1
ENDMDL
MODEL 9
REMARK VINA RESULT:      -7.4      3.268      5.458
REMARK  Name = 
REMARK  2 active torsions:
REMARK  status: ('A' for Active; 'I' for Inactive)
REMARK    1  A    between atoms: C_1  and  C_2
REMARK    2  A    between atoms: C_3  and  C_4
REMARK                            x       y       z     vdW  Elec       q    Type
REMARK                         _______ _______ _______ _____ _____    ______ ____
ROOT
ATOM      1  C   UNL     1       3.017   6.357  19.125  0.00  0.00    +0.000 C 
ATOM      2  O   UNL     1       4.041   6.640  18.483  0.00  0.00    +0.000 OA
ATOM      3  N   UNL     1       2.719   5.012  19.355  0.00  0.00    +0.000 N 
ATOM      4  C   UNL     1       3.639   4.062  18.674  0.00  0.00    +0.000 C 
ATOM      5  C   UNL     1       2.839   3.740  17.414  0.00  0.00    +0.000 C 
ATOM      6  C   UNL     1       1.389   3.676  17.902  0.00  0.00    +0.000 C 
ATOM      7  C   UNL     1       1.362   4.443  19.253  0.00  0.00    +0.000 C 
ATOM      8  C   UNL     1       1.001   3.483  20.415  0.00  0.00    +0.000 C 
ATOM      9  C   UNL     1       2.207   2.778  20.982  0.00  0.00    +0.000 C 
ATOM     10  O   UNL     1       2.582   2.908  22.141  0.00  0.00    +0.000 OA
ATOM     11  N   UNL     1       2.915   2.055  20.039  0.00  0.00    +0.000 N 
ATOM     12  C   UNL     1       4.031   2.782  19.470  0.00  0.00    +0.000 C 
ATOM     13  H   UNL     1       2.349   1.589  19.346  0.00  0.00    +0.000 HD
ENDROOT
BRANCH   1  16
ATOM     14  C   UNL     1       1.753   9.346  17.731  0.00  0.00    +0.000 C 
ATOM     15  C   UNL     1       1.676   8.692  19.058  0.00  0.00    +0.000 C 
ATOM     16  C   UNL     1       2.182   7.541  19.555  0.00  0.00    +0.000 C 
ATOM     17  C   UNL     1       1.685   7.377  20.991  0.00  0.00    +0.000 C 
ATOM     18  C   UNL     1       0.572   8.398  21.150  0.00  0.00    +0.000 C 
ATOM     19  C   UNL     1       0.837   9.431  20.075  0.00  0.00    +0.000 C 
ENDBRANCH   1  16
TORSDOF 1
ENDMDL
