MODEL 1
REMARK VINA RESULT:      -8.4      0.000      0.000
REMARK  Name = 
REMARK  7 active torsions:
REMARK  status: ('A' for Active; 'I' for Inactive)
REMARK    1  A    between atoms: C_1  and  C_2
REMARK    2  A    between atoms: C_2  and  C_3
REMARK    3  A    between atoms: C_2  and  C_24
REMARK    4  A    between atoms: C_3  and  N_4
REMARK    5  A    between atoms: C_5  and  C_7
REMARK    6  A    between atoms: C_7  and  C_8
REMARK    7  A    between atoms: C_8  and  N_9
REMARK                            x       y       z     vdW  Elec       q    Type
REMARK                         _______ _______ _______ _____ _____    ______ ____
ROOT
ATOM      1  C   UNL     1       0.433  11.118  18.939  0.00  0.00    +0.000 C 
ENDROOT
BRANCH   1   2
ATOM      2  N   UNL     1      -0.968  11.483  19.201  0.00  0.00    +0.000 N 
ATOM      3  C   UNL     1      -1.221  12.157  20.411  0.00  0.00    +0.000 A 
ATOM      4  O   UNL     1      -0.329  12.419  21.216  0.00  0.00    +0.000 OA
ATOM      5  C   UNL     1      -2.589  12.537  20.643  0.00  0.00    +0.000 A 
ATOM      6  C   UNL     1      -3.153  13.157  21.743  0.00  0.00    +0.000 A 
ATOM      7  C   UNL     1      -4.529  13.324  21.480  0.00  0.00    +0.000 A 
ATOM      8  C   UNL     1      -4.767  12.800  20.228  0.00  0.00    +0.000 A 
ATOM      9  N   UNL     1      -3.581  12.317  19.724  0.00  0.00    +0.000 N 
ATOM     10  C   UNL     1      -3.328  11.690  18.487  0.00  0.00    +0.000 A 
ATOM     11  C   UNL     1      -4.360  11.507  17.553  0.00  0.00    +0.000 A 
ATOM     12  C   UNL     1      -4.086  10.872  16.347  0.00  0.00    +0.000 A 
ATOM     13  C   UNL     1      -2.797  10.427  16.091  0.00  0.00    +0.000 A 
ATOM     14  F   UNL     1      -2.539   9.805  14.934  0.00  0.00    +0.000 F 
ATOM     15  C   UNL     1      -1.763  10.615  17.011  0.00  0.00    +0.000 A 
ATOM     16  C   UNL     1      -2.005  11.258  18.232  0.00  0.00    +0.000 A 
ENDBRANCH   1   2
BRANCH   1  17
ATOM     17  C   UNL     1       0.757   9.720  19.465  0.00  0.00    +0.000 C 
BRANCH  17  19
ATOM     18  N   UNL     1       2.147   7.791  19.075  0.00  0.00    +0.000 N 
ATOM     19  C   UNL     1       1.674   8.966  18.527  0.00  0.00    +0.000 C 
ATOM     20  O   UNL     1       1.986   9.378  17.414  0.00  0.00    +0.000 OA
ATOM     21  H   UNL     1       2.000   7.626  20.063  0.00  0.00    +0.000 HD
BRANCH  18  22
ATOM     22  C   UNL     1       3.098   6.928  18.395  0.00  0.00    +0.000 C 
BRANCH  22  24
ATOM     23  C   UNL     1       5.065   5.429  18.976  0.00  0.00    +0.000 C 
ATOM     24  C   UNL     1       3.593   5.755  19.270  0.00  0.00    +0.000 C 
BRANCH  24  25
ATOM     25  C   UNL     1       2.684   4.531  19.210  0.00  0.00    +0.000 A 
ATOM     26  C   UNL     1       2.817   3.624  18.143  0.00  0.00    +0.000 A 
ATOM     27  C   UNL     1       1.944   2.542  18.009  0.00  0.00    +0.000 A 
ATOM     28  C   UNL     1       0.932   2.340  18.945  0.00  0.00    +0.000 A 
ATOM     29  C   UNL     1       0.807   3.207  20.025  0.00  0.00    +0.000 A 
ATOM     30  C   UNL     1       1.680   4.289  20.161  0.00  0.00    +0.000 A 
ENDBRANCH  24  25
ENDBRANCH  22  24
ENDBRANCH  18  22
ENDBRANCH  17  19
ENDBRANCH   1  17
TORSDOF 6
ENDMDL
MODEL 2
REMARK VINA RESULT:      -8.3      0.816      1.203
REMARK  Name = 
REMARK  7 active torsions:
REMARK  status: ('A' for Active; 'I' for Inactive)
REMARK    1  A    between atoms: C_1  and  C_2
REMARK    2  A    between atoms: C_2  and  C_3
REMARK    3  A    between atoms: C_2  and  C_24
REMARK    4  A    between atoms: C_3  and  N_4
REMARK    5  A    between atoms: C_5  and  C_7
REMARK    6  A    between atoms: C_7  and  C_8
REMARK    7  A    between atoms: C_8  and  N_9
REMARK                            x       y       z     vdW  Elec       q    Type
REMARK                         _______ _______ _______ _____ _____    ______ ____
ROOT
ATOM      1  C   UNL     1       0.758  11.006  19.538  0.00  0.00    +0.000 C 
ENDROOT
BRANCH   1   2
ATOM      2  N   UNL     1      -0.608  11.427  19.887  0.00  0.00    +0.000 N 
ATOM      3  C   UNL     1      -0.788  11.950  21.181  0.00  0.00    +0.000 A 
ATOM      4  O   UNL     1       0.136  12.044  21.986  0.00  0.00    +0.000 OA
ATOM      5  C   UNL     1      -2.121  12.386  21.501  0.00  0.00    +0.000 A 
ATOM      6  C   UNL     1      -2.616  12.893  22.689  0.00  0.00    +0.000 A 
ATOM      7  C   UNL     1      -3.983  13.185  22.491  0.00  0.00    +0.000 A 
ATOM      8  C   UNL     1      -4.283  12.847  21.189  0.00  0.00    +0.000 A 
ATOM      9  N   UNL     1      -3.145  12.357  20.591  0.00  0.00    +0.000 N 
ATOM     10  C   UNL     1      -2.962  11.883  19.277  0.00  0.00    +0.000 A 
ATOM     11  C   UNL     1      -4.023  11.894  18.358  0.00  0.00    +0.000 A 
ATOM     12  C   UNL     1      -3.820  11.406  17.072  0.00  0.00    +0.000 A 
ATOM     13  C   UNL     1      -2.571  10.914  16.722  0.00  0.00    +0.000 A 
ATOM     14  F   UNL     1      -2.382  10.434  15.487  0.00  0.00    +0.000 F 
ATOM     15  C   UNL     1      -1.507  10.909  17.627  0.00  0.00    +0.000 A 
ATOM     16  C   UNL     1      -1.679  11.400  18.928  0.00  0.00    +0.000 A 
ENDBRANCH   1   2
BRANCH   1  17
ATOM     17  C   UNL     1       0.917   9.489  19.619  0.00  0.00    +0.000 C 
BRANCH  17  19
ATOM     18  N   UNL     1       2.395   7.776  18.790  0.00  0.00    +0.000 N 
ATOM     19  C   UNL     1       1.740   8.948  18.470  0.00  0.00    +0.000 C 
ATOM     20  O   UNL     1       1.838   9.515  17.386  0.00  0.00    +0.000 OA
ATOM     21  H   UNL     1       2.419   7.485  19.759  0.00  0.00    +0.000 HD
BRANCH  18  22
ATOM     22  C   UNL     1       3.301   7.102  17.875  0.00  0.00    +0.000 C 
BRANCH  22  24
ATOM     23  C   UNL     1       4.776   5.085  17.412  0.00  0.00    +0.000 C 
ATOM     24  C   UNL     1       3.829   5.756  18.419  0.00  0.00    +0.000 C 
BRANCH  24  25
ATOM     25  C   UNL     1       2.722   4.828  18.911  0.00  0.00    +0.000 A 
ATOM     26  C   UNL     1       2.432   4.768  20.286  0.00  0.00    +0.000 A 
ATOM     27  C   UNL     1       1.486   3.867  20.780  0.00  0.00    +0.000 A 
ATOM     28  C   UNL     1       0.806   3.019  19.909  0.00  0.00    +0.000 A 
ATOM     29  C   UNL     1       1.056   3.087  18.543  0.00  0.00    +0.000 A 
ATOM     30  C   UNL     1       2.000   3.990  18.047  0.00  0.00    +0.000 A 
ENDBRANCH  24  25
ENDBRANCH  22  24
ENDBRANCH  18  22
ENDBRANCH  17  19
ENDBRANCH   1  17
TORSDOF 6
ENDMDL
MODEL 3
REMARK VINA RESULT:      -8.3      2.857      8.764
REMARK  Name = 
REMARK  7 active torsions:
REMARK  status: ('A' for Active; 'I' for Inactive)
REMARK    1  A    between atoms: C_1  and  C_2
REMARK    2  A    between atoms: C_2  and  C_3
REMARK    3  A    between atoms: C_2  and  C_24
REMARK    4  A    between atoms: C_3  and  N_4
REMARK    5  A    between atoms: C_5  and  C_7
REMARK    6  A    between atoms: C_7  and  C_8
REMARK    7  A    between atoms: C_8  and  N_9
REMARK                            x       y       z     vdW  Elec       q    Type
REMARK                         _______ _______ _______ _____ _____    ______ ____
ROOT
ATOM      1  C   UNL     1       1.149   7.408  20.038  0.00  0.00    +0.000 C 
ENDROOT
BRANCH   1   2
ATOM      2  N   UNL     1       2.191   6.619  19.363  0.00  0.00    +0.000 N 
ATOM      3  C   UNL     1       2.930   7.284  18.366  0.00  0.00    +0.000 A 
ATOM      4  O   UNL     1       2.715   8.456  18.061  0.00  0.00    +0.000 OA
ATOM      5  C   UNL     1       3.966   6.513  17.734  0.00  0.00    +0.000 A 
ATOM      6  C   UNL     1       4.817   6.866  16.703  0.00  0.00    +0.000 A 
ATOM      7  C   UNL     1       5.663   5.765  16.451  0.00  0.00    +0.000 A 
ATOM      8  C   UNL     1       5.304   4.771  17.336  0.00  0.00    +0.000 A 
ATOM      9  N   UNL     1       4.266   5.231  18.113  0.00  0.00    +0.000 N 
ATOM     10  C   UNL     1       3.567   4.574  19.145  0.00  0.00    +0.000 A 
ATOM     11  C   UNL     1       3.918   3.271  19.531  0.00  0.00    +0.000 A 
ATOM     12  C   UNL     1       3.201   2.640  20.543  0.00  0.00    +0.000 A 
ATOM     13  C   UNL     1       2.149   3.311  21.148  0.00  0.00    +0.000 A 
ATOM     14  F   UNL     1       1.453   2.697  22.113  0.00  0.00    +0.000 F 
ATOM     15  C   UNL     1       1.800   4.612  20.777  0.00  0.00    +0.000 A 
ATOM     16  C   UNL     1       2.507   5.276  19.767  0.00  0.00    +0.000 A 
ENDBRANCH   1   2
BRANCH   1  17
ATOM     17  C   UNL     1       1.682   8.079  21.302  0.00  0.00    +0.000 C 
BRANCH  17  19
ATOM     18  N   UNL     1       0.880  10.097  20.259  0.00  0.00    +0.000 N 
ATOM     19  C   UNL     1       1.138   9.481  21.467  0.00  0.00    +0.000 C 
ATOM     20  O   UNL     1       0.978  10.019  22.558  0.00  0.00    +0.000 OA
ATOM     21  H   UNL     1       1.222   9.662  19.412  0.00  0.00    +0.000 HD
BRANCH  18  22
ATOM     22  C   UNL     1       0.416  11.471  20.155  0.00  0.00    +0.000 C 
BRANCH  22  24
ATOM     23  C   UNL     1       0.124  13.361  18.482  0.00  0.00    +0.000 C 
ATOM     24  C   UNL     1      -0.044  11.854  18.731  0.00  0.00    +0.000 C 
BRANCH  24  25
ATOM     25  C   UNL     1      -1.440  11.342  18.390  0.00  0.00    +0.000 A 
ATOM     26  C   UNL     1      -1.579  10.223  17.549  0.00  0.00    +0.000 A 
ATOM     27  C   UNL     1      -2.842   9.782  17.146  0.00  0.00    +0.000 A 
ATOM     28  C   UNL     1      -3.987  10.442  17.586  0.00  0.00    +0.000 A 
ATOM     29  C   UNL     1      -3.870  11.530  18.445  0.00  0.00    +0.000 A 
ATOM     30  C   UNL     1      -2.608  11.971  18.850  0.00  0.00    +0.000 A 
ENDBRANCH  24  25
ENDBRANCH  22  24
ENDBRANCH  18  22
ENDBRANCH  17  19
ENDBRANCH   1  17
TORSDOF 6
ENDMDL
MODEL 4
REMARK VINA RESULT:      -8.2      3.268      8.812
REMARK  Name = 
REMARK  7 active torsions:
REMARK  status: ('A' for Active; 'I' for Inactive)
REMARK    1  A    between atoms: C_1  and  C_2
REMARK    2  A    between atoms: C_2  and  C_3
REMARK    3  A    between atoms: C_2  and  C_24
REMARK    4  A    between atoms: C_3  and  N_4
REMARK    5  A    between atoms: C_5  and  C_7
REMARK    6  A    between atoms: C_7  and  C_8
REMARK    7  A    between atoms: C_8  and  N_9
REMARK                            x       y       z     vdW  Elec       q    Type
REMARK                         _______ _______ _______ _____ _____    ______ ____
ROOT
ATOM      1  C   UNL     1       2.789   8.104  18.904  0.00  0.00    +0.000 C 
ENDROOT
BRANCH   1   2
ATOM      2  N   UNL     1       2.818   6.637  19.007  0.00  0.00    +0.000 N 
ATOM      3  C   UNL     1       2.018   6.066  20.015  0.00  0.00    +0.000 A 
ATOM      4  O   UNL     1       1.339   6.748  20.780  0.00  0.00    +0.000 OA
ATOM      5  C   UNL     1       2.030   4.630  20.087  0.00  0.00    +0.000 A 
ATOM      6  C   UNL     1       1.396   3.791  20.985  0.00  0.00    +0.000 A 
ATOM      7  C   UNL     1       1.710   2.463  20.624  0.00  0.00    +0.000 A 
ATOM      8  C   UNL     1       2.527   2.529  19.517  0.00  0.00    +0.000 A 
ATOM      9  N   UNL     1       2.722   3.853  19.195  0.00  0.00    +0.000 N 
ATOM     10  C   UNL     1       3.484   4.413  18.150  0.00  0.00    +0.000 A 
ATOM     11  C   UNL     1       4.158   3.590  17.235  0.00  0.00    +0.000 A 
ATOM     12  C   UNL     1       4.915   4.169  16.222  0.00  0.00    +0.000 A 
ATOM     13  C   UNL     1       4.993   5.551  16.139  0.00  0.00    +0.000 A 
ATOM     14  F   UNL     1       5.732   6.106  15.170  0.00  0.00    +0.000 F 
ATOM     15  C   UNL     1       4.317   6.377  17.040  0.00  0.00    +0.000 A 
ATOM     16  C   UNL     1       3.540   5.824  18.067  0.00  0.00    +0.000 A 
ENDBRANCH   1   2
BRANCH   1  17
ATOM     17  C   UNL     1       1.874   8.571  17.774  0.00  0.00    +0.000 C 
BRANCH  17  19
ATOM     18  N   UNL     1       0.713   9.501  19.669  0.00  0.00    +0.000 N 
ATOM     19  C   UNL     1       0.684   9.345  18.298  0.00  0.00    +0.000 C 
ATOM     20  O   UNL     1      -0.222   9.758  17.580  0.00  0.00    +0.000 OA
ATOM     21  H   UNL     1       1.386   8.965  20.203  0.00  0.00    +0.000 HD
BRANCH  18  22
ATOM     22  C   UNL     1      -0.354  10.150  20.414  0.00  0.00    +0.000 C 
BRANCH  22  24
ATOM     23  C   UNL     1       0.173   9.458  22.801  0.00  0.00    +0.000 C 
ATOM     24  C   UNL     1       0.084  10.632  21.815  0.00  0.00    +0.000 C 
BRANCH  24  25
ATOM     25  C   UNL     1      -0.751  11.795  22.341  0.00  0.00    +0.000 A 
ATOM     26  C   UNL     1      -0.298  13.113  22.148  0.00  0.00    +0.000 A 
ATOM     27  C   UNL     1      -0.993  14.196  22.692  0.00  0.00    +0.000 A 
ATOM     28  C   UNL     1      -2.157  13.983  23.427  0.00  0.00    +0.000 A 
ATOM     29  C   UNL     1      -2.637  12.689  23.600  0.00  0.00    +0.000 A 
ATOM     30  C   UNL     1      -1.945  11.605  23.055  0.00  0.00    +0.000 A 
ENDBRANCH  24  25
ENDBRANCH  22  24
ENDBRANCH  18  22
ENDBRANCH  17  19
ENDBRANCH   1  17
TORSDOF 6
ENDMDL
MODEL 5
REMARK VINA RESULT:      -8.2      3.034      9.393
REMARK  Name = 
REMARK  7 active torsions:
REMARK  status: ('A' for Active; 'I' for Inactive)
REMARK    1  A    between atoms: C_1  and  C_2
REMARK    2  A    between atoms: C_2  and  C_3
REMARK    3  A    between atoms: C_2  and  C_24
REMARK    4  A    between atoms: C_3  and  N_4
REMARK    5  A    between atoms: C_5  and  C_7
REMARK    6  A    between atoms: C_7  and  C_8
REMARK    7  A    between atoms: C_8  and  N_9
REMARK                            x       y       z     vdW  Elec       q    Type
REMARK                         _______ _______ _______ _____ _____    ______ ____
ROOT
ATOM      1  C   UNL     1       2.958   7.330  18.571  0.00  0.00    +0.000 C 
ENDROOT
BRANCH   1   2
ATOM      2  N   UNL     1       3.536   6.196  17.833  0.00  0.00    +0.000 N 
ATOM      3  C   UNL     1       4.685   6.470  17.068  0.00  0.00    +0.000 A 
ATOM      4  O   UNL     1       5.181   7.594  17.006  0.00  0.00    +0.000 OA
ATOM      5  C   UNL     1       5.259   5.348  16.375  0.00  0.00    +0.000 A 
ATOM      6  C   UNL     1       6.344   5.307  15.519  0.00  0.00    +0.000 A 
ATOM      7  C   UNL     1       6.515   3.967  15.109  0.00  0.00    +0.000 A 
ATOM      8  C   UNL     1       5.529   3.229  15.726  0.00  0.00    +0.000 A 
ATOM      9  N   UNL     1       4.763   4.076  16.494  0.00  0.00    +0.000 N 
ATOM     10  C   UNL     1       3.644   3.783  17.298  0.00  0.00    +0.000 A 
ATOM     11  C   UNL     1       3.177   2.465  17.423  0.00  0.00    +0.000 A 
ATOM     12  C   UNL     1       2.061   2.205  18.211  0.00  0.00    +0.000 A 
ATOM     13  C   UNL     1       1.427   3.257  18.856  0.00  0.00    +0.000 A 
ATOM     14  F   UNL     1       0.345   3.006  19.604  0.00  0.00    +0.000 F 
ATOM     15  C   UNL     1       1.891   4.570  18.745  0.00  0.00    +0.000 A 
ATOM     16  C   UNL     1       3.017   4.862  17.964  0.00  0.00    +0.000 A 
ENDBRANCH   1   2
BRANCH   1  17
ATOM     17  C   UNL     1       2.012   8.148  17.695  0.00  0.00    +0.000 C 
BRANCH  17  19
ATOM     18  N   UNL     1       1.078   9.617  19.361  0.00  0.00    +0.000 N 
ATOM     19  C   UNL     1       1.844   9.560  18.214  0.00  0.00    +0.000 C 
ATOM     20  O   UNL     1       2.312  10.545  17.653  0.00  0.00    +0.000 OA
ATOM     21  H   UNL     1       0.569   8.789  19.645  0.00  0.00    +0.000 HD
BRANCH  18  22
ATOM     22  C   UNL     1       0.718  10.867  20.010  0.00  0.00    +0.000 C 
BRANCH  22  24
ATOM     23  C   UNL     1       0.124   9.192  21.826  0.00  0.00    +0.000 C 
ATOM     24  C   UNL     1       0.218  10.681  21.460  0.00  0.00    +0.000 C 
BRANCH  24  25
ATOM     25  C   UNL     1      -1.062  11.454  21.760  0.00  0.00    +0.000 A 
ATOM     26  C   UNL     1      -1.578  11.454  23.069  0.00  0.00    +0.000 A 
ATOM     27  C   UNL     1      -2.794  12.078  23.360  0.00  0.00    +0.000 A 
ATOM     28  C   UNL     1      -3.508  12.723  22.353  0.00  0.00    +0.000 A 
ATOM     29  C   UNL     1      -2.997  12.762  21.060  0.00  0.00    +0.000 A 
ATOM     30  C   UNL     1      -1.781  12.140  20.767  0.00  0.00    +0.000 A 
ENDBRANCH  24  25
ENDBRANCH  22  24
ENDBRANCH  18  22
ENDBRANCH  17  19
ENDBRANCH   1  17
TORSDOF 6
ENDMDL
MODEL 6
REMARK VINA RESULT:      -8.2      2.733      9.119
REMARK  Name = 
REMARK  7 active torsions:
REMARK  status: ('A' for Active; 'I' for Inactive)
REMARK    1  A    between atoms: C_1  and  C_2
REMARK    2  A    between atoms: C_2  and  C_3
REMARK    3  A    between atoms: C_2  and  C_24
REMARK    4  A    between atoms: C_3  and  N_4
REMARK    5  A    between atoms: C_5  and  C_7
REMARK    6  A    between atoms: C_7  and  C_8
REMARK    7  A    between atoms: C_8  and  N_9
REMARK                            x       y       z     vdW  Elec       q    Type
REMARK                         _______ _______ _______ _____ _____    ______ ____
ROOT
ATOM      1  C   UNL     1       2.085   7.128  18.343  0.00  0.00    +0.000 C 
ENDROOT
BRANCH   1   2
ATOM      2  N   UNL     1       3.015   6.132  17.788  0.00  0.00    +0.000 N 
ATOM      3  C   UNL     1       4.221   6.631  17.261  0.00  0.00    +0.000 A 
ATOM      4  O   UNL     1       4.487   7.831  17.250  0.00  0.00    +0.000 OA
ATOM      5  C   UNL     1       5.136   5.646  16.750  0.00  0.00    +0.000 A 
ATOM      6  C   UNL     1       6.362   5.823  16.135  0.00  0.00    +0.000 A 
ATOM      7  C   UNL     1       6.875   4.544  15.829  0.00  0.00    +0.000 A 
ATOM      8  C   UNL     1       5.947   3.623  16.265  0.00  0.00    +0.000 A 
ATOM      9  N   UNL     1       4.887   4.300  16.822  0.00  0.00    +0.000 N 
ATOM     10  C   UNL     1       3.705   3.789  17.395  0.00  0.00    +0.000 A 
ATOM     11  C   UNL     1       3.493   2.404  17.482  0.00  0.00    +0.000 A 
ATOM     12  C   UNL     1       2.311   1.927  18.038  0.00  0.00    +0.000 A 
ATOM     13  C   UNL     1       1.362   2.830  18.493  0.00  0.00    +0.000 A 
ATOM     14  F   UNL     1       0.219   2.368  19.017  0.00  0.00    +0.000 F 
ATOM     15  C   UNL     1       1.570   4.209  18.420  0.00  0.00    +0.000 A 
ATOM     16  C   UNL     1       2.753   4.721  17.871  0.00  0.00    +0.000 A 
ENDBRANCH   1   2
BRANCH   1  17
ATOM     17  C   UNL     1       2.301   7.326  19.842  0.00  0.00    +0.000 C 
BRANCH  17  19
ATOM     18  N   UNL     1       1.256   9.484  19.606  0.00  0.00    +0.000 N 
ATOM     19  C   UNL     1       1.364   8.369  20.412  0.00  0.00    +0.000 C 
ATOM     20  O   UNL     1       0.793   8.244  21.491  0.00  0.00    +0.000 OA
ATOM     21  H   UNL     1       1.907   9.591  18.839  0.00  0.00    +0.000 HD
BRANCH  18  22
ATOM     22  C   UNL     1       0.469  10.651  19.973  0.00  0.00    +0.000 C 
BRANCH  22  24
ATOM     23  C   UNL     1       0.223  12.942  18.903  0.00  0.00    +0.000 C 
ATOM     24  C   UNL     1      -0.058  11.439  18.754  0.00  0.00    +0.000 C 
BRANCH  24  25
ATOM     25  C   UNL     1      -1.515  11.132  18.421  0.00  0.00    +0.000 A 
ATOM     26  C   UNL     1      -1.816  10.060  17.561  0.00  0.00    +0.000 A 
ATOM     27  C   UNL     1      -3.132   9.806  17.166  0.00  0.00    +0.000 A 
ATOM     28  C   UNL     1      -4.170  10.609  17.633  0.00  0.00    +0.000 A 
ATOM     29  C   UNL     1      -3.895  11.652  18.510  0.00  0.00    +0.000 A 
ATOM     30  C   UNL     1      -2.580  11.907  18.907  0.00  0.00    +0.000 A 
ENDBRANCH  24  25
ENDBRANCH  22  24
ENDBRANCH  18  22
ENDBRANCH  17  19
ENDBRANCH   1  17
TORSDOF 6
ENDMDL
MODEL 7
REMARK VINA RESULT:      -8.2      3.169      8.842
REMARK  Name = 
REMARK  7 active torsions:
REMARK  status: ('A' for Active; 'I' for Inactive)
REMARK    1  A    between atoms: C_1  and  C_2
REMARK    2  A    between atoms: C_2  and  C_3
REMARK    3  A    between atoms: C_2  and  C_24
REMARK    4  A    between atoms: C_3  and  N_4
REMARK    5  A    between atoms: C_5  and  C_7
REMARK    6  A    between atoms: C_7  and  C_8
REMARK    7  A    between atoms: C_8  and  N_9
REMARK                            x       y       z     vdW  Elec       q    Type
REMARK                         _______ _______ _______ _____ _____    ______ ____
ROOT
ATOM      1  C   UNL     1       2.518   7.391  18.735  0.00  0.00    +0.000 C 
ENDROOT
BRANCH   1   2
ATOM      2  N   UNL     1       3.206   6.310  18.012  0.00  0.00    +0.000 N 
ATOM      3  C   UNL     1       4.349   6.679  17.278  0.00  0.00    +0.000 A 
ATOM      4  O   UNL     1       4.751   7.840  17.229  0.00  0.00    +0.000 OA
ATOM      5  C   UNL     1       5.031   5.610  16.600  0.00  0.00    +0.000 A 
ATOM      6  C   UNL     1       6.138   5.661  15.773  0.00  0.00    +0.000 A 
ATOM      7  C   UNL     1       6.430   4.341  15.368  0.00  0.00    +0.000 A 
ATOM      8  C   UNL     1       5.492   3.522  15.958  0.00  0.00    +0.000 A 
ATOM      9  N   UNL     1       4.639   4.301  16.705  0.00  0.00    +0.000 N 
ATOM     10  C   UNL     1       3.527   3.915  17.480  0.00  0.00    +0.000 A 
ATOM     11  C   UNL     1       3.167   2.563  17.592  0.00  0.00    +0.000 A 
ATOM     12  C   UNL     1       2.056   2.210  18.350  0.00  0.00    +0.000 A 
ATOM     13  C   UNL     1       1.321   3.205  18.979  0.00  0.00    +0.000 A 
ATOM     14  F   UNL     1       0.244   2.863  19.698  0.00  0.00    +0.000 F 
ATOM     15  C   UNL     1       1.677   4.552  18.880  0.00  0.00    +0.000 A 
ATOM     16  C   UNL     1       2.796   4.938  18.129  0.00  0.00    +0.000 A 
ENDBRANCH   1   2
BRANCH   1  17
ATOM     17  C   UNL     1       1.407   8.013  17.892  0.00  0.00    +0.000 C 
BRANCH  17  19
ATOM     18  N   UNL     1       0.283  10.054  18.508  0.00  0.00    +0.000 N 
ATOM     19  C   UNL     1       1.432   9.525  17.955  0.00  0.00    +0.000 C 
ATOM     20  O   UNL     1       2.362  10.201  17.528  0.00  0.00    +0.000 OA
ATOM     21  H   UNL     1      -0.511   9.442  18.650  0.00  0.00    +0.000 HD
BRANCH  18  22
ATOM     22  C   UNL     1       0.043  11.483  18.613  0.00  0.00    +0.000 C 
BRANCH  22  24
ATOM     23  C   UNL     1       1.861  12.654  19.946  0.00  0.00    +0.000 C 
ATOM     24  C   UNL     1       0.441  12.071  19.985  0.00  0.00    +0.000 C 
BRANCH  24  25
ATOM     25  C   UNL     1       0.221  11.101  21.143  0.00  0.00    +0.000 A 
ATOM     26  C   UNL     1      -0.863  11.302  22.015  0.00  0.00    +0.000 A 
ATOM     27  C   UNL     1      -1.042  10.486  23.135  0.00  0.00    +0.000 A 
ATOM     28  C   UNL     1      -0.149   9.449  23.396  0.00  0.00    +0.000 A 
ATOM     29  C   UNL     1       0.910   9.215  22.525  0.00  0.00    +0.000 A 
ATOM     30  C   UNL     1       1.089  10.029  21.404  0.00  0.00    +0.000 A 
ENDBRANCH  24  25
ENDBRANCH  22  24
ENDBRANCH  18  22
ENDBRANCH  17  19
ENDBRANCH   1  17
TORSDOF 6
ENDMDL
MODEL 8
REMARK VINA RESULT:      -8.2      2.608      9.543
REMARK  Name = 
REMARK  7 active torsions:
REMARK  status: ('A' for Active; 'I' for Inactive)
REMARK    1  A    between atoms: C_1  and  C_2
REMARK    2  A    between atoms: C_2  and  C_3
REMARK    3  A    between atoms: C_2  and  C_24
REMARK    4  A    between atoms: C_3  and  N_4
REMARK    5  A    between atoms: C_5  and  C_7
REMARK    6  A    between atoms: C_7  and  C_8
REMARK    7  A    between atoms: C_8  and  N_9
REMARK                            x       y       z     vdW  Elec       q    Type
REMARK                         _______ _______ _______ _____ _____    ______ ____
ROOT
ATOM      1  C   UNL     1       2.709   7.449  18.742  0.00  0.00    +0.000 C 
ENDROOT
BRANCH   1   2
ATOM      2  N   UNL     1       3.321   6.343  17.989  0.00  0.00    +0.000 N 
ATOM      3  C   UNL     1       4.464   6.662  17.231  0.00  0.00    +0.000 A 
ATOM      4  O   UNL     1       4.925   7.801  17.186  0.00  0.00    +0.000 OA
ATOM      5  C   UNL     1       5.071   5.568  16.523  0.00  0.00    +0.000 A 
ATOM      6  C   UNL     1       6.159   5.572  15.669  0.00  0.00    +0.000 A 
ATOM      7  C   UNL     1       6.370   4.244  15.240  0.00  0.00    +0.000 A 
ATOM      8  C   UNL     1       5.405   3.467  15.843  0.00  0.00    +0.000 A 
ATOM      9  N   UNL     1       4.613   4.280  16.622  0.00  0.00    +0.000 N 
ATOM     10  C   UNL     1       3.501   3.942  17.419  0.00  0.00    +0.000 A 
ATOM     11  C   UNL     1       3.074   2.609  17.523  0.00  0.00    +0.000 A 
ATOM     12  C   UNL     1       1.964   2.305  18.305  0.00  0.00    +0.000 A 
ATOM     13  C   UNL     1       1.298   3.328  18.964  0.00  0.00    +0.000 A 
ATOM     14  F   UNL     1       0.223   3.034  19.705  0.00  0.00    +0.000 F 
ATOM     15  C   UNL     1       1.723   4.656  18.873  0.00  0.00    +0.000 A 
ATOM     16  C   UNL     1       2.841   4.993  18.099  0.00  0.00    +0.000 A 
ENDBRANCH   1   2
BRANCH   1  17
ATOM     17  C   UNL     1       2.010   8.442  17.815  0.00  0.00    +0.000 C 
BRANCH  17  19
ATOM     18  N   UNL     1       0.089   9.889  17.677  0.00  0.00    +0.000 N 
ATOM     19  C   UNL     1       0.940   9.229  18.540  0.00  0.00    +0.000 C 
ATOM     20  O   UNL     1       0.865   9.297  19.763  0.00  0.00    +0.000 OA
ATOM     21  H   UNL     1       0.338   9.941  16.698  0.00  0.00    +0.000 HD
BRANCH  18  22
ATOM     22  C   UNL     1      -0.977  10.766  18.134  0.00  0.00    +0.000 C 
BRANCH  22  24
ATOM     23  C   UNL     1      -2.449   9.841  16.282  0.00  0.00    +0.000 C 
ATOM     24  C   UNL     1      -2.388  10.260  17.758  0.00  0.00    +0.000 C 
BRANCH  24  25
ATOM     25  C   UNL     1      -3.500  11.227  18.154  0.00  0.00    +0.000 A 
ATOM     26  C   UNL     1      -3.422  11.901  19.386  0.00  0.00    +0.000 A 
ATOM     27  C   UNL     1      -4.464  12.725  19.819  0.00  0.00    +0.000 A 
ATOM     28  C   UNL     1      -5.595  12.899  19.024  0.00  0.00    +0.000 A 
ATOM     29  C   UNL     1      -5.674  12.266  17.788  0.00  0.00    +0.000 A 
ATOM     30  C   UNL     1      -4.632  11.444  17.353  0.00  0.00    +0.000 A 
ENDBRANCH  24  25
ENDBRANCH  22  24
ENDBRANCH  18  22
ENDBRANCH  17  19
ENDBRANCH   1  17
TORSDOF 6
ENDMDL
MODEL 9
REMARK VINA RESULT:      -8.1      2.602      9.251
REMARK  Name = 
REMARK  7 active torsions:
REMARK  status: ('A' for Active; 'I' for Inactive)
REMARK    1  A    between atoms: C_1  and  C_2
REMARK    2  A    between atoms: C_2  and  C_3
REMARK    3  A    between atoms: C_2  and  C_24
REMARK    4  A    between atoms: C_3  and  N_4
REMARK    5  A    between atoms: C_5  and  C_7
REMARK    6  A    between atoms: C_7  and  C_8
REMARK    7  A    between atoms: C_8  and  N_9
REMARK                            x       y       z     vdW  Elec       q    Type
REMARK                         _______ _______ _______ _____ _____    ______ ____
ROOT
ATOM      1  C   UNL     1       2.664   7.341  18.642  0.00  0.00    +0.000 C 
ENDROOT
BRANCH   1   2
ATOM      2  N   UNL     1       3.326   6.243  17.921  0.00  0.00    +0.000 N 
ATOM      3  C   UNL     1       4.483   6.581  17.195  0.00  0.00    +0.000 A 
ATOM      4  O   UNL     1       4.918   7.731  17.150  0.00  0.00    +0.000 OA
ATOM      5  C   UNL     1       5.140   5.495  16.519  0.00  0.00    +0.000 A 
ATOM      6  C   UNL     1       6.253   5.517  15.699  0.00  0.00    +0.000 A 
ATOM      7  C   UNL     1       6.510   4.190  15.293  0.00  0.00    +0.000 A 
ATOM      8  C   UNL     1       5.547   3.396  15.876  0.00  0.00    +0.000 A 
ATOM      9  N   UNL     1       4.711   4.197  16.620  0.00  0.00    +0.000 N 
ATOM     10  C   UNL     1       3.584   3.841  17.387  0.00  0.00    +0.000 A 
ATOM     11  C   UNL     1       3.187   2.499  17.494  0.00  0.00    +0.000 A 
ATOM     12  C   UNL     1       2.061   2.176  18.245  0.00  0.00    +0.000 A 
ATOM     13  C   UNL     1       1.350   3.189  18.870  0.00  0.00    +0.000 A 
ATOM     14  F   UNL     1       0.260   2.876  19.582  0.00  0.00    +0.000 F 
ATOM     15  C   UNL     1       1.744   4.525  18.777  0.00  0.00    +0.000 A 
ATOM     16  C   UNL     1       2.877   4.882  18.034  0.00  0.00    +0.000 A 
ENDBRANCH   1   2
BRANCH   1  17
ATOM     17  C   UNL     1       1.835   8.212  17.700  0.00  0.00    +0.000 C 
BRANCH  17  19
ATOM     18  N   UNL     1       0.613   9.672  19.177  0.00  0.00    +0.000 N 
ATOM     19  C   UNL     1       1.637   9.607  18.254  0.00  0.00    +0.000 C 
ATOM     20  O   UNL     1       2.296  10.576  17.891  0.00  0.00    +0.000 OA
ATOM     21  H   UNL     1      -0.004   8.876  19.272  0.00  0.00    +0.000 HD
BRANCH  18  22
ATOM     22  C   UNL     1       0.187  10.916  19.798  0.00  0.00    +0.000 C 
BRANCH  22  24
ATOM     23  C   UNL     1      -0.320  13.361  19.330  0.00  0.00    +0.000 C 
ATOM     24  C   UNL     1      -0.416  11.924  18.795  0.00  0.00    +0.000 C 
BRANCH  24  25
ATOM     25  C   UNL     1      -1.821  11.549  18.332  0.00  0.00    +0.000 A 
ATOM     26  C   UNL     1      -2.934  12.049  19.031  0.00  0.00    +0.000 A 
ATOM     27  C   UNL     1      -4.230  11.655  18.689  0.00  0.00    +0.000 A 
ATOM     28  C   UNL     1      -4.437  10.767  17.636  0.00  0.00    +0.000 A 
ATOM     29  C   UNL     1      -3.350  10.289  16.912  0.00  0.00    +0.000 A 
ATOM     30  C   UNL     1      -2.053  10.683  17.252  0.00  0.00    +0.000 A 
ENDBRANCH  24  25
ENDBRANCH  22  24
ENDBRANCH  18  22
ENDBRANCH  17  19
ENDBRANCH   1  17
TORSDOF 6
ENDMDL
