MODEL 1
REMARK VINA RESULT:      -5.5      0.000      0.000
REMARK  Name = 
REMARK  5 active torsions:
REMARK  status: ('A' for Active; 'I' for Inactive)
REMARK    1  A    between atoms: C_1  and  C_2
REMARK    2  A    between atoms: C_4  and  O_5
REMARK    3  A    between atoms: C_6  and  O_7
REMARK    4  A    between atoms: C_8  and  O_9
REMARK    5  A    between atoms: C_10  and  O_11
REMARK                            x       y       z     vdW  Elec       q    Type
REMARK                         _______ _______ _______ _____ _____    ______ ____
ROOT
ATOM      1  C   UNL     1       1.485   4.563  20.422  0.00  0.00    +0.000 C 
ATOM      2  C   UNL     1       1.977   3.111  20.414  0.00  0.00    +0.000 C 
ATOM      3  N   UNL     1       3.447   3.067  20.474  0.00  0.00    +0.000 NA
ATOM      4  C   UNL     1       4.095   3.369  19.210  0.00  0.00    +0.000 C 
ATOM      5  C   UNL     1       3.593   2.501  18.028  0.00  0.00    +0.000 C 
ATOM      6  C   UNL     1       2.063   2.532  17.908  0.00  0.00    +0.000 C 
ATOM      7  C   UNL     1       1.398   2.246  19.267  0.00  0.00    +0.000 C 
ATOM      8  H   UNL     1       3.779   2.173  20.824  0.00  0.00    +0.000 HD
ENDROOT
BRANCH   4   9
ATOM      9  O   UNL     1       5.487   3.153  19.378  0.00  0.00    +0.000 OA
ATOM     10  H   UNL     1       5.706   3.454  20.280  0.00  0.00    +0.000 HD
ENDBRANCH   4   9
BRANCH   5  11
ATOM     11  O   UNL     1       4.078   1.153  18.202  0.00  0.00    +0.000 OA
ATOM     12  H   UNL     1       3.567   0.563  17.620  0.00  0.00    +0.000 HD
ENDBRANCH   5  11
BRANCH   6  13
ATOM     13  O   UNL     1       1.545   3.766  17.388  0.00  0.00    +0.000 OA
ATOM     14  H   UNL     1       1.744   3.837  16.437  0.00  0.00    +0.000 HD
ENDBRANCH   6  13
BRANCH   7  15
ATOM     15  O   UNL     1      -0.015   2.409  19.156  0.00  0.00    +0.000 OA
ATOM     16  H   UNL     1      -0.206   3.317  19.470  0.00  0.00    +0.000 HD
ENDBRANCH   7  15
TORSDOF 4
ENDMDL
MODEL 2
REMARK VINA RESULT:      -5.4      1.689      2.024
REMARK  Name = 
REMARK  5 active torsions:
REMARK  status: ('A' for Active; 'I' for Inactive)
REMARK    1  A    between atoms: C_1  and  C_2
REMARK    2  A    between atoms: C_4  and  O_5
REMARK    3  A    between atoms: C_6  and  O_7
REMARK    4  A    between atoms: C_8  and  O_9
REMARK    5  A    between atoms: C_10  and  O_11
REMARK                            x       y       z     vdW  Elec       q    Type
REMARK                         _______ _______ _______ _____ _____    ______ ____
ROOT
ATOM      1  C   UNL     1       2.894   2.982  20.543  0.00  0.00    +0.000 C 
ATOM      2  C   UNL     1       3.794   2.266  19.529  0.00  0.00    +0.000 C 
ATOM      3  N   UNL     1       5.134   2.874  19.514  0.00  0.00    +0.000 NA
ATOM      4  C   UNL     1       5.201   4.132  18.792  0.00  0.00    +0.000 C 
ATOM      5  C   UNL     1       4.646   4.052  17.347  0.00  0.00    +0.000 C 
ATOM      6  C   UNL     1       3.236   3.444  17.310  0.00  0.00    +0.000 C 
ATOM      7  C   UNL     1       3.182   2.131  18.112  0.00  0.00    +0.000 C 
ATOM      8  H   UNL     1       5.831   2.233  19.148  0.00  0.00    +0.000 HD
ENDROOT
BRANCH   4   9
ATOM      9  O   UNL     1       6.561   4.527  18.739  0.00  0.00    +0.000 OA
ATOM     10  H   UNL     1       6.737   5.026  19.559  0.00  0.00    +0.000 HD
ENDBRANCH   4   9
BRANCH   5  11
ATOM     11  O   UNL     1       5.566   3.291  16.537  0.00  0.00    +0.000 OA
ATOM     12  H   UNL     1       6.028   3.902  15.935  0.00  0.00    +0.000 HD
ENDBRANCH   5  11
BRANCH   6  13
ATOM     13  O   UNL     1       2.210   4.326  17.791  0.00  0.00    +0.000 OA
ATOM     14  H   UNL     1       1.502   3.812  18.219  0.00  0.00    +0.000 HD
ENDBRANCH   6  13
BRANCH   7  15
ATOM     15  O   UNL     1       1.837   1.658  18.172  0.00  0.00    +0.000 OA
ATOM     16  H   UNL     1       1.295   2.424  18.451  0.00  0.00    +0.000 HD
ENDBRANCH   7  15
TORSDOF 4
ENDMDL
MODEL 3
REMARK VINA RESULT:      -5.3      1.766      2.469
REMARK  Name = 
REMARK  5 active torsions:
REMARK  status: ('A' for Active; 'I' for Inactive)
REMARK    1  A    between atoms: C_1  and  C_2
REMARK    2  A    between atoms: C_4  and  O_5
REMARK    3  A    between atoms: C_6  and  O_7
REMARK    4  A    between atoms: C_8  and  O_9
REMARK    5  A    between atoms: C_10  and  O_11
REMARK                            x       y       z     vdW  Elec       q    Type
REMARK                         _______ _______ _______ _____ _____    ______ ____
ROOT
ATOM      1  C   UNL     1       1.000   2.098  18.982  0.00  0.00    +0.000 C 
ATOM      2  C   UNL     1       2.208   2.237  18.048  0.00  0.00    +0.000 C 
ATOM      3  N   UNL     1       3.360   1.493  18.584  0.00  0.00    +0.000 NA
ATOM      4  C   UNL     1       4.037   2.167  19.677  0.00  0.00    +0.000 C 
ATOM      5  C   UNL     1       4.462   3.620  19.346  0.00  0.00    +0.000 C 
ATOM      6  C   UNL     1       3.287   4.447  18.803  0.00  0.00    +0.000 C 
ATOM      7  C   UNL     1       2.563   3.697  17.671  0.00  0.00    +0.000 C 
ATOM      8  H   UNL     1       4.029   1.265  17.856  0.00  0.00    +0.000 HD
ENDROOT
BRANCH   4   9
ATOM      9  O   UNL     1       5.195   1.413  19.996  0.00  0.00    +0.000 OA
ATOM     10  H   UNL     1       5.952   1.897  19.617  0.00  0.00    +0.000 HD
ENDBRANCH   4   9
BRANCH   5  11
ATOM     11  O   UNL     1       5.555   3.583  18.406  0.00  0.00    +0.000 OA
ATOM     12  H   UNL     1       6.372   3.364  18.889  0.00  0.00    +0.000 HD
ENDBRANCH   5  11
BRANCH   6  13
ATOM     13  O   UNL     1       2.327   4.821  19.803  0.00  0.00    +0.000 OA
ATOM     14  H   UNL     1       1.440   4.885  19.407  0.00  0.00    +0.000 HD
ENDBRANCH   6  13
BRANCH   7  15
ATOM     15  O   UNL     1       1.401   4.427  17.276  0.00  0.00    +0.000 OA
ATOM     16  H   UNL     1       1.691   5.357  17.175  0.00  0.00    +0.000 HD
ENDBRANCH   7  15
TORSDOF 4
ENDMDL
MODEL 4
REMARK VINA RESULT:      -5.2      1.514      1.755
REMARK  Name = 
REMARK  5 active torsions:
REMARK  status: ('A' for Active; 'I' for Inactive)
REMARK    1  A    between atoms: C_1  and  C_2
REMARK    2  A    between atoms: C_4  and  O_5
REMARK    3  A    between atoms: C_6  and  O_7
REMARK    4  A    between atoms: C_8  and  O_9
REMARK    5  A    between atoms: C_10  and  O_11
REMARK                            x       y       z     vdW  Elec       q    Type
REMARK                         _______ _______ _______ _____ _____    ______ ____
ROOT
ATOM      1  C   UNL     1       1.798   4.943  18.099  0.00  0.00    +0.000 C 
ATOM      2  C   UNL     1       2.432   4.590  19.449  0.00  0.00    +0.000 C 
ATOM      3  N   UNL     1       3.898   4.698  19.371  0.00  0.00    +0.000 NA
ATOM      4  C   UNL     1       4.534   3.579  18.700  0.00  0.00    +0.000 C 
ATOM      5  C   UNL     1       4.141   2.197  19.281  0.00  0.00    +0.000 C 
ATOM      6  C   UNL     1       2.618   2.025  19.362  0.00  0.00    +0.000 C 
ATOM      7  C   UNL     1       1.962   3.239  20.044  0.00  0.00    +0.000 C 
ATOM      8  H   UNL     1       4.312   4.826  20.290  0.00  0.00    +0.000 HD
ENDROOT
BRANCH   4   9
ATOM      9  O   UNL     1       5.937   3.745  18.822  0.00  0.00    +0.000 OA
ATOM     10  H   UNL     1       6.346   3.092  18.224  0.00  0.00    +0.000 HD
ENDBRANCH   4   9
BRANCH   5  11
ATOM     11  O   UNL     1       4.755   2.046  20.578  0.00  0.00    +0.000 OA
ATOM     12  H   UNL     1       4.526   2.822  21.122  0.00  0.00    +0.000 HD
ENDBRANCH   5  11
BRANCH   6  13
ATOM     13  O   UNL     1       1.988   1.811  18.089  0.00  0.00    +0.000 OA
ATOM     14  H   UNL     1       2.646   1.506  17.439  0.00  0.00    +0.000 HD
ENDBRANCH   6  13
BRANCH   7  15
ATOM     15  O   UNL     1       0.541   3.115  19.989  0.00  0.00    +0.000 OA
ATOM     16  H   UNL     1       0.200   4.015  19.809  0.00  0.00    +0.000 HD
ENDBRANCH   7  15
TORSDOF 4
ENDMDL
MODEL 5
REMARK VINA RESULT:      -5.2      1.601      3.431
REMARK  Name = 
REMARK  5 active torsions:
REMARK  status: ('A' for Active; 'I' for Inactive)
REMARK    1  A    between atoms: C_1  and  C_2
REMARK    2  A    between atoms: C_4  and  O_5
REMARK    3  A    between atoms: C_6  and  O_7
REMARK    4  A    between atoms: C_8  and  O_9
REMARK    5  A    between atoms: C_10  and  O_11
REMARK                            x       y       z     vdW  Elec       q    Type
REMARK                         _______ _______ _______ _____ _____    ______ ____
ROOT
ATOM      1  C   UNL     1       4.377   5.322  19.290  0.00  0.00    +0.000 C 
ATOM      2  C   UNL     1       3.354   4.658  18.361  0.00  0.00    +0.000 C 
ATOM      3  N   UNL     1       2.043   4.568  19.024  0.00  0.00    +0.000 NA
ATOM      4  C   UNL     1       1.952   3.499  20.003  0.00  0.00    +0.000 C 
ATOM      5  C   UNL     1       2.356   2.109  19.449  0.00  0.00    +0.000 C 
ATOM      6  C   UNL     1       3.731   2.145  18.766  0.00  0.00    +0.000 C 
ATOM      7  C   UNL     1       3.816   3.307  17.760  0.00  0.00    +0.000 C 
ATOM      8  H   UNL     1       1.289   4.478  18.349  0.00  0.00    +0.000 HD
ENDROOT
BRANCH   4   9
ATOM      9  O   UNL     1       0.609   3.440  20.453  0.00  0.00    +0.000 OA
ATOM     10  H   UNL     1       0.404   4.317  20.828  0.00  0.00    +0.000 HD
ENDBRANCH   4   9
BRANCH   5  11
ATOM     11  O   UNL     1       1.331   1.655  18.541  0.00  0.00    +0.000 OA
ATOM     12  H   UNL     1       0.905   2.434  18.139  0.00  0.00    +0.000 HD
ENDBRANCH   5  11
BRANCH   6  13
ATOM     13  O   UNL     1       4.833   2.241  19.682  0.00  0.00    +0.000 OA
ATOM     14  H   UNL     1       5.445   2.942  19.395  0.00  0.00    +0.000 HD
ENDBRANCH   6  13
BRANCH   7  15
ATOM     15  O   UNL     1       5.141   3.398  17.239  0.00  0.00    +0.000 OA
ATOM     16  H   UNL     1       5.301   4.350  17.077  0.00  0.00    +0.000 HD
ENDBRANCH   7  15
TORSDOF 4
ENDMDL
MODEL 6
REMARK VINA RESULT:      -5.2      3.819      4.705
REMARK  Name = 
REMARK  5 active torsions:
REMARK  status: ('A' for Active; 'I' for Inactive)
REMARK    1  A    between atoms: C_1  and  C_2
REMARK    2  A    between atoms: C_4  and  O_5
REMARK    3  A    between atoms: C_6  and  O_7
REMARK    4  A    between atoms: C_8  and  O_9
REMARK    5  A    between atoms: C_10  and  O_11
REMARK                            x       y       z     vdW  Elec       q    Type
REMARK                         _______ _______ _______ _____ _____    ______ ____
ROOT
ATOM      1  C   UNL     1       3.721   5.132  17.481  0.00  0.00    +0.000 C 
ATOM      2  C   UNL     1       4.806   4.050  17.537  0.00  0.00    +0.000 C 
ATOM      3  N   UNL     1       5.549   4.134  18.805  0.00  0.00    +0.000 NA
ATOM      4  C   UNL     1       6.520   5.212  18.847  0.00  0.00    +0.000 C 
ATOM      5  C   UNL     1       7.515   5.202  17.658  0.00  0.00    +0.000 C 
ATOM      6  C   UNL     1       6.787   5.139  16.307  0.00  0.00    +0.000 C 
ATOM      7  C   UNL     1       5.737   4.013  16.300  0.00  0.00    +0.000 C 
ATOM      8  H   UNL     1       6.004   3.254  19.030  0.00  0.00    +0.000 HD
ENDROOT
BRANCH   4   9
ATOM      9  O   UNL     1       7.251   5.086  20.056  0.00  0.00    +0.000 OA
ATOM     10  H   UNL     1       6.595   5.099  20.778  0.00  0.00    +0.000 HD
ENDBRANCH   4   9
BRANCH   5  11
ATOM     11  O   UNL     1       8.420   4.090  17.818  0.00  0.00    +0.000 OA
ATOM     12  H   UNL     1       8.581   3.693  16.943  0.00  0.00    +0.000 HD
ENDBRANCH   5  11
BRANCH   6  13
ATOM     13  O   UNL     1       6.152   6.370  15.931  0.00  0.00    +0.000 OA
ATOM     14  H   UNL     1       5.744   6.280  15.052  0.00  0.00    +0.000 HD
ENDBRANCH   6  13
BRANCH   7  15
ATOM     15  O   UNL     1       4.989   4.061  15.086  0.00  0.00    +0.000 OA
ATOM     16  H   UNL     1       4.114   3.673  15.294  0.00  0.00    +0.000 HD
ENDBRANCH   7  15
TORSDOF 4
ENDMDL
MODEL 7
REMARK VINA RESULT:      -5.2      1.235      1.334
REMARK  Name = 
REMARK  5 active torsions:
REMARK  status: ('A' for Active; 'I' for Inactive)
REMARK    1  A    between atoms: C_1  and  C_2
REMARK    2  A    between atoms: C_4  and  O_5
REMARK    3  A    between atoms: C_6  and  O_7
REMARK    4  A    between atoms: C_8  and  O_9
REMARK    5  A    between atoms: C_10  and  O_11
REMARK                            x       y       z     vdW  Elec       q    Type
REMARK                         _______ _______ _______ _____ _____    ______ ____
ROOT
ATOM      1  C   UNL     1       2.043   5.267  19.856  0.00  0.00    +0.000 C 
ATOM      2  C   UNL     1       2.871   4.037  20.249  0.00  0.00    +0.000 C 
ATOM      3  N   UNL     1       4.095   3.962  19.436  0.00  0.00    +0.000 NA
ATOM      4  C   UNL     1       3.877   3.472  18.087  0.00  0.00    +0.000 C 
ATOM      5  C   UNL     1       3.127   2.116  18.030  0.00  0.00    +0.000 C 
ATOM      6  C   UNL     1       1.826   2.150  18.846  0.00  0.00    +0.000 C 
ATOM      7  C   UNL     1       2.077   2.707  20.259  0.00  0.00    +0.000 C 
ATOM      8  H   UNL     1       4.812   3.404  19.891  0.00  0.00    +0.000 HD
ENDROOT
BRANCH   4   9
ATOM      9  O   UNL     1       5.146   3.320  17.473  0.00  0.00    +0.000 OA
ATOM     10  H   UNL     1       5.219   4.031  16.811  0.00  0.00    +0.000 HD
ENDBRANCH   4   9
BRANCH   5  11
ATOM     11  O   UNL     1       4.011   1.076  18.496  0.00  0.00    +0.000 OA
ATOM     12  H   UNL     1       3.664   0.217  18.196  0.00  0.00    +0.000 HD
ENDBRANCH   5  11
BRANCH   6  13
ATOM     13  O   UNL     1       0.772   2.904  18.229  0.00  0.00    +0.000 OA
ATOM     14  H   UNL     1      -0.043   2.831  18.756  0.00  0.00    +0.000 HD
ENDBRANCH   6  13
BRANCH   7  15
ATOM     15  O   UNL     1       0.835   2.849  20.948  0.00  0.00    +0.000 OA
ATOM     16  H   UNL     1       0.529   3.761  20.763  0.00  0.00    +0.000 HD
ENDBRANCH   7  15
TORSDOF 4
ENDMDL
MODEL 8
REMARK VINA RESULT:      -5.1      3.589      5.389
REMARK  Name = 
REMARK  5 active torsions:
REMARK  status: ('A' for Active; 'I' for Inactive)
REMARK    1  A    between atoms: C_1  and  C_2
REMARK    2  A    between atoms: C_4  and  O_5
REMARK    3  A    between atoms: C_6  and  O_7
REMARK    4  A    between atoms: C_8  and  O_9
REMARK    5  A    between atoms: C_10  and  O_11
REMARK                            x       y       z     vdW  Elec       q    Type
REMARK                         _______ _______ _______ _____ _____    ______ ____
ROOT
ATOM      1  C   UNL     1       5.775   5.099  14.649  0.00  0.00    +0.000 C 
ATOM      2  C   UNL     1       6.529   4.411  15.793  0.00  0.00    +0.000 C 
ATOM      3  N   UNL     1       5.770   3.247  16.280  0.00  0.00    +0.000 NA
ATOM      4  C   UNL     1       4.647   3.593  17.133  0.00  0.00    +0.000 C 
ATOM      5  C   UNL     1       5.028   4.507  18.326  0.00  0.00    +0.000 C 
ATOM      6  C   UNL     1       5.804   5.750  17.867  0.00  0.00    +0.000 C 
ATOM      7  C   UNL     1       6.966   5.362  16.935  0.00  0.00    +0.000 C 
ATOM      8  H   UNL     1       6.372   2.584  16.759  0.00  0.00    +0.000 HD
ENDROOT
BRANCH   4   9
ATOM      9  O   UNL     1       4.101   2.386  17.637  0.00  0.00    +0.000 OA
ATOM     10  H   UNL     1       3.461   2.073  16.972  0.00  0.00    +0.000 HD
ENDBRANCH   4   9
BRANCH   5  11
ATOM     11  O   UNL     1       5.791   3.736  19.277  0.00  0.00    +0.000 OA
ATOM     12  H   UNL     1       5.186   3.411  19.969  0.00  0.00    +0.000 HD
ENDBRANCH   5  11
BRANCH   6  13
ATOM     13  O   UNL     1       4.989   6.734  17.209  0.00  0.00    +0.000 OA
ATOM     14  H   UNL     1       4.713   6.408  16.334  0.00  0.00    +0.000 HD
ENDBRANCH   6  13
BRANCH   7  15
ATOM     15  O   UNL     1       7.586   6.540  16.420  0.00  0.00    +0.000 OA
ATOM     16  H   UNL     1       7.853   6.323  15.504  0.00  0.00    +0.000 HD
ENDBRANCH   7  15
TORSDOF 4
ENDMDL
MODEL 9
REMARK VINA RESULT:      -5.1      2.032      3.046
REMARK  Name = 
REMARK  5 active torsions:
REMARK  status: ('A' for Active; 'I' for Inactive)
REMARK    1  A    between atoms: C_1  and  C_2
REMARK    2  A    between atoms: C_4  and  O_5
REMARK    3  A    between atoms: C_6  and  O_7
REMARK    4  A    between atoms: C_8  and  O_9
REMARK    5  A    between atoms: C_10  and  O_11
REMARK                            x       y       z     vdW  Elec       q    Type
REMARK                         _______ _______ _______ _____ _____    ______ ____
ROOT
ATOM      1  C   UNL     1       1.763   4.537  17.753  0.00  0.00    +0.000 C 
ATOM      2  C   UNL     1       3.258   4.373  18.055  0.00  0.00    +0.000 C 
ATOM      3  N   UNL     1       3.718   3.034  17.653  0.00  0.00    +0.000 NA
ATOM      4  C   UNL     1       3.343   1.981  18.580  0.00  0.00    +0.000 C 
ATOM      5  C   UNL     1       3.762   2.261  20.046  0.00  0.00    +0.000 C 
ATOM      6  C   UNL     1       3.284   3.640  20.521  0.00  0.00    +0.000 C 
ATOM      7  C   UNL     1       3.661   4.735  19.506  0.00  0.00    +0.000 C 
ATOM      8  H   UNL     1       4.723   3.015  17.502  0.00  0.00    +0.000 HD
ENDROOT
BRANCH   4   9
ATOM      9  O   UNL     1       3.966   0.784  18.146  0.00  0.00    +0.000 OA
ATOM     10  H   UNL     1       3.670   0.082  18.755  0.00  0.00    +0.000 HD
ENDBRANCH   4   9
BRANCH   5  11
ATOM     11  O   UNL     1       5.196   2.139  20.151  0.00  0.00    +0.000 OA
ATOM     12  H   UNL     1       5.602   2.962  19.826  0.00  0.00    +0.000 HD
ENDBRANCH   5  11
BRANCH   6  13
ATOM     13  O   UNL     1       1.873   3.710  20.778  0.00  0.00    +0.000 OA
ATOM     14  H   UNL     1       1.592   2.946  21.312  0.00  0.00    +0.000 HD
ENDBRANCH   6  13
BRANCH   7  15
ATOM     15  O   UNL     1       3.092   5.981  19.907  0.00  0.00    +0.000 OA
ATOM     16  H   UNL     1       2.679   6.358  19.104  0.00  0.00    +0.000 HD
ENDBRANCH   7  15
TORSDOF 4
ENDMDL
