MODEL 1
REMARK VINA RESULT:      -8.7      0.000      0.000
REMARK  Name = 
REMARK  8 active torsions:
REMARK  status: ('A' for Active; 'I' for Inactive)
REMARK    1  A    between atoms: C_2  and  C_16
REMARK    2  A    between atoms: N_3  and  C_4
REMARK    3  A    between atoms: C_4  and  C_5
REMARK    4  A    between atoms: C_5  and  O_6
REMARK    5  A    between atoms: C_5  and  C_7
REMARK    6  A    between atoms: C_10  and  N_11
REMARK    7  A    between atoms: C_20  and  S_21
REMARK    8  A    between atoms: S_21  and  N_24
REMARK                            x       y       z     vdW  Elec       q    Type
REMARK                         _______ _______ _______ _____ _____    ______ ____
ROOT
ATOM      1  O   UNL     1       1.923   6.246  20.525  0.00  0.00    +0.000 OA
ATOM      2  C   UNL     1       2.380   6.543  19.427  0.00  0.00    +0.000 C 
ATOM      3  N   UNL     1       2.301   7.804  18.873  0.00  0.00    +0.000 N 
ATOM      4  H   UNL     1       2.427   7.903  17.870  0.00  0.00    +0.000 HD
ENDROOT
BRANCH   2   5
ATOM      5  C   UNL     1       2.988   5.498  18.572  0.00  0.00    +0.000 A 
ATOM      6  C   UNL     1       2.782   4.137  18.823  0.00  0.00    +0.000 A 
ATOM      7  C   UNL     1       3.433   3.184  18.036  0.00  0.00    +0.000 A 
ATOM      8  C   UNL     1       4.301   3.589  17.014  0.00  0.00    +0.000 A 
ATOM      9  C   UNL     1       4.498   4.954  16.762  0.00  0.00    +0.000 A 
ATOM     10  C   UNL     1       3.827   5.909  17.530  0.00  0.00    +0.000 A 
BRANCH   9  11
ATOM     11  S   UNL     1       5.821   5.482  15.681  0.00  0.00    +0.000 S 
ATOM     12  O   UNL     1       6.083   4.372  14.791  0.00  0.00    +0.000 OA
ATOM     13  O   UNL     1       5.449   6.783  15.159  0.00  0.00    +0.000 OA
BRANCH  11  14
ATOM     14  N   UNL     1       7.164   5.699  16.659  0.00  0.00    +0.000 NA
ATOM     15  C   UNL     1       7.578   4.686  17.636  0.00  0.00    +0.000 C 
ATOM     16  C   UNL     1       7.527   5.416  18.964  0.00  0.00    +0.000 C 
ATOM     17  C   UNL     1       7.889   6.852  18.621  0.00  0.00    +0.000 C 
ATOM     18  C   UNL     1       7.519   7.037  17.153  0.00  0.00    +0.000 C 
ENDBRANCH  11  14
ENDBRANCH   9  11
ENDBRANCH   2   5
BRANCH   3  19
ATOM     19  C   UNL     1       1.511   8.828  19.541  0.00  0.00    +0.000 C 
BRANCH  19  20
ATOM     20  C   UNL     1       1.258  10.067  18.653  0.00  0.00    +0.000 C 
BRANCH  20  21
ATOM     21  C   UNL     1      -0.202  10.481  18.510  0.00  0.00    +0.000 A 
ATOM     22  C   UNL     1      -1.048   9.898  17.549  0.00  0.00    +0.000 A 
ATOM     23  C   UNL     1      -2.398  10.255  17.453  0.00  0.00    +0.000 A 
ATOM     24  C   UNL     1      -2.926  11.201  18.335  0.00  0.00    +0.000 A 
ATOM     25  C   UNL     1      -2.115  11.777  19.318  0.00  0.00    +0.000 A 
ATOM     26  C   UNL     1      -0.766  11.412  19.403  0.00  0.00    +0.000 A 
BRANCH  24  27
ATOM     27  N   UNL     1      -4.342  11.573  18.240  0.00  0.00    +0.000 N 
ATOM     28  O   UNL     1      -5.041  10.973  17.409  0.00  0.00    +0.000 OA
ATOM     29  O   UNL     1      -4.756  12.464  18.993  0.00  0.00    +0.000 OA
ENDBRANCH  24  27
ENDBRANCH  20  21
BRANCH  20  30
ATOM     30  O   UNL     1       1.818   9.780  17.359  0.00  0.00    +0.000 OA
ATOM     31  H   UNL     1       1.198   9.179  16.909  0.00  0.00    +0.000 HD
ENDBRANCH  20  30
ENDBRANCH  19  20
ENDBRANCH   3  19
TORSDOF 8
ENDMDL
MODEL 2
REMARK VINA RESULT:      -8.0      1.352      1.831
REMARK  Name = 
REMARK  8 active torsions:
REMARK  status: ('A' for Active; 'I' for Inactive)
REMARK    1  A    between atoms: C_2  and  C_16
REMARK    2  A    between atoms: N_3  and  C_4
REMARK    3  A    between atoms: C_4  and  C_5
REMARK    4  A    between atoms: C_5  and  O_6
REMARK    5  A    between atoms: C_5  and  C_7
REMARK    6  A    between atoms: C_10  and  N_11
REMARK    7  A    between atoms: C_20  and  S_21
REMARK    8  A    between atoms: S_21  and  N_24
REMARK                            x       y       z     vdW  Elec       q    Type
REMARK                         _______ _______ _______ _____ _____    ______ ____
ROOT
ATOM      1  O   UNL     1       2.150   9.114  17.419  0.00  0.00    +0.000 OA
ATOM      2  C   UNL     1       2.173   8.449  18.448  0.00  0.00    +0.000 C 
ATOM      3  N   UNL     1       1.700   8.893  19.666  0.00  0.00    +0.000 N 
ATOM      4  H   UNL     1       2.015   8.423  20.510  0.00  0.00    +0.000 HD
ENDROOT
BRANCH   2   5
ATOM      5  C   UNL     1       2.815   7.114  18.451  0.00  0.00    +0.000 A 
ATOM      6  C   UNL     1       2.691   6.245  19.540  0.00  0.00    +0.000 A 
ATOM      7  C   UNL     1       3.373   5.027  19.531  0.00  0.00    +0.000 A 
ATOM      8  C   UNL     1       4.192   4.686  18.447  0.00  0.00    +0.000 A 
ATOM      9  C   UNL     1       4.307   5.557  17.355  0.00  0.00    +0.000 A 
ATOM     10  C   UNL     1       3.604   6.765  17.349  0.00  0.00    +0.000 A 
BRANCH   9  11
ATOM     11  S   UNL     1       5.573   5.282  16.121  0.00  0.00    +0.000 S 
ATOM     12  O   UNL     1       5.552   3.865  15.830  0.00  0.00    +0.000 OA
ATOM     13  O   UNL     1       5.362   6.261  15.073  0.00  0.00    +0.000 OA
BRANCH  11  14
ATOM     14  N   UNL     1       7.032   5.644  16.861  0.00  0.00    +0.000 NA
ATOM     15  C   UNL     1       7.650   4.737  17.834  0.00  0.00    +0.000 C 
ATOM     16  C   UNL     1       7.754   5.571  19.097  0.00  0.00    +0.000 C 
ATOM     17  C   UNL     1       7.972   6.989  18.596  0.00  0.00    +0.000 C 
ATOM     18  C   UNL     1       7.375   7.035  17.193  0.00  0.00    +0.000 C 
ENDBRANCH  11  14
ENDBRANCH   9  11
ENDBRANCH   2   5
BRANCH   3  19
ATOM     19  C   UNL     1       1.273  10.278  19.803  0.00  0.00    +0.000 C 
BRANCH  19  20
ATOM     20  C   UNL     1      -0.175  10.411  20.324  0.00  0.00    +0.000 C 
BRANCH  20  21
ATOM     21  C   UNL     1      -1.232  10.669  19.256  0.00  0.00    +0.000 A 
ATOM     22  C   UNL     1      -1.293   9.910  18.074  0.00  0.00    +0.000 A 
ATOM     23  C   UNL     1      -2.292  10.127  17.118  0.00  0.00    +0.000 A 
ATOM     24  C   UNL     1      -3.260  11.107  17.343  0.00  0.00    +0.000 A 
ATOM     25  C   UNL     1      -3.241  11.859  18.522  0.00  0.00    +0.000 A 
ATOM     26  C   UNL     1      -2.236  11.633  19.470  0.00  0.00    +0.000 A 
BRANCH  24  27
ATOM     27  N   UNL     1      -4.312  11.333  16.345  0.00  0.00    +0.000 N 
ATOM     28  O   UNL     1      -4.154  10.838  15.218  0.00  0.00    +0.000 OA
ATOM     29  O   UNL     1      -5.295  12.004  16.684  0.00  0.00    +0.000 OA
ENDBRANCH  24  27
ENDBRANCH  20  21
BRANCH  20  30
ATOM     30  O   UNL     1      -0.180  11.477  21.290  0.00  0.00    +0.000 OA
ATOM     31  H   UNL     1      -1.061  11.891  21.250  0.00  0.00    +0.000 HD
ENDBRANCH  20  30
ENDBRANCH  19  20
ENDBRANCH   3  19
TORSDOF 8
ENDMDL
MODEL 3
REMARK VINA RESULT:      -7.9      2.170      2.617
REMARK  Name = 
REMARK  8 active torsions:
REMARK  status: ('A' for Active; 'I' for Inactive)
REMARK    1  A    between atoms: C_2  and  C_16
REMARK    2  A    between atoms: N_3  and  C_4
REMARK    3  A    between atoms: C_4  and  C_5
REMARK    4  A    between atoms: C_5  and  O_6
REMARK    5  A    between atoms: C_5  and  C_7
REMARK    6  A    between atoms: C_10  and  N_11
REMARK    7  A    between atoms: C_20  and  S_21
REMARK    8  A    between atoms: S_21  and  N_24
REMARK                            x       y       z     vdW  Elec       q    Type
REMARK                         _______ _______ _______ _____ _____    ______ ____
ROOT
ATOM      1  O   UNL     1       1.338   4.890  20.524  0.00  0.00    +0.000 OA
ATOM      2  C   UNL     1       2.163   5.481  19.837  0.00  0.00    +0.000 C 
ATOM      3  N   UNL     1       2.422   6.833  19.932  0.00  0.00    +0.000 N 
ATOM      4  H   UNL     1       2.882   7.295  19.153  0.00  0.00    +0.000 HD
ENDROOT
BRANCH   2   5
ATOM      5  C   UNL     1       2.890   4.757  18.768  0.00  0.00    +0.000 A 
ATOM      6  C   UNL     1       2.932   3.359  18.731  0.00  0.00    +0.000 A 
ATOM      7  C   UNL     1       3.689   2.718  17.748  0.00  0.00    +0.000 A 
ATOM      8  C   UNL     1       4.417   3.471  16.817  0.00  0.00    +0.000 A 
ATOM      9  C   UNL     1       4.364   4.871  16.854  0.00  0.00    +0.000 A 
ATOM     10  C   UNL     1       3.586   5.515  17.820  0.00  0.00    +0.000 A 
BRANCH   9  11
ATOM     11  S   UNL     1       5.516   5.835  15.882  0.00  0.00    +0.000 S 
ATOM     12  O   UNL     1       5.743   5.086  14.666  0.00  0.00    +0.000 OA
ATOM     13  O   UNL     1       5.003   7.190  15.838  0.00  0.00    +0.000 OA
BRANCH  11  14
ATOM     14  N   UNL     1       6.947   5.868  16.753  0.00  0.00    +0.000 NA
ATOM     15  C   UNL     1       7.333   4.769  17.645  0.00  0.00    +0.000 C 
ATOM     16  C   UNL     1       7.461   5.430  19.005  0.00  0.00    +0.000 C 
ATOM     17  C   UNL     1       7.938   6.840  18.697  0.00  0.00    +0.000 C 
ATOM     18  C   UNL     1       7.474   7.138  17.275  0.00  0.00    +0.000 C 
ENDBRANCH  11  14
ENDBRANCH   9  11
ENDBRANCH   2   5
BRANCH   3  19
ATOM     19  C   UNL     1       1.584   7.661  20.787  0.00  0.00    +0.000 C 
BRANCH  19  20
ATOM     20  C   UNL     1       1.431   9.106  20.260  0.00  0.00    +0.000 C 
BRANCH  20  21
ATOM     21  C   UNL     1       0.394   9.957  20.983  0.00  0.00    +0.000 A 
ATOM     22  C   UNL     1       0.184   9.853  22.370  0.00  0.00    +0.000 A 
ATOM     23  C   UNL     1      -0.742  10.669  23.032  0.00  0.00    +0.000 A 
ATOM     24  C   UNL     1      -1.466  11.618  22.308  0.00  0.00    +0.000 A 
ATOM     25  C   UNL     1      -1.259  11.763  20.932  0.00  0.00    +0.000 A 
ATOM     26  C   UNL     1      -0.331  10.940  20.282  0.00  0.00    +0.000 A 
BRANCH  24  27
ATOM     27  N   UNL     1      -2.433  12.478  23.000  0.00  0.00    +0.000 N 
ATOM     28  O   UNL     1      -3.611  12.093  23.054  0.00  0.00    +0.000 OA
ATOM     29  O   UNL     1      -2.017  13.537  23.487  0.00  0.00    +0.000 OA
ENDBRANCH  24  27
ENDBRANCH  20  21
BRANCH  20  30
ATOM     30  O   UNL     1       1.104   9.013  18.863  0.00  0.00    +0.000 OA
ATOM     31  H   UNL     1       0.659   9.845  18.620  0.00  0.00    +0.000 HD
ENDBRANCH  20  30
ENDBRANCH  19  20
ENDBRANCH   3  19
TORSDOF 8
ENDMDL
MODEL 4
REMARK VINA RESULT:      -7.9      3.226      8.930
REMARK  Name = 
REMARK  8 active torsions:
REMARK  status: ('A' for Active; 'I' for Inactive)
REMARK    1  A    between atoms: C_2  and  C_16
REMARK    2  A    between atoms: N_3  and  C_4
REMARK    3  A    between atoms: C_4  and  C_5
REMARK    4  A    between atoms: C_5  and  O_6
REMARK    5  A    between atoms: C_5  and  C_7
REMARK    6  A    between atoms: C_10  and  N_11
REMARK    7  A    between atoms: C_20  and  S_21
REMARK    8  A    between atoms: S_21  and  N_24
REMARK                            x       y       z     vdW  Elec       q    Type
REMARK                         _______ _______ _______ _____ _____    ______ ____
ROOT
ATOM      1  O   UNL     1       2.640   5.184  21.154  0.00  0.00    +0.000 OA
ATOM      2  C   UNL     1       2.065   5.397  20.093  0.00  0.00    +0.000 C 
ATOM      3  N   UNL     1       1.592   4.405  19.257  0.00  0.00    +0.000 N 
ATOM      4  H   UNL     1       1.403   4.638  18.287  0.00  0.00    +0.000 HD
ENDROOT
BRANCH   2   5
ATOM      5  C   UNL     1       1.922   6.785  19.596  0.00  0.00    +0.000 A 
ATOM      6  C   UNL     1       2.388   7.161  18.332  0.00  0.00    +0.000 A 
ATOM      7  C   UNL     1       2.297   8.496  17.933  0.00  0.00    +0.000 A 
ATOM      8  C   UNL     1       1.761   9.456  18.801  0.00  0.00    +0.000 A 
ATOM      9  C   UNL     1       1.289   9.072  20.063  0.00  0.00    +0.000 A 
ATOM     10  C   UNL     1       1.353   7.732  20.455  0.00  0.00    +0.000 A 
BRANCH   9  11
ATOM     11  S   UNL     1       0.892  10.317  21.286  0.00  0.00    +0.000 S 
ATOM     12  O   UNL     1       1.005   9.667  22.574  0.00  0.00    +0.000 OA
ATOM     13  O   UNL     1       1.686  11.488  20.970  0.00  0.00    +0.000 OA
BRANCH  11  14
ATOM     14  N   UNL     1      -0.715  10.718  21.039  0.00  0.00    +0.000 NA
ATOM     15  C   UNL     1      -1.236  11.033  19.704  0.00  0.00    +0.000 C 
ATOM     16  C   UNL     1      -1.769  12.446  19.843  0.00  0.00    +0.000 C 
ATOM     17  C   UNL     1      -2.256  12.526  21.281  0.00  0.00    +0.000 C 
ATOM     18  C   UNL     1      -1.458  11.480  22.053  0.00  0.00    +0.000 C 
ENDBRANCH  11  14
ENDBRANCH   9  11
ENDBRANCH   2   5
BRANCH   3  19
ATOM     19  C   UNL     1       1.904   3.015  19.553  0.00  0.00    +0.000 C 
BRANCH  19  20
ATOM     20  C   UNL     1       2.913   2.401  18.557  0.00  0.00    +0.000 C 
BRANCH  20  21
ATOM     21  C   UNL     1       3.972   3.360  18.026  0.00  0.00    +0.000 A 
ATOM     22  C   UNL     1       5.025   3.826  18.835  0.00  0.00    +0.000 A 
ATOM     23  C   UNL     1       6.016   4.674  18.327  0.00  0.00    +0.000 A 
ATOM     24  C   UNL     1       5.972   5.060  16.985  0.00  0.00    +0.000 A 
ATOM     25  C   UNL     1       4.953   4.591  16.150  0.00  0.00    +0.000 A 
ATOM     26  C   UNL     1       3.967   3.743  16.671  0.00  0.00    +0.000 A 
BRANCH  24  27
ATOM     27  N   UNL     1       7.013   5.944  16.449  0.00  0.00    +0.000 N 
ATOM     28  O   UNL     1       7.648   5.551  15.459  0.00  0.00    +0.000 OA
ATOM     29  O   UNL     1       7.195   7.029  17.015  0.00  0.00    +0.000 OA
ENDBRANCH  24  27
ENDBRANCH  20  21
BRANCH  20  30
ATOM     30  O   UNL     1       2.151   1.856  17.466  0.00  0.00    +0.000 OA
ATOM     31  H   UNL     1       1.961   0.927  17.690  0.00  0.00    +0.000 HD
ENDBRANCH  20  30
ENDBRANCH  19  20
ENDBRANCH   3  19
TORSDOF 8
ENDMDL
MODEL 5
REMARK VINA RESULT:      -7.8      2.973      4.428
REMARK  Name = 
REMARK  8 active torsions:
REMARK  status: ('A' for Active; 'I' for Inactive)
REMARK    1  A    between atoms: C_2  and  C_16
REMARK    2  A    between atoms: N_3  and  C_4
REMARK    3  A    between atoms: C_4  and  C_5
REMARK    4  A    between atoms: C_5  and  O_6
REMARK    5  A    between atoms: C_5  and  C_7
REMARK    6  A    between atoms: C_10  and  N_11
REMARK    7  A    between atoms: C_20  and  S_21
REMARK    8  A    between atoms: S_21  and  N_24
REMARK                            x       y       z     vdW  Elec       q    Type
REMARK                         _______ _______ _______ _____ _____    ______ ____
ROOT
ATOM      1  O   UNL     1       2.247   8.608  17.168  0.00  0.00    +0.000 OA
ATOM      2  C   UNL     1       2.498   7.800  18.054  0.00  0.00    +0.000 C 
ATOM      3  N   UNL     1       2.067   7.926  19.359  0.00  0.00    +0.000 N 
ATOM      4  H   UNL     1       2.547   7.397  20.081  0.00  0.00    +0.000 HD
ENDROOT
BRANCH   2   5
ATOM      5  C   UNL     1       3.384   6.647  17.773  0.00  0.00    +0.000 A 
ATOM      6  C   UNL     1       4.616   6.811  17.133  0.00  0.00    +0.000 A 
ATOM      7  C   UNL     1       5.387   5.688  16.822  0.00  0.00    +0.000 A 
ATOM      8  C   UNL     1       4.920   4.405  17.133  0.00  0.00    +0.000 A 
ATOM      9  C   UNL     1       3.688   4.247  17.782  0.00  0.00    +0.000 A 
ATOM     10  C   UNL     1       2.927   5.370  18.118  0.00  0.00    +0.000 A 
BRANCH   9  11
ATOM     11  S   UNL     1       2.944   2.625  17.906  0.00  0.00    +0.000 S 
ATOM     12  O   UNL     1       1.844   2.612  16.967  0.00  0.00    +0.000 OA
ATOM     13  O   UNL     1       4.019   1.657  17.807  0.00  0.00    +0.000 OA
BRANCH  11  14
ATOM     14  N   UNL     1       2.313   2.518  19.454  0.00  0.00    +0.000 NA
ATOM     15  C   UNL     1       0.912   2.846  19.741  0.00  0.00    +0.000 C 
ATOM     16  C   UNL     1       0.999   3.973  20.751  0.00  0.00    +0.000 C 
ATOM     17  C   UNL     1       2.262   3.675  21.543  0.00  0.00    +0.000 C 
ATOM     18  C   UNL     1       3.145   2.839  20.623  0.00  0.00    +0.000 C 
ENDBRANCH  11  14
ENDBRANCH   9  11
ENDBRANCH   2   5
BRANCH   3  19
ATOM     19  C   UNL     1       1.396   9.149  19.774  0.00  0.00    +0.000 C 
BRANCH  19  20
ATOM     20  C   UNL     1       0.601   8.981  21.088  0.00  0.00    +0.000 C 
BRANCH  20  21
ATOM     21  C   UNL     1      -0.281  10.164  21.472  0.00  0.00    +0.000 A 
ATOM     22  C   UNL     1      -0.843  11.017  20.505  0.00  0.00    +0.000 A 
ATOM     23  C   UNL     1      -1.685  12.076  20.866  0.00  0.00    +0.000 A 
ATOM     24  C   UNL     1      -1.988  12.287  22.212  0.00  0.00    +0.000 A 
ATOM     25  C   UNL     1      -1.466  11.439  23.194  0.00  0.00    +0.000 A 
ATOM     26  C   UNL     1      -0.624  10.384  22.820  0.00  0.00    +0.000 A 
BRANCH  24  27
ATOM     27  N   UNL     1      -2.875  13.393  22.593  0.00  0.00    +0.000 N 
ATOM     28  O   UNL     1      -3.739  13.746  21.776  0.00  0.00    +0.000 OA
ATOM     29  O   UNL     1      -2.709  13.908  23.705  0.00  0.00    +0.000 OA
ENDBRANCH  24  27
ENDBRANCH  20  21
BRANCH  20  30
ATOM     30  O   UNL     1       1.557   8.721  22.129  0.00  0.00    +0.000 OA
ATOM     31  H   UNL     1       1.156   9.022  22.964  0.00  0.00    +0.000 HD
ENDBRANCH  20  30
ENDBRANCH  19  20
ENDBRANCH   3  19
TORSDOF 8
ENDMDL
MODEL 6
REMARK VINA RESULT:      -7.8      1.107      1.335
REMARK  Name = 
REMARK  8 active torsions:
REMARK  status: ('A' for Active; 'I' for Inactive)
REMARK    1  A    between atoms: C_2  and  C_16
REMARK    2  A    between atoms: N_3  and  C_4
REMARK    3  A    between atoms: C_4  and  C_5
REMARK    4  A    between atoms: C_5  and  O_6
REMARK    5  A    between atoms: C_5  and  C_7
REMARK    6  A    between atoms: C_10  and  N_11
REMARK    7  A    between atoms: C_20  and  S_21
REMARK    8  A    between atoms: S_21  and  N_24
REMARK                            x       y       z     vdW  Elec       q    Type
REMARK                         _______ _______ _______ _____ _____    ______ ____
ROOT
ATOM      1  O   UNL     1       1.839   6.196  20.572  0.00  0.00    +0.000 OA
ATOM      2  C   UNL     1       2.335   6.514  19.498  0.00  0.00    +0.000 C 
ATOM      3  N   UNL     1       2.290   7.790  18.974  0.00  0.00    +0.000 N 
ATOM      4  H   UNL     1       2.451   7.911  17.978  0.00  0.00    +0.000 HD
ENDROOT
BRANCH   2   5
ATOM      5  C   UNL     1       2.957   5.482  18.637  0.00  0.00    +0.000 A 
ATOM      6  C   UNL     1       2.791   4.117  18.895  0.00  0.00    +0.000 A 
ATOM      7  C   UNL     1       3.454   3.179  18.101  0.00  0.00    +0.000 A 
ATOM      8  C   UNL     1       4.295   3.603  17.064  0.00  0.00    +0.000 A 
ATOM      9  C   UNL     1       4.452   4.971  16.805  0.00  0.00    +0.000 A 
ATOM     10  C   UNL     1       3.768   5.911  17.580  0.00  0.00    +0.000 A 
BRANCH   9  11
ATOM     11  S   UNL     1       5.744   5.530  15.701  0.00  0.00    +0.000 S 
ATOM     12  O   UNL     1       5.982   4.445  14.775  0.00  0.00    +0.000 OA
ATOM     13  O   UNL     1       5.356   6.844  15.225  0.00  0.00    +0.000 OA
BRANCH  11  14
ATOM     14  N   UNL     1       7.114   5.723  16.647  0.00  0.00    +0.000 NA
ATOM     15  C   UNL     1       7.589   4.662  17.541  0.00  0.00    +0.000 C 
ATOM     16  C   UNL     1       7.564   5.303  18.915  0.00  0.00    +0.000 C 
ATOM     17  C   UNL     1       7.875   6.768  18.655  0.00  0.00    +0.000 C 
ATOM     18  C   UNL     1       7.449   7.037  17.215  0.00  0.00    +0.000 C 
ENDBRANCH  11  14
ENDBRANCH   9  11
ENDBRANCH   2   5
BRANCH   3  19
ATOM     19  C   UNL     1       1.492   8.808  19.641  0.00  0.00    +0.000 C 
BRANCH  19  20
ATOM     20  C   UNL     1       1.081   9.961  18.700  0.00  0.00    +0.000 C 
BRANCH  20  21
ATOM     21  C   UNL     1      -0.081  10.819  19.187  0.00  0.00    +0.000 A 
ATOM     22  C   UNL     1      -1.102  11.249  18.321  0.00  0.00    +0.000 A 
ATOM     23  C   UNL     1      -2.186  12.001  18.786  0.00  0.00    +0.000 A 
ATOM     24  C   UNL     1      -2.270  12.325  20.142  0.00  0.00    +0.000 A 
ATOM     25  C   UNL     1      -1.283  11.889  21.032  0.00  0.00    +0.000 A 
ATOM     26  C   UNL     1      -0.203  11.138  20.554  0.00  0.00    +0.000 A 
BRANCH  24  27
ATOM     27  N   UNL     1      -3.408  13.109  20.634  0.00  0.00    +0.000 N 
ATOM     28  O   UNL     1      -4.522  12.564  20.643  0.00  0.00    +0.000 OA
ATOM     29  O   UNL     1      -3.191  14.269  21.009  0.00  0.00    +0.000 OA
ENDBRANCH  24  27
ENDBRANCH  20  21
BRANCH  20  30
ATOM     30  O   UNL     1       0.760   9.374  17.427  0.00  0.00    +0.000 OA
ATOM     31  H   UNL     1       1.497   9.581  16.825  0.00  0.00    +0.000 HD
ENDBRANCH  20  30
ENDBRANCH  19  20
ENDBRANCH   3  19
TORSDOF 8
ENDMDL
MODEL 7
REMARK VINA RESULT:      -7.8      2.168      2.809
REMARK  Name = 
REMARK  8 active torsions:
REMARK  status: ('A' for Active; 'I' for Inactive)
REMARK    1  A    between atoms: C_2  and  C_16
REMARK    2  A    between atoms: N_3  and  C_4
REMARK    3  A    between atoms: C_4  and  C_5
REMARK    4  A    between atoms: C_5  and  O_6
REMARK    5  A    between atoms: C_5  and  C_7
REMARK    6  A    between atoms: C_10  and  N_11
REMARK    7  A    between atoms: C_20  and  S_21
REMARK    8  A    between atoms: S_21  and  N_24
REMARK                            x       y       z     vdW  Elec       q    Type
REMARK                         _______ _______ _______ _____ _____    ______ ____
ROOT
ATOM      1  O   UNL     1       1.780   7.874  17.856  0.00  0.00    +0.000 OA
ATOM      2  C   UNL     1       2.230   7.206  18.780  0.00  0.00    +0.000 C 
ATOM      3  N   UNL     1       2.192   7.594  20.104  0.00  0.00    +0.000 N 
ATOM      4  H   UNL     1       2.829   7.150  20.758  0.00  0.00    +0.000 HD
ENDROOT
BRANCH   2   5
ATOM      5  C   UNL     1       2.941   5.938  18.497  0.00  0.00    +0.000 A 
ATOM      6  C   UNL     1       2.812   4.825  19.334  0.00  0.00    +0.000 A 
ATOM      7  C   UNL     1       3.557   3.674  19.071  0.00  0.00    +0.000 A 
ATOM      8  C   UNL     1       4.444   3.641  17.986  0.00  0.00    +0.000 A 
ATOM      9  C   UNL     1       4.563   4.757  17.146  0.00  0.00    +0.000 A 
ATOM     10  C   UNL     1       3.799   5.900  17.392  0.00  0.00    +0.000 A 
BRANCH   9  11
ATOM     11  S   UNL     1       5.898   4.843  15.959  0.00  0.00    +0.000 S 
ATOM     12  O   UNL     1       6.152   3.482  15.538  0.00  0.00    +0.000 OA
ATOM     13  O   UNL     1       5.543   5.866  14.996  0.00  0.00    +0.000 OA
BRANCH  11  14
ATOM     14  N   UNL     1       7.238   5.390  16.802  0.00  0.00    +0.000 NA
ATOM     15  C   UNL     1       7.740   4.691  17.990  0.00  0.00    +0.000 C 
ATOM     16  C   UNL     1       7.659   5.733  19.089  0.00  0.00    +0.000 C 
ATOM     17  C   UNL     1       7.912   7.053  18.379  0.00  0.00    +0.000 C 
ATOM     18  C   UNL     1       7.505   6.831  16.925  0.00  0.00    +0.000 C 
ENDBRANCH  11  14
ENDBRANCH   9  11
ENDBRANCH   2   5
BRANCH   3  19
ATOM     19  C   UNL     1       1.728   8.932  20.442  0.00  0.00    +0.000 C 
BRANCH  19  20
ATOM     20  C   UNL     1       1.037   8.996  21.822  0.00  0.00    +0.000 C 
BRANCH  20  21
ATOM     21  C   UNL     1      -0.099  10.006  21.937  0.00  0.00    +0.000 A 
ATOM     22  C   UNL     1      -0.716  10.293  23.169  0.00  0.00    +0.000 A 
ATOM     23  C   UNL     1      -1.730  11.251  23.271  0.00  0.00    +0.000 A 
ATOM     24  C   UNL     1      -2.135  11.952  22.133  0.00  0.00    +0.000 A 
ATOM     25  C   UNL     1      -1.522  11.707  20.900  0.00  0.00    +0.000 A 
ATOM     26  C   UNL     1      -0.508  10.745  20.810  0.00  0.00    +0.000 A 
BRANCH  24  27
ATOM     27  N   UNL     1      -3.195  12.961  22.238  0.00  0.00    +0.000 N 
ATOM     28  O   UNL     1      -2.895  14.139  21.988  0.00  0.00    +0.000 OA
ATOM     29  O   UNL     1      -4.324  12.580  22.571  0.00  0.00    +0.000 OA
ENDBRANCH  24  27
ENDBRANCH  20  21
BRANCH  20  30
ATOM     30  O   UNL     1       2.058   9.291  22.791  0.00  0.00    +0.000 OA
ATOM     31  H   UNL     1       1.761   8.914  23.639  0.00  0.00    +0.000 HD
ENDBRANCH  20  30
ENDBRANCH  19  20
ENDBRANCH   3  19
TORSDOF 8
ENDMDL
MODEL 8
REMARK VINA RESULT:      -7.8      2.568      3.021
REMARK  Name = 
REMARK  8 active torsions:
REMARK  status: ('A' for Active; 'I' for Inactive)
REMARK    1  A    between atoms: C_2  and  C_16
REMARK    2  A    between atoms: N_3  and  C_4
REMARK    3  A    between atoms: C_4  and  C_5
REMARK    4  A    between atoms: C_5  and  O_6
REMARK    5  A    between atoms: C_5  and  C_7
REMARK    6  A    between atoms: C_10  and  N_11
REMARK    7  A    between atoms: C_20  and  S_21
REMARK    8  A    between atoms: S_21  and  N_24
REMARK                            x       y       z     vdW  Elec       q    Type
REMARK                         _______ _______ _______ _____ _____    ______ ____
ROOT
ATOM      1  O   UNL     1       0.767   4.465  20.538  0.00  0.00    +0.000 OA
ATOM      2  C   UNL     1       1.735   4.968  19.978  0.00  0.00    +0.000 C 
ATOM      3  N   UNL     1       2.158   6.265  20.185  0.00  0.00    +0.000 N 
ATOM      4  H   UNL     1       2.759   6.696  19.489  0.00  0.00    +0.000 HD
ENDROOT
BRANCH   2   5
ATOM      5  C   UNL     1       2.472   4.203  18.946  0.00  0.00    +0.000 A 
ATOM      6  C   UNL     1       2.296   2.824  18.794  0.00  0.00    +0.000 A 
ATOM      7  C   UNL     1       3.065   2.130  17.857  0.00  0.00    +0.000 A 
ATOM      8  C   UNL     1       4.020   2.808  17.089  0.00  0.00    +0.000 A 
ATOM      9  C   UNL     1       4.186   4.191  17.240  0.00  0.00    +0.000 A 
ATOM     10  C   UNL     1       3.399   4.893  18.157  0.00  0.00    +0.000 A 
BRANCH   9  11
ATOM     11  S   UNL     1       5.595   5.009  16.500  0.00  0.00    +0.000 S 
ATOM     12  O   UNL     1       6.605   3.989  16.321  0.00  0.00    +0.000 OA
ATOM     13  O   UNL     1       5.098   5.771  15.371  0.00  0.00    +0.000 OA
BRANCH  11  14
ATOM     14  N   UNL     1       6.150   6.104  17.640  0.00  0.00    +0.000 NA
ATOM     15  C   UNL     1       6.338   7.523  17.319  0.00  0.00    +0.000 C 
ATOM     16  C   UNL     1       7.811   7.766  17.586  0.00  0.00    +0.000 C 
ATOM     17  C   UNL     1       8.149   6.825  18.731  0.00  0.00    +0.000 C 
ATOM     18  C   UNL     1       7.131   5.691  18.655  0.00  0.00    +0.000 C 
ENDBRANCH  11  14
ENDBRANCH   9  11
ENDBRANCH   2   5
BRANCH   3  19
ATOM     19  C   UNL     1       1.348   7.159  21.000  0.00  0.00    +0.000 C 
BRANCH  19  20
ATOM     20  C   UNL     1       1.576   8.649  20.665  0.00  0.00    +0.000 C 
BRANCH  20  21
ATOM     21  C   UNL     1       0.627   9.625  21.351  0.00  0.00    +0.000 A 
ATOM     22  C   UNL     1       0.186  10.802  20.717  0.00  0.00    +0.000 A 
ATOM     23  C   UNL     1      -0.717  11.671  21.339  0.00  0.00    +0.000 A 
ATOM     24  C   UNL     1      -1.207  11.363  22.611  0.00  0.00    +0.000 A 
ATOM     25  C   UNL     1      -0.808  10.187  23.254  0.00  0.00    +0.000 A 
ATOM     26  C   UNL     1       0.098   9.326  22.621  0.00  0.00    +0.000 A 
BRANCH  24  27
ATOM     27  N   UNL     1      -2.159  12.269  23.263  0.00  0.00    +0.000 N 
ATOM     28  O   UNL     1      -3.305  11.845  23.475  0.00  0.00    +0.000 OA
ATOM     29  O   UNL     1      -1.763  13.403  23.561  0.00  0.00    +0.000 OA
ENDBRANCH  24  27
ENDBRANCH  20  21
BRANCH  20  30
ATOM     30  O   UNL     1       1.472   8.781  19.236  0.00  0.00    +0.000 OA
ATOM     31  H   UNL     1       2.347   8.565  18.867  0.00  0.00    +0.000 HD
ENDBRANCH  20  30
ENDBRANCH  19  20
ENDBRANCH   3  19
TORSDOF 8
ENDMDL
MODEL 9
REMARK VINA RESULT:      -7.8      3.101      8.694
REMARK  Name = 
REMARK  8 active torsions:
REMARK  status: ('A' for Active; 'I' for Inactive)
REMARK    1  A    between atoms: C_2  and  C_16
REMARK    2  A    between atoms: N_3  and  C_4
REMARK    3  A    between atoms: C_4  and  C_5
REMARK    4  A    between atoms: C_5  and  O_6
REMARK    5  A    between atoms: C_5  and  C_7
REMARK    6  A    between atoms: C_10  and  N_11
REMARK    7  A    between atoms: C_20  and  S_21
REMARK    8  A    between atoms: S_21  and  N_24
REMARK                            x       y       z     vdW  Elec       q    Type
REMARK                         _______ _______ _______ _____ _____    ______ ____
ROOT
ATOM      1  O   UNL     1       2.512   5.429  21.367  0.00  0.00    +0.000 OA
ATOM      2  C   UNL     1       1.968   5.523  20.272  0.00  0.00    +0.000 C 
ATOM      3  N   UNL     1       1.426   4.456  19.585  0.00  0.00    +0.000 N 
ATOM      4  H   UNL     1       1.267   4.552  18.587  0.00  0.00    +0.000 HD
ENDROOT
BRANCH   2   5
ATOM      5  C   UNL     1       1.944   6.826  19.568  0.00  0.00    +0.000 A 
ATOM      6  C   UNL     1       2.667   7.033  18.389  0.00  0.00    +0.000 A 
ATOM      7  C   UNL     1       2.675   8.298  17.798  0.00  0.00    +0.000 A 
ATOM      8  C   UNL     1       1.978   9.358  18.393  0.00  0.00    +0.000 A 
ATOM      9  C   UNL     1       1.249   9.143  19.570  0.00  0.00    +0.000 A 
ATOM     10  C   UNL     1       1.218   7.871  20.149  0.00  0.00    +0.000 A 
BRANCH   9  11
ATOM     11  S   UNL     1       0.618  10.536  20.498  0.00  0.00    +0.000 S 
ATOM     12  O   UNL     1      -0.824  10.416  20.475  0.00  0.00    +0.000 OA
ATOM     13  O   UNL     1       1.342  10.572  21.753  0.00  0.00    +0.000 OA
BRANCH  11  14
ATOM     14  N   UNL     1       1.045  11.905  19.632  0.00  0.00    +0.000 NA
ATOM     15  C   UNL     1       1.928  12.931  20.198  0.00  0.00    +0.000 C 
ATOM     16  C   UNL     1       1.086  14.192  20.173  0.00  0.00    +0.000 C 
ATOM     17  C   UNL     1       0.200  14.031  18.948  0.00  0.00    +0.000 C 
ATOM     18  C   UNL     1       0.090  12.529  18.705  0.00  0.00    +0.000 C 
ENDBRANCH  11  14
ENDBRANCH   9  11
ENDBRANCH   2   5
BRANCH   3  19
ATOM     19  C   UNL     1       1.619   3.107  20.095  0.00  0.00    +0.000 C 
BRANCH  19  20
ATOM     20  C   UNL     1       2.688   2.315  19.309  0.00  0.00    +0.000 C 
BRANCH  20  21
ATOM     21  C   UNL     1       3.716   3.164  18.569  0.00  0.00    +0.000 A 
ATOM     22  C   UNL     1       4.853   3.683  19.215  0.00  0.00    +0.000 A 
ATOM     23  C   UNL     1       5.812   4.427  18.519  0.00  0.00    +0.000 A 
ATOM     24  C   UNL     1       5.651   4.651  17.150  0.00  0.00    +0.000 A 
ATOM     25  C   UNL     1       4.544   4.125  16.475  0.00  0.00    +0.000 A 
ATOM     26  C   UNL     1       3.590   3.383  17.184  0.00  0.00    +0.000 A 
BRANCH  24  27
ATOM     27  N   UNL     1       6.658   5.426  16.416  0.00  0.00    +0.000 N 
ATOM     28  O   UNL     1       6.396   6.610  16.154  0.00  0.00    +0.000 OA
ATOM     29  O   UNL     1       7.708   4.853  16.099  0.00  0.00    +0.000 OA
ENDBRANCH  24  27
ENDBRANCH  20  21
BRANCH  20  30
ATOM     30  O   UNL     1       1.988   1.469  18.380  0.00  0.00    +0.000 OA
ATOM     31  H   UNL     1       2.637   1.186  17.711  0.00  0.00    +0.000 HD
ENDBRANCH  20  30
ENDBRANCH  19  20
ENDBRANCH   3  19
TORSDOF 8
ENDMDL
