MODEL 1
REMARK VINA RESULT:      -9.8      0.000      0.000
REMARK  Name = 
REMARK  4 active torsions:
REMARK  status: ('A' for Active; 'I' for Inactive)
REMARK    1  A    between atoms: C_10  and  C_11
REMARK    2  A    between atoms: N_13  and  N_14
REMARK    3  A    between atoms: C_15  and  C_16
REMARK    4  A    between atoms: C_23  and  C_24
REMARK                            x       y       z     vdW  Elec       q    Type
REMARK                         _______ _______ _______ _____ _____    ______ ____
ROOT
ATOM      1  N   UNL     1       4.863   1.455  19.670  0.00  0.00    +0.000 N 
ATOM      2  C   UNL     1       3.922   2.073  18.934  0.00  0.00    +0.000 A 
ATOM      3  N   UNL     1       2.696   1.587  18.741  0.00  0.00    +0.000 NA
ATOM      4  O   UNL     1       2.024   2.552  17.999  0.00  0.00    +0.000 OA
ATOM      5  N   UNL     1       2.837   3.656  17.752  0.00  0.00    +0.000 NA
ATOM      6  C   UNL     1       3.995   3.345  18.338  0.00  0.00    +0.000 A 
ATOM      7  N   UNL     1       5.078   4.264  18.330  0.00  0.00    +0.000 N 
ATOM      8  N   UNL     1       6.364   3.843  18.493  0.00  0.00    +0.000 NA
ATOM      9  N   UNL     1       7.175   4.847  18.228  0.00  0.00    +0.000 NA
ATOM     10  C   UNL     1       6.419   5.979  18.033  0.00  0.00    +0.000 A 
ATOM     11  C   UNL     1       5.065   5.672  18.235  0.00  0.00    +0.000 A 
ATOM     12  H   UNL     1       4.624   0.616  20.190  0.00  0.00    +0.000 HD
ATOM     13  H   UNL     1       5.746   1.889  19.928  0.00  0.00    +0.000 HD
ENDROOT
BRANCH  11  14
ATOM     14  C   UNL     1       3.884   6.531  18.511  0.00  0.00    +0.000 A 
ATOM     15  C   UNL     1       3.178   6.435  19.742  0.00  0.00    +0.000 A 
ATOM     16  C   UNL     1       2.096   7.272  20.056  0.00  0.00    +0.000 A 
ATOM     17  C   UNL     1       1.784   8.271  19.167  0.00  0.00    +0.000 A 
ATOM     18  C   UNL     1       2.469   8.404  17.990  0.00  0.00    +0.000 A 
ATOM     19  C   UNL     1       3.478   7.535  17.623  0.00  0.00    +0.000 A 
ATOM     20  O   UNL     1       2.048   9.477  17.270  0.00  0.00    +0.000 OA
ATOM     21  C   UNL     1       1.023  10.005  18.134  0.00  0.00    +0.000 C 
ATOM     22  O   UNL     1       0.830   9.219  19.330  0.00  0.00    +0.000 OA
ENDBRANCH  11  14
BRANCH  10  23
ATOM     23  C   UNL     1       7.077   7.259  17.757  0.00  0.00    +0.000 C 
ATOM     24  O   UNL     1       6.696   8.033  16.885  0.00  0.00    +0.000 OA
ATOM     25  N   UNL     1       8.196   7.501  18.548  0.00  0.00    +0.000 N 
ATOM     26  H   UNL     1       8.519   6.799  19.206  0.00  0.00    +0.000 HD
BRANCH  25  27
ATOM     27  N   UNL     1       8.852   8.693  18.411  0.00  0.00    +0.000 NA
ATOM     28  C   UNL     1       8.907   9.457  19.453  0.00  0.00    +0.000 C 
BRANCH  28  29
ATOM     29  C   UNL     1       9.631  10.748  19.416  0.00  0.00    +0.000 A 
ATOM     30  C   UNL     1       9.875  11.476  20.588  0.00  0.00    +0.000 A 
ATOM     31  C   UNL     1      10.508  12.719  20.519  0.00  0.00    +0.000 A 
ATOM     32  C   UNL     1      10.896  13.235  19.282  0.00  0.00    +0.000 A 
ATOM     33  C   UNL     1      10.661  12.499  18.120  0.00  0.00    +0.000 A 
ATOM     34 CL   UNL     1      11.132  13.143  16.595  0.00  0.00    +0.000 Cl
ATOM     35  C   UNL     1      10.036  11.254  18.178  0.00  0.00    +0.000 A 
ENDBRANCH  28  29
ENDBRANCH  25  27
ENDBRANCH  10  23
TORSDOF 4
ENDMDL
MODEL 2
REMARK VINA RESULT:      -9.8      0.922      1.242
REMARK  Name = 
REMARK  4 active torsions:
REMARK  status: ('A' for Active; 'I' for Inactive)
REMARK    1  A    between atoms: C_10  and  C_11
REMARK    2  A    between atoms: N_13  and  N_14
REMARK    3  A    between atoms: C_15  and  C_16
REMARK    4  A    between atoms: C_23  and  C_24
REMARK                            x       y       z     vdW  Elec       q    Type
REMARK                         _______ _______ _______ _____ _____    ______ ____
ROOT
ATOM      1  N   UNL     1       4.892   1.600  19.719  0.00  0.00    +0.000 N 
ATOM      2  C   UNL     1       3.889   2.184  19.038  0.00  0.00    +0.000 A 
ATOM      3  N   UNL     1       2.662   1.672  18.947  0.00  0.00    +0.000 NA
ATOM      4  O   UNL     1       1.920   2.605  18.232  0.00  0.00    +0.000 OA
ATOM      5  N   UNL     1       2.692   3.716  17.898  0.00  0.00    +0.000 NA
ATOM      6  C   UNL     1       3.895   3.440  18.406  0.00  0.00    +0.000 A 
ATOM      7  N   UNL     1       4.957   4.377  18.297  0.00  0.00    +0.000 N 
ATOM      8  N   UNL     1       6.260   3.982  18.377  0.00  0.00    +0.000 NA
ATOM      9  N   UNL     1       7.030   4.992  18.028  0.00  0.00    +0.000 NA
ATOM     10  C   UNL     1       6.241   6.105  17.860  0.00  0.00    +0.000 A 
ATOM     11  C   UNL     1       4.911   5.781  18.168  0.00  0.00    +0.000 A 
ATOM     12  H   UNL     1       4.707   0.771  20.275  0.00  0.00    +0.000 HD
ATOM     13  H   UNL     1       5.783   2.056  19.901  0.00  0.00    +0.000 HD
ENDROOT
BRANCH  11  14
ATOM     14  C   UNL     1       3.737   6.627  18.508  0.00  0.00    +0.000 A 
ATOM     15  C   UNL     1       3.092   6.514  19.769  0.00  0.00    +0.000 A 
ATOM     16  C   UNL     1       2.019   7.339  20.142  0.00  0.00    +0.000 A 
ATOM     17  C   UNL     1       1.657   8.343  19.279  0.00  0.00    +0.000 A 
ATOM     18  C   UNL     1       2.284   8.492  18.071  0.00  0.00    +0.000 A 
ATOM     19  C   UNL     1       3.282   7.636  17.649  0.00  0.00    +0.000 A 
ATOM     20  O   UNL     1       1.821   9.568  17.383  0.00  0.00    +0.000 OA
ATOM     21  C   UNL     1       0.833  10.079  18.299  0.00  0.00    +0.000 C 
ATOM     22  O   UNL     1       0.704   9.281  19.494  0.00  0.00    +0.000 OA
ENDBRANCH  11  14
BRANCH  10  23
ATOM     23  C   UNL     1       6.854   7.388  17.505  0.00  0.00    +0.000 C 
ATOM     24  O   UNL     1       6.454   8.088  16.580  0.00  0.00    +0.000 OA
ATOM     25  N   UNL     1       7.953   7.725  18.288  0.00  0.00    +0.000 N 
ATOM     26  H   UNL     1       8.296   7.081  18.994  0.00  0.00    +0.000 HD
BRANCH  25  27
ATOM     27  N   UNL     1       8.566   8.930  18.077  0.00  0.00    +0.000 NA
ATOM     28  C   UNL     1       8.992   9.563  19.121  0.00  0.00    +0.000 C 
BRANCH  28  29
ATOM     29  C   UNL     1       9.706  10.853  18.993  0.00  0.00    +0.000 A 
ATOM     30  C   UNL     1      10.463  11.154  17.853  0.00  0.00    +0.000 A 
ATOM     31  C   UNL     1      11.174  12.354  17.782  0.00  0.00    +0.000 A 
ATOM     32  C   UNL     1      11.131  13.253  18.849  0.00  0.00    +0.000 A 
ATOM     33  C   UNL     1      10.366  12.953  19.976  0.00  0.00    +0.000 A 
ATOM     34 CL   UNL     1      10.322  14.059  21.294  0.00  0.00    +0.000 Cl
ATOM     35  C   UNL     1       9.646  11.761  20.054  0.00  0.00    +0.000 A 
ENDBRANCH  28  29
ENDBRANCH  25  27
ENDBRANCH  10  23
TORSDOF 4
ENDMDL
MODEL 3
REMARK VINA RESULT:      -9.1      0.768      1.357
REMARK  Name = 
REMARK  4 active torsions:
REMARK  status: ('A' for Active; 'I' for Inactive)
REMARK    1  A    between atoms: C_10  and  C_11
REMARK    2  A    between atoms: N_13  and  N_14
REMARK    3  A    between atoms: C_15  and  C_16
REMARK    4  A    between atoms: C_23  and  C_24
REMARK                            x       y       z     vdW  Elec       q    Type
REMARK                         _______ _______ _______ _____ _____    ______ ____
ROOT
ATOM      1  N   UNL     1       4.091   1.547  18.988  0.00  0.00    +0.000 N 
ATOM      2  C   UNL     1       3.238   2.370  18.351  0.00  0.00    +0.000 A 
ATOM      3  N   UNL     1       1.952   2.086  18.145  0.00  0.00    +0.000 NA
ATOM      4  O   UNL     1       1.415   3.212  17.531  0.00  0.00    +0.000 OA
ATOM      5  N   UNL     1       2.375   4.210  17.378  0.00  0.00    +0.000 NA
ATOM      6  C   UNL     1       3.485   3.676  17.892  0.00  0.00    +0.000 A 
ATOM      7  N   UNL     1       4.688   4.428  17.949  0.00  0.00    +0.000 N 
ATOM      8  N   UNL     1       5.903   3.813  18.027  0.00  0.00    +0.000 NA
ATOM      9  N   UNL     1       6.846   4.716  17.845  0.00  0.00    +0.000 NA
ATOM     10  C   UNL     1       6.258   5.957  17.795  0.00  0.00    +0.000 A 
ATOM     11  C   UNL     1       4.877   5.825  18.004  0.00  0.00    +0.000 A 
ATOM     12  H   UNL     1       3.742   0.699  19.422  0.00  0.00    +0.000 HD
ATOM     13  H   UNL     1       5.031   1.821  19.264  0.00  0.00    +0.000 HD
ENDROOT
BRANCH  11  14
ATOM     14  C   UNL     1       3.836   6.807  18.407  0.00  0.00    +0.000 A 
ATOM     15  C   UNL     1       3.354   7.782  17.491  0.00  0.00    +0.000 A 
ATOM     16  C   UNL     1       2.330   8.684  17.822  0.00  0.00    +0.000 A 
ATOM     17  C   UNL     1       1.727   8.542  19.048  0.00  0.00    +0.000 A 
ATOM     18  C   UNL     1       2.153   7.591  19.935  0.00  0.00    +0.000 A 
ATOM     19  C   UNL     1       3.216   6.752  19.662  0.00  0.00    +0.000 A 
ATOM     20  O   UNL     1       1.403   7.573  21.067  0.00  0.00    +0.000 OA
ATOM     21  C   UNL     1       0.454   8.622  20.787  0.00  0.00    +0.000 C 
ATOM     22  O   UNL     1       0.679   9.262  19.513  0.00  0.00    +0.000 OA
ENDBRANCH  11  14
BRANCH  10  23
ATOM     23  C   UNL     1       7.089   7.154  17.637  0.00  0.00    +0.000 C 
ATOM     24  O   UNL     1       6.893   7.996  16.766  0.00  0.00    +0.000 OA
ATOM     25  N   UNL     1       8.145   7.231  18.540  0.00  0.00    +0.000 N 
ATOM     26  H   UNL     1       8.315   6.475  19.195  0.00  0.00    +0.000 HD
BRANCH  25  27
ATOM     27  N   UNL     1       8.950   8.337  18.516  0.00  0.00    +0.000 NA
ATOM     28  C   UNL     1       8.594   9.339  19.252  0.00  0.00    +0.000 C 
BRANCH  28  29
ATOM     29  C   UNL     1       9.423  10.564  19.326  0.00  0.00    +0.000 A 
ATOM     30  C   UNL     1       9.747  11.147  20.558  0.00  0.00    +0.000 A 
ATOM     31  C   UNL     1      10.480  12.335  20.598  0.00  0.00    +0.000 A 
ATOM     32  C   UNL     1      10.888  12.942  19.409  0.00  0.00    +0.000 A 
ATOM     33  C   UNL     1      10.573  12.349  18.186  0.00  0.00    +0.000 A 
ATOM     34 CL   UNL     1      11.070  13.105  16.721  0.00  0.00    +0.000 Cl
ATOM     35  C   UNL     1       9.847  11.159  18.135  0.00  0.00    +0.000 A 
ENDBRANCH  28  29
ENDBRANCH  25  27
ENDBRANCH  10  23
TORSDOF 4
ENDMDL
MODEL 4
REMARK VINA RESULT:      -9.0      1.156      1.228
REMARK  Name = 
REMARK  4 active torsions:
REMARK  status: ('A' for Active; 'I' for Inactive)
REMARK    1  A    between atoms: C_10  and  C_11
REMARK    2  A    between atoms: N_13  and  N_14
REMARK    3  A    between atoms: C_15  and  C_16
REMARK    4  A    between atoms: C_23  and  C_24
REMARK                            x       y       z     vdW  Elec       q    Type
REMARK                         _______ _______ _______ _____ _____    ______ ____
ROOT
ATOM      1  N   UNL     1       4.374   1.514  19.734  0.00  0.00    +0.000 N 
ATOM      2  C   UNL     1       3.347   2.148  19.139  0.00  0.00    +0.000 A 
ATOM      3  N   UNL     1       2.084   1.726  19.198  0.00  0.00    +0.000 NA
ATOM      4  O   UNL     1       1.338   2.688  18.528  0.00  0.00    +0.000 OA
ATOM      5  N   UNL     1       2.145   3.726  18.070  0.00  0.00    +0.000 NA
ATOM      6  C   UNL     1       3.374   3.378  18.460  0.00  0.00    +0.000 A 
ATOM      7  N   UNL     1       4.481   4.230  18.201  0.00  0.00    +0.000 N 
ATOM      8  N   UNL     1       5.753   3.742  18.160  0.00  0.00    +0.000 NA
ATOM      9  N   UNL     1       6.551   4.681  17.691  0.00  0.00    +0.000 NA
ATOM     10  C   UNL     1       5.829   5.843  17.562  0.00  0.00    +0.000 A 
ATOM     11  C   UNL     1       4.520   5.629  18.021  0.00  0.00    +0.000 A 
ATOM     12  H   UNL     1       4.192   0.720  20.339  0.00  0.00    +0.000 HD
ATOM     13  H   UNL     1       5.309   1.908  19.803  0.00  0.00    +0.000 HD
ENDROOT
BRANCH  11  14
ATOM     14  C   UNL     1       3.452   6.571  18.448  0.00  0.00    +0.000 A 
ATOM     15  C   UNL     1       2.890   6.500  19.752  0.00  0.00    +0.000 A 
ATOM     16  C   UNL     1       1.923   7.411  20.204  0.00  0.00    +0.000 A 
ATOM     17  C   UNL     1       1.590   8.453  19.374  0.00  0.00    +0.000 A 
ATOM     18  C   UNL     1       2.142   8.560  18.125  0.00  0.00    +0.000 A 
ATOM     19  C   UNL     1       3.028   7.625  17.629  0.00  0.00    +0.000 A 
ATOM     20  O   UNL     1       1.728   9.680  17.477  0.00  0.00    +0.000 OA
ATOM     21  C   UNL     1       0.855  10.265  18.464  0.00  0.00    +0.000 C 
ATOM     22  O   UNL     1       0.741   9.468  19.661  0.00  0.00    +0.000 OA
ENDBRANCH  11  14
BRANCH  10  23
ATOM     23  C   UNL     1       6.488   7.065  17.093  0.00  0.00    +0.000 C 
ATOM     24  O   UNL     1       6.105   7.699  16.116  0.00  0.00    +0.000 OA
ATOM     25  N   UNL     1       7.611   7.420  17.834  0.00  0.00    +0.000 N 
ATOM     26  H   UNL     1       7.936   6.825  18.589  0.00  0.00    +0.000 HD
BRANCH  25  27
ATOM     27  N   UNL     1       8.269   8.577  17.515  0.00  0.00    +0.000 NA
ATOM     28  C   UNL     1       8.365   9.473  18.442  0.00  0.00    +0.000 C 
BRANCH  28  29
ATOM     29  C   UNL     1       9.095  10.739  18.208  0.00  0.00    +0.000 A 
ATOM     30  C   UNL     1      10.495  10.781  18.210  0.00  0.00    +0.000 A 
ATOM     31  C   UNL     1      11.159  11.998  18.045  0.00  0.00    +0.000 A 
ATOM     32  C   UNL     1      10.426  13.174  17.879  0.00  0.00    +0.000 A 
ATOM     33  C   UNL     1       9.032  13.124  17.866  0.00  0.00    +0.000 A 
ATOM     34 CL   UNL     1       8.130  14.577  17.671  0.00  0.00    +0.000 Cl
ATOM     35  C   UNL     1       8.359  11.913  18.023  0.00  0.00    +0.000 A 
ENDBRANCH  28  29
ENDBRANCH  25  27
ENDBRANCH  10  23
TORSDOF 4
ENDMDL
MODEL 5
REMARK VINA RESULT:      -9.0      1.376      1.985
REMARK  Name = 
REMARK  4 active torsions:
REMARK  status: ('A' for Active; 'I' for Inactive)
REMARK    1  A    between atoms: C_10  and  C_11
REMARK    2  A    between atoms: N_13  and  N_14
REMARK    3  A    between atoms: C_15  and  C_16
REMARK    4  A    between atoms: C_23  and  C_24
REMARK                            x       y       z     vdW  Elec       q    Type
REMARK                         _______ _______ _______ _____ _____    ______ ____
ROOT
ATOM      1  N   UNL     1       3.414   1.644  19.074  0.00  0.00    +0.000 N 
ATOM      2  C   UNL     1       2.557   2.505  18.495  0.00  0.00    +0.000 A 
ATOM      3  N   UNL     1       1.244   2.292  18.405  0.00  0.00    +0.000 NA
ATOM      4  O   UNL     1       0.720   3.438  17.816  0.00  0.00    +0.000 OA
ATOM      5  N   UNL     1       1.718   4.376  17.560  0.00  0.00    +0.000 NA
ATOM      6  C   UNL     1       2.836   3.786  17.989  0.00  0.00    +0.000 A 
ATOM      7  N   UNL     1       4.080   4.469  17.928  0.00  0.00    +0.000 N 
ATOM      8  N   UNL     1       5.261   3.786  17.914  0.00  0.00    +0.000 NA
ATOM      9  N   UNL     1       6.233   4.630  17.634  0.00  0.00    +0.000 NA
ATOM     10  C   UNL     1       5.715   5.902  17.608  0.00  0.00    +0.000 A 
ATOM     11  C   UNL     1       4.352   5.853  17.938  0.00  0.00    +0.000 A 
ATOM     12  H   UNL     1       3.056   0.824  19.554  0.00  0.00    +0.000 HD
ATOM     13  H   UNL     1       4.388   1.868  19.263  0.00  0.00    +0.000 HD
ENDROOT
BRANCH  11  14
ATOM     14  C   UNL     1       3.406   6.900  18.407  0.00  0.00    +0.000 A 
ATOM     15  C   UNL     1       2.932   7.909  17.524  0.00  0.00    +0.000 A 
ATOM     16  C   UNL     1       1.994   8.875  17.921  0.00  0.00    +0.000 A 
ATOM     17  C   UNL     1       1.463   8.768  19.183  0.00  0.00    +0.000 A 
ATOM     18  C   UNL     1       1.881   7.786  20.040  0.00  0.00    +0.000 A 
ATOM     19  C   UNL     1       2.866   6.881  19.699  0.00  0.00    +0.000 A 
ATOM     20  O   UNL     1       1.206   7.814  21.219  0.00  0.00    +0.000 OA
ATOM     21  C   UNL     1       0.312   8.924  21.001  0.00  0.00    +0.000 C 
ATOM     22  O   UNL     1       0.497   9.554  19.715  0.00  0.00    +0.000 OA
ENDBRANCH  11  14
BRANCH  10  23
ATOM     23  C   UNL     1       6.595   7.046  17.355  0.00  0.00    +0.000 C 
ATOM     24  O   UNL     1       6.422   7.832  16.429  0.00  0.00    +0.000 OA
ATOM     25  N   UNL     1       7.668   7.138  18.236  0.00  0.00    +0.000 N 
ATOM     26  H   UNL     1       7.815   6.423  18.941  0.00  0.00    +0.000 HD
BRANCH  25  27
ATOM     27  N   UNL     1       8.521   8.203  18.124  0.00  0.00    +0.000 NA
ATOM     28  C   UNL     1       8.326   9.198  18.925  0.00  0.00    +0.000 C 
BRANCH  28  29
ATOM     29  C   UNL     1       9.222  10.377  18.909  0.00  0.00    +0.000 A 
ATOM     30  C   UNL     1      10.045  10.648  17.808  0.00  0.00    +0.000 A 
ATOM     31  C   UNL     1      10.924  11.733  17.842  0.00  0.00    +0.000 A 
ATOM     32  C   UNL     1      10.983  12.546  18.974  0.00  0.00    +0.000 A 
ATOM     33  C   UNL     1      10.152  12.278  20.062  0.00  0.00    +0.000 A 
ATOM     34 CL   UNL     1      10.233  13.277  21.462  0.00  0.00    +0.000 Cl
ATOM     35  C   UNL     1       9.265  11.201  20.036  0.00  0.00    +0.000 A 
ENDBRANCH  28  29
ENDBRANCH  25  27
ENDBRANCH  10  23
TORSDOF 4
ENDMDL
MODEL 6
REMARK VINA RESULT:      -8.7      0.924      1.167
REMARK  Name = 
REMARK  4 active torsions:
REMARK  status: ('A' for Active; 'I' for Inactive)
REMARK    1  A    between atoms: C_10  and  C_11
REMARK    2  A    between atoms: N_13  and  N_14
REMARK    3  A    between atoms: C_15  and  C_16
REMARK    4  A    between atoms: C_23  and  C_24
REMARK                            x       y       z     vdW  Elec       q    Type
REMARK                         _______ _______ _______ _____ _____    ______ ____
ROOT
ATOM      1  N   UNL     1       4.893   1.471  19.984  0.00  0.00    +0.000 N 
ATOM      2  C   UNL     1       3.897   2.039  19.281  0.00  0.00    +0.000 A 
ATOM      3  N   UNL     1       2.657   1.552  19.230  0.00  0.00    +0.000 NA
ATOM      4  O   UNL     1       1.930   2.463  18.471  0.00  0.00    +0.000 OA
ATOM      5  N   UNL     1       2.724   3.534  18.069  0.00  0.00    +0.000 NA
ATOM      6  C   UNL     1       3.925   3.258  18.580  0.00  0.00    +0.000 A 
ATOM      7  N   UNL     1       5.008   4.162  18.409  0.00  0.00    +0.000 N 
ATOM      8  N   UNL     1       6.301   3.741  18.499  0.00  0.00    +0.000 NA
ATOM      9  N   UNL     1       7.091   4.712  18.087  0.00  0.00    +0.000 NA
ATOM     10  C   UNL     1       6.327   5.832  17.865  0.00  0.00    +0.000 A 
ATOM     11  C   UNL     1       4.993   5.557  18.202  0.00  0.00    +0.000 A 
ATOM     12  H   UNL     1       4.694   0.679  20.587  0.00  0.00    +0.000 HD
ATOM     13  H   UNL     1       5.796   1.915  20.132  0.00  0.00    +0.000 HD
ENDROOT
BRANCH  11  14
ATOM     14  C   UNL     1       3.843   6.449  18.506  0.00  0.00    +0.000 A 
ATOM     15  C   UNL     1       3.153   6.361  19.746  0.00  0.00    +0.000 A 
ATOM     16  C   UNL     1       2.101   7.227  20.085  0.00  0.00    +0.000 A 
ATOM     17  C   UNL     1       1.807   8.245  19.212  0.00  0.00    +0.000 A 
ATOM     18  C   UNL     1       2.478   8.370  18.026  0.00  0.00    +0.000 A 
ATOM     19  C   UNL     1       3.455   7.475  17.634  0.00  0.00    +0.000 A 
ATOM     20  O   UNL     1       2.080   9.463  17.324  0.00  0.00    +0.000 OA
ATOM     21  C   UNL     1       1.084  10.012  18.209  0.00  0.00    +0.000 C 
ATOM     22  O   UNL     1       0.885   9.219  19.398  0.00  0.00    +0.000 OA
ENDBRANCH  11  14
BRANCH  10  23
ATOM     23  C   UNL     1       6.965   7.079  17.433  0.00  0.00    +0.000 C 
ATOM     24  O   UNL     1       6.631   7.687  16.421  0.00  0.00    +0.000 OA
ATOM     25  N   UNL     1       8.010   7.492  18.254  0.00  0.00    +0.000 N 
ATOM     26  H   UNL     1       8.301   6.919  19.039  0.00  0.00    +0.000 HD
BRANCH  25  27
ATOM     27  N   UNL     1       8.638   8.675  17.973  0.00  0.00    +0.000 NA
ATOM     28  C   UNL     1       7.979   9.761  18.213  0.00  0.00    +0.000 C 
BRANCH  28  29
ATOM     29  C   UNL     1       8.589  11.090  17.983  0.00  0.00    +0.000 A 
ATOM     30  C   UNL     1       7.801  12.207  17.676  0.00  0.00    +0.000 A 
ATOM     31  C   UNL     1       8.406  13.436  17.405  0.00  0.00    +0.000 A 
ATOM     32  C   UNL     1       9.796  13.551  17.438  0.00  0.00    +0.000 A 
ATOM     33  C   UNL     1      10.575  12.438  17.756  0.00  0.00    +0.000 A 
ATOM     34 CL   UNL     1      12.290  12.580  17.786  0.00  0.00    +0.000 Cl
ATOM     35  C   UNL     1       9.981  11.207  18.035  0.00  0.00    +0.000 A 
ENDBRANCH  28  29
ENDBRANCH  25  27
ENDBRANCH  10  23
TORSDOF 4
ENDMDL
MODEL 7
REMARK VINA RESULT:      -8.6      1.230      1.709
REMARK  Name = 
REMARK  4 active torsions:
REMARK  status: ('A' for Active; 'I' for Inactive)
REMARK    1  A    between atoms: C_10  and  C_11
REMARK    2  A    between atoms: N_13  and  N_14
REMARK    3  A    between atoms: C_15  and  C_16
REMARK    4  A    between atoms: C_23  and  C_24
REMARK                            x       y       z     vdW  Elec       q    Type
REMARK                         _______ _______ _______ _____ _____    ______ ____
ROOT
ATOM      1  N   UNL     1       4.743   1.852  20.537  0.00  0.00    +0.000 N 
ATOM      2  C   UNL     1       3.732   2.397  19.836  0.00  0.00    +0.000 A 
ATOM      3  N   UNL     1       2.473   1.963  19.895  0.00  0.00    +0.000 NA
ATOM      4  O   UNL     1       1.741   2.831  19.093  0.00  0.00    +0.000 OA
ATOM      5  N   UNL     1       2.553   3.825  18.551  0.00  0.00    +0.000 NA
ATOM      6  C   UNL     1       3.770   3.544  19.024  0.00  0.00    +0.000 A 
ATOM      7  N   UNL     1       4.875   4.380  18.713  0.00  0.00    +0.000 N 
ATOM      8  N   UNL     1       6.154   3.912  18.774  0.00  0.00    +0.000 NA
ATOM      9  N   UNL     1       6.958   4.806  18.233  0.00  0.00    +0.000 NA
ATOM     10  C   UNL     1       6.227   5.934  17.946  0.00  0.00    +0.000 A 
ATOM     11  C   UNL     1       4.904   5.750  18.377  0.00  0.00    +0.000 A 
ATOM     12  H   UNL     1       4.548   1.128  21.221  0.00  0.00    +0.000 HD
ATOM     13  H   UNL     1       5.670   2.268  20.596  0.00  0.00    +0.000 HD
ENDROOT
BRANCH  11  14
ATOM     14  C   UNL     1       3.808   6.716  18.654  0.00  0.00    +0.000 A 
ATOM     15  C   UNL     1       3.298   7.560  17.631  0.00  0.00    +0.000 A 
ATOM     16  C   UNL     1       2.225   8.440  17.846  0.00  0.00    +0.000 A 
ATOM     17  C   UNL     1       1.604   8.400  19.070  0.00  0.00    +0.000 A 
ATOM     18  C   UNL     1       2.057   7.572  20.062  0.00  0.00    +0.000 A 
ATOM     19  C   UNL     1       3.165   6.764  19.898  0.00  0.00    +0.000 A 
ATOM     20  O   UNL     1       1.285   7.638  21.178  0.00  0.00    +0.000 OA
ATOM     21  C   UNL     1       0.292   8.600  20.770  0.00  0.00    +0.000 C 
ATOM     22  O   UNL     1       0.512   9.112  19.439  0.00  0.00    +0.000 OA
ENDBRANCH  11  14
BRANCH  10  23
ATOM     23  C   UNL     1       6.888   7.106  17.367  0.00  0.00    +0.000 C 
ATOM     24  O   UNL     1       6.741   7.449  16.199  0.00  0.00    +0.000 OA
ATOM     25  N   UNL     1       7.729   7.775  18.252  0.00  0.00    +0.000 N 
ATOM     26  H   UNL     1       7.879   7.413  19.188  0.00  0.00    +0.000 HD
BRANCH  25  27
ATOM     27  N   UNL     1       8.353   8.917  17.830  0.00  0.00    +0.000 NA
ATOM     28  C   UNL     1       8.819   9.704  18.744  0.00  0.00    +0.000 C 
BRANCH  28  29
ATOM     29  C   UNL     1       9.547  10.942  18.386  0.00  0.00    +0.000 A 
ATOM     30  C   UNL     1      10.945  10.959  18.288  0.00  0.00    +0.000 A 
ATOM     31  C   UNL     1      11.611  12.153  18.007  0.00  0.00    +0.000 A 
ATOM     32  C   UNL     1      10.885  13.330  17.825  0.00  0.00    +0.000 A 
ATOM     33  C   UNL     1       9.492  13.304  17.912  0.00  0.00    +0.000 A 
ATOM     34 CL   UNL     1       8.599  14.760  17.697  0.00  0.00    +0.000 Cl
ATOM     35  C   UNL     1       8.816  12.115  18.185  0.00  0.00    +0.000 A 
ENDBRANCH  28  29
ENDBRANCH  25  27
ENDBRANCH  10  23
TORSDOF 4
ENDMDL
MODEL 8
REMARK VINA RESULT:      -8.5      6.321     10.146
REMARK  Name = 
REMARK  4 active torsions:
REMARK  status: ('A' for Active; 'I' for Inactive)
REMARK    1  A    between atoms: C_10  and  C_11
REMARK    2  A    between atoms: N_13  and  N_14
REMARK    3  A    between atoms: C_15  and  C_16
REMARK    4  A    between atoms: C_23  and  C_24
REMARK                            x       y       z     vdW  Elec       q    Type
REMARK                         _______ _______ _______ _____ _____    ______ ____
ROOT
ATOM      1  N   UNL     1       2.176  16.435  19.160  0.00  0.00    +0.000 N 
ATOM      2  C   UNL     1       2.004  15.906  20.385  0.00  0.00    +0.000 A 
ATOM      3  N   UNL     1       1.960  16.630  21.504  0.00  0.00    +0.000 NA
ATOM      4  O   UNL     1       1.697  15.723  22.524  0.00  0.00    +0.000 OA
ATOM      5  N   UNL     1       1.555  14.429  22.028  0.00  0.00    +0.000 NA
ATOM      6  C   UNL     1       1.742  14.564  20.713  0.00  0.00    +0.000 A 
ATOM      7  N   UNL     1       1.631  13.441  19.850  0.00  0.00    +0.000 N 
ATOM      8  N   UNL     1       2.238  13.426  18.629  0.00  0.00    +0.000 NA
ATOM      9  N   UNL     1       2.165  12.206  18.136  0.00  0.00    +0.000 NA
ATOM     10  C   UNL     1       1.377  11.446  18.966  0.00  0.00    +0.000 A 
ATOM     11  C   UNL     1       0.893  12.250  20.010  0.00  0.00    +0.000 A 
ATOM     12  H   UNL     1       2.185  17.444  19.045  0.00  0.00    +0.000 HD
ATOM     13  H   UNL     1       2.073  15.900  18.301  0.00  0.00    +0.000 HD
ENDROOT
BRANCH  11  14
ATOM     14  C   UNL     1      -0.245  12.075  20.951  0.00  0.00    +0.000 A 
ATOM     15  C   UNL     1      -0.131  11.235  22.091  0.00  0.00    +0.000 A 
ATOM     16  C   UNL     1      -1.167  11.096  23.029  0.00  0.00    +0.000 A 
ATOM     17  C   UNL     1      -2.283  11.878  22.867  0.00  0.00    +0.000 A 
ATOM     18  C   UNL     1      -2.403  12.718  21.793  0.00  0.00    +0.000 A 
ATOM     19  C   UNL     1      -1.434  12.804  20.813  0.00  0.00    +0.000 A 
ATOM     20  O   UNL     1      -3.552  13.442  21.834  0.00  0.00    +0.000 OA
ATOM     21  C   UNL     1      -4.138  12.962  23.060  0.00  0.00    +0.000 C 
ATOM     22  O   UNL     1      -3.346  11.941  23.703  0.00  0.00    +0.000 OA
ENDBRANCH  11  14
BRANCH  10  23
ATOM     23  C   UNL     1       1.096  10.047  18.630  0.00  0.00    +0.000 C 
ATOM     24  O   UNL     1       0.047   9.681  18.110  0.00  0.00    +0.000 OA
ATOM     25  N   UNL     1       2.112   9.166  18.986  0.00  0.00    +0.000 N 
ATOM     26  H   UNL     1       2.931   9.502  19.482  0.00  0.00    +0.000 HD
BRANCH  25  27
ATOM     27  N   UNL     1       1.976   7.843  18.666  0.00  0.00    +0.000 NA
ATOM     28  C   UNL     1       2.295   6.983  19.577  0.00  0.00    +0.000 C 
BRANCH  28  29
ATOM     29  C   UNL     1       2.143   5.529  19.341  0.00  0.00    +0.000 A 
ATOM     30  C   UNL     1       2.153   4.999  18.044  0.00  0.00    +0.000 A 
ATOM     31  C   UNL     1       1.948   3.632  17.845  0.00  0.00    +0.000 A 
ATOM     32  C   UNL     1       1.732   2.794  18.940  0.00  0.00    +0.000 A 
ATOM     33  C   UNL     1       1.735   3.326  20.230  0.00  0.00    +0.000 A 
ATOM     34 CL   UNL     1       1.458   2.291  21.577  0.00  0.00    +0.000 Cl
ATOM     35  C   UNL     1       1.946   4.689  20.440  0.00  0.00    +0.000 A 
ENDBRANCH  28  29
ENDBRANCH  25  27
ENDBRANCH  10  23
TORSDOF 4
ENDMDL
MODEL 9
REMARK VINA RESULT:      -8.4      1.603      2.058
REMARK  Name = 
REMARK  4 active torsions:
REMARK  status: ('A' for Active; 'I' for Inactive)
REMARK    1  A    between atoms: C_10  and  C_11
REMARK    2  A    between atoms: N_13  and  N_14
REMARK    3  A    between atoms: C_15  and  C_16
REMARK    4  A    between atoms: C_23  and  C_24
REMARK                            x       y       z     vdW  Elec       q    Type
REMARK                         _______ _______ _______ _____ _____    ______ ____
ROOT
ATOM      1  N   UNL     1       3.509   1.376  18.805  0.00  0.00    +0.000 N 
ATOM      2  C   UNL     1       2.536   2.223  18.427  0.00  0.00    +0.000 A 
ATOM      3  N   UNL     1       1.237   1.986  18.609  0.00  0.00    +0.000 NA
ATOM      4  O   UNL     1       0.582   3.125  18.154  0.00  0.00    +0.000 OA
ATOM      5  N   UNL     1       1.488   4.085  17.707  0.00  0.00    +0.000 NA
ATOM      6  C   UNL     1       2.681   3.514  17.888  0.00  0.00    +0.000 A 
ATOM      7  N   UNL     1       3.873   4.220  17.577  0.00  0.00    +0.000 N 
ATOM      8  N   UNL     1       5.037   3.561  17.311  0.00  0.00    +0.000 NA
ATOM      9  N   UNL     1       5.915   4.425  16.844  0.00  0.00    +0.000 NA
ATOM     10  C   UNL     1       5.380   5.687  16.941  0.00  0.00    +0.000 A 
ATOM     11  C   UNL     1       4.116   5.610  17.545  0.00  0.00    +0.000 A 
ATOM     12  H   UNL     1       3.273   0.545  19.340  0.00  0.00    +0.000 HD
ATOM     13  H   UNL     1       4.497   1.617  18.790  0.00  0.00    +0.000 HD
ENDROOT
BRANCH  11  14
ATOM     14  C   UNL     1       3.271   6.635  18.212  0.00  0.00    +0.000 A 
ATOM     15  C   UNL     1       2.767   7.752  17.491  0.00  0.00    +0.000 A 
ATOM     16  C   UNL     1       1.919   8.705  18.078  0.00  0.00    +0.000 A 
ATOM     17  C   UNL     1       1.502   8.480  19.366  0.00  0.00    +0.000 A 
ATOM     18  C   UNL     1       1.949   7.395  20.071  0.00  0.00    +0.000 A 
ATOM     19  C   UNL     1       2.852   6.495  19.542  0.00  0.00    +0.000 A 
ATOM     20  O   UNL     1       1.388   7.319  21.306  0.00  0.00    +0.000 OA
ATOM     21  C   UNL     1       0.534   8.480  21.294  0.00  0.00    +0.000 C 
ATOM     22  O   UNL     1       0.630   9.240  20.070  0.00  0.00    +0.000 OA
ENDBRANCH  11  14
BRANCH  10  23
ATOM     23  C   UNL     1       6.169   6.850  16.523  0.00  0.00    +0.000 C 
ATOM     24  O   UNL     1       6.158   7.289  15.377  0.00  0.00    +0.000 OA
ATOM     25  N   UNL     1       6.960   7.388  17.532  0.00  0.00    +0.000 N 
ATOM     26  H   UNL     1       6.995   6.947  18.445  0.00  0.00    +0.000 HD
BRANCH  25  27
ATOM     27  N   UNL     1       7.694   8.511  17.264  0.00  0.00    +0.000 NA
ATOM     28  C   UNL     1       8.030   9.248  18.272  0.00  0.00    +0.000 C 
BRANCH  28  29
ATOM     29  C   UNL     1       8.860  10.460  18.088  0.00  0.00    +0.000 A 
ATOM     30  C   UNL     1      10.258  10.401  18.165  0.00  0.00    +0.000 A 
ATOM     31  C   UNL     1      11.015  11.569  18.047  0.00  0.00    +0.000 A 
ATOM     32  C   UNL     1      10.378  12.795  17.852  0.00  0.00    +0.000 A 
ATOM     33  C   UNL     1       8.986  12.845  17.764  0.00  0.00    +0.000 A 
ATOM     34 CL   UNL     1       8.202  14.360  17.534  0.00  0.00    +0.000 Cl
ATOM     35  C   UNL     1       8.221  11.684  17.874  0.00  0.00    +0.000 A 
ENDBRANCH  28  29
ENDBRANCH  25  27
ENDBRANCH  10  23
TORSDOF 4
ENDMDL
