MODEL 1
REMARK VINA RESULT:      -6.9      0.000      0.000
REMARK  Name = 
REMARK  6 active torsions:
REMARK  status: ('A' for Active; 'I' for Inactive)
REMARK    1  A    between atoms: C_1  and  C_2
REMARK    2  A    between atoms: C_3  and  C_4
REMARK    3  A    between atoms: C_4  and  C_5
REMARK    4  A    between atoms: C_4  and  C_6
REMARK    5  A    between atoms: N_9  and  C_10
REMARK    6  A    between atoms: N_16  and  C_17
REMARK                            x       y       z     vdW  Elec       q    Type
REMARK                         _______ _______ _______ _____ _____    ______ ____
ROOT
ATOM      1  C   UNL     1       1.869   7.075  20.221  0.00  0.00    +0.000 C 
ATOM      2  C   UNL     1       2.586   5.935  19.567  0.00  0.00    +0.000 A 
ATOM      3  C   UNL     1       2.364   4.617  19.749  0.00  0.00    +0.000 A 
ATOM      4  C   UNL     1       3.184   3.940  18.691  0.00  0.00    +0.000 A 
ATOM      5  O   UNL     1       3.233   2.730  18.538  0.00  0.00    +0.000 OA
ATOM      6  N   UNL     1       3.854   4.952  17.998  0.00  0.00    +0.000 N 
ATOM      7  N   UNL     1       3.587   6.186  18.621  0.00  0.00    +0.000 N 
ATOM      8  C   UNL     1       3.580   7.384  17.784  0.00  0.00    +0.000 C 
ENDROOT
BRANCH   6   9
ATOM      9  C   UNL     1       4.963   4.742  17.157  0.00  0.00    +0.000 A 
ATOM     10  C   UNL     1       4.762   4.534  15.789  0.00  0.00    +0.000 A 
ATOM     11  C   UNL     1       5.852   4.451  14.918  0.00  0.00    +0.000 A 
ATOM     12  C   UNL     1       7.151   4.525  15.416  0.00  0.00    +0.000 A 
ATOM     13  C   UNL     1       7.365   4.679  16.784  0.00  0.00    +0.000 A 
ATOM     14  C   UNL     1       6.276   4.796  17.651  0.00  0.00    +0.000 A 
ENDBRANCH   6   9
BRANCH   3  15
ATOM     15  C   UNL     1       1.531   3.824  20.710  0.00  0.00    +0.000 C 
ATOM     16  C   UNL     1       0.514   2.933  19.993  0.00  0.00    +0.000 C 
ATOM     17  C   UNL     1       2.364   3.013  21.703  0.00  0.00    +0.000 C 
ENDBRANCH   3  15
TORSDOF 2
ENDMDL
MODEL 2
REMARK VINA RESULT:      -6.8      0.698      1.120
REMARK  Name = 
REMARK  6 active torsions:
REMARK  status: ('A' for Active; 'I' for Inactive)
REMARK    1  A    between atoms: C_1  and  C_2
REMARK    2  A    between atoms: C_3  and  C_4
REMARK    3  A    between atoms: C_4  and  C_5
REMARK    4  A    between atoms: C_4  and  C_6
REMARK    5  A    between atoms: N_9  and  C_10
REMARK    6  A    between atoms: N_16  and  C_17
REMARK                            x       y       z     vdW  Elec       q    Type
REMARK                         _______ _______ _______ _____ _____    ______ ____
ROOT
ATOM      1  C   UNL     1       2.054   6.106  20.226  0.00  0.00    +0.000 C 
ATOM      2  C   UNL     1       2.809   5.140  19.367  0.00  0.00    +0.000 A 
ATOM      3  C   UNL     1       2.683   3.797  19.342  0.00  0.00    +0.000 A 
ATOM      4  C   UNL     1       3.491   3.359  18.156  0.00  0.00    +0.000 A 
ATOM      5  O   UNL     1       3.611   2.196  17.807  0.00  0.00    +0.000 OA
ATOM      6  N   UNL     1       4.058   4.514  17.611  0.00  0.00    +0.000 N 
ATOM      7  N   UNL     1       3.743   5.611  18.436  0.00  0.00    +0.000 N 
ATOM      8  C   UNL     1       3.614   6.924  17.806  0.00  0.00    +0.000 C 
ENDROOT
BRANCH   6   9
ATOM      9  C   UNL     1       5.134   4.523  16.704  0.00  0.00    +0.000 A 
ATOM     10  C   UNL     1       4.880   4.441  15.331  0.00  0.00    +0.000 A 
ATOM     11  C   UNL     1       5.922   4.575  14.410  0.00  0.00    +0.000 A 
ATOM     12  C   UNL     1       7.232   4.742  14.855  0.00  0.00    +0.000 A 
ATOM     13  C   UNL     1       7.504   4.771  16.221  0.00  0.00    +0.000 A 
ATOM     14  C   UNL     1       6.459   4.671  17.143  0.00  0.00    +0.000 A 
ENDBRANCH   6   9
BRANCH   3  15
ATOM     15  C   UNL     1       1.954   2.803  20.193  0.00  0.00    +0.000 C 
ATOM     16  C   UNL     1       2.305   2.947  21.677  0.00  0.00    +0.000 C 
ATOM     17  C   UNL     1       0.439   2.829  19.986  0.00  0.00    +0.000 C 
ENDBRANCH   3  15
TORSDOF 2
ENDMDL
MODEL 3
REMARK VINA RESULT:      -6.8      0.151      1.179
REMARK  Name = 
REMARK  6 active torsions:
REMARK  status: ('A' for Active; 'I' for Inactive)
REMARK    1  A    between atoms: C_1  and  C_2
REMARK    2  A    between atoms: C_3  and  C_4
REMARK    3  A    between atoms: C_4  and  C_5
REMARK    4  A    between atoms: C_4  and  C_6
REMARK    5  A    between atoms: N_9  and  C_10
REMARK    6  A    between atoms: N_16  and  C_17
REMARK                            x       y       z     vdW  Elec       q    Type
REMARK                         _______ _______ _______ _____ _____    ______ ____
ROOT
ATOM      1  C   UNL     1       1.741   7.098  20.276  0.00  0.00    +0.000 C 
ATOM      2  C   UNL     1       2.497   5.999  19.596  0.00  0.00    +0.000 A 
ATOM      3  C   UNL     1       2.311   4.670  19.736  0.00  0.00    +0.000 A 
ATOM      4  C   UNL     1       3.162   4.050  18.667  0.00  0.00    +0.000 A 
ATOM      5  O   UNL     1       3.247   2.847  18.478  0.00  0.00    +0.000 OA
ATOM      6  N   UNL     1       3.810   5.101  18.013  0.00  0.00    +0.000 N 
ATOM      7  N   UNL     1       3.501   6.308  18.670  0.00  0.00    +0.000 N 
ATOM      8  C   UNL     1       3.468   7.530  17.870  0.00  0.00    +0.000 C 
ENDROOT
BRANCH   6   9
ATOM      9  C   UNL     1       4.934   4.949  17.180  0.00  0.00    +0.000 A 
ATOM     10  C   UNL     1       6.212   4.913  17.746  0.00  0.00    +0.000 A 
ATOM     11  C   UNL     1       7.330   4.636  16.954  0.00  0.00    +0.000 A 
ATOM     12  C   UNL     1       7.183   4.442  15.582  0.00  0.00    +0.000 A 
ATOM     13  C   UNL     1       5.921   4.528  14.998  0.00  0.00    +0.000 A 
ATOM     14  C   UNL     1       4.799   4.771  15.794  0.00  0.00    +0.000 A 
ENDBRANCH   6   9
BRANCH   3  15
ATOM     15  C   UNL     1       1.491   3.826  20.662  0.00  0.00    +0.000 C 
ATOM     16  C   UNL     1       0.528   2.907  19.905  0.00  0.00    +0.000 C 
ATOM     17  C   UNL     1       2.335   3.030  21.659  0.00  0.00    +0.000 C 
ENDBRANCH   3  15
TORSDOF 2
ENDMDL
MODEL 4
REMARK VINA RESULT:      -6.7      0.638      1.589
REMARK  Name = 
REMARK  6 active torsions:
REMARK  status: ('A' for Active; 'I' for Inactive)
REMARK    1  A    between atoms: C_1  and  C_2
REMARK    2  A    between atoms: C_3  and  C_4
REMARK    3  A    between atoms: C_4  and  C_5
REMARK    4  A    between atoms: C_4  and  C_6
REMARK    5  A    between atoms: N_9  and  C_10
REMARK    6  A    between atoms: N_16  and  C_17
REMARK                            x       y       z     vdW  Elec       q    Type
REMARK                         _______ _______ _______ _____ _____    ______ ____
ROOT
ATOM      1  C   UNL     1       1.918   6.118  20.302  0.00  0.00    +0.000 C 
ATOM      2  C   UNL     1       2.716   5.206  19.425  0.00  0.00    +0.000 A 
ATOM      3  C   UNL     1       2.645   3.859  19.364  0.00  0.00    +0.000 A 
ATOM      4  C   UNL     1       3.477   3.485  18.174  0.00  0.00    +0.000 A 
ATOM      5  O   UNL     1       3.645   2.337  17.795  0.00  0.00    +0.000 OA
ATOM      6  N   UNL     1       4.000   4.675  17.662  0.00  0.00    +0.000 N 
ATOM      7  N   UNL     1       3.636   5.737  18.513  0.00  0.00    +0.000 N 
ATOM      8  C   UNL     1       3.460   7.059  17.915  0.00  0.00    +0.000 C 
ENDROOT
BRANCH   6   9
ATOM      9  C   UNL     1       5.081   4.750  16.764  0.00  0.00    +0.000 A 
ATOM     10  C   UNL     1       6.388   4.801  17.261  0.00  0.00    +0.000 A 
ATOM     11  C   UNL     1       7.479   4.747  16.389  0.00  0.00    +0.000 A 
ATOM     12  C   UNL     1       7.271   4.692  15.012  0.00  0.00    +0.000 A 
ATOM     13  C   UNL     1       5.974   4.694  14.504  0.00  0.00    +0.000 A 
ATOM     14  C   UNL     1       4.883   4.714  15.375  0.00  0.00    +0.000 A 
ENDBRANCH   6   9
BRANCH   3  15
ATOM     15  C   UNL     1       1.949   2.816  20.184  0.00  0.00    +0.000 C 
ATOM     16  C   UNL     1       2.321   2.906  21.667  0.00  0.00    +0.000 C 
ATOM     17  C   UNL     1       0.431   2.818  20.001  0.00  0.00    +0.000 C 
ENDBRANCH   3  15
TORSDOF 2
ENDMDL
MODEL 5
REMARK VINA RESULT:      -6.6      2.071      5.443
REMARK  Name = 
REMARK  6 active torsions:
REMARK  status: ('A' for Active; 'I' for Inactive)
REMARK    1  A    between atoms: C_1  and  C_2
REMARK    2  A    between atoms: C_3  and  C_4
REMARK    3  A    between atoms: C_4  and  C_5
REMARK    4  A    between atoms: C_4  and  C_6
REMARK    5  A    between atoms: N_9  and  C_10
REMARK    6  A    between atoms: N_16  and  C_17
REMARK                            x       y       z     vdW  Elec       q    Type
REMARK                         _______ _______ _______ _____ _____    ______ ____
ROOT
ATOM      1  C   UNL     1       3.726   2.458  17.459  0.00  0.00    +0.000 C 
ATOM      2  C   UNL     1       3.927   3.932  17.620  0.00  0.00    +0.000 A 
ATOM      3  C   UNL     1       5.021   4.650  17.289  0.00  0.00    +0.000 A 
ATOM      4  C   UNL     1       4.600   6.081  17.439  0.00  0.00    +0.000 A 
ATOM      5  O   UNL     1       5.332   7.033  17.218  0.00  0.00    +0.000 OA
ATOM      6  N   UNL     1       3.278   6.063  17.893  0.00  0.00    +0.000 N 
ATOM      7  N   UNL     1       2.896   4.729  18.131  0.00  0.00    +0.000 N 
ATOM      8  C   UNL     1       1.487   4.381  17.953  0.00  0.00    +0.000 C 
ENDROOT
BRANCH   6   9
ATOM      9  C   UNL     1       2.618   7.163  18.471  0.00  0.00    +0.000 A 
ATOM     10  C   UNL     1       2.221   8.232  17.661  0.00  0.00    +0.000 A 
ATOM     11  C   UNL     1       1.454   9.274  18.190  0.00  0.00    +0.000 A 
ATOM     12  C   UNL     1       1.122   9.280  19.543  0.00  0.00    +0.000 A 
ATOM     13  C   UNL     1       1.558   8.247  20.371  0.00  0.00    +0.000 A 
ATOM     14  C   UNL     1       2.295   7.189  19.836  0.00  0.00    +0.000 A 
ENDBRANCH   6   9
BRANCH   3  15
ATOM     15  C   UNL     1       6.406   4.291  16.844  0.00  0.00    +0.000 C 
ATOM     16  C   UNL     1       6.673   4.707  15.395  0.00  0.00    +0.000 C 
ATOM     17  C   UNL     1       7.495   4.824  17.775  0.00  0.00    +0.000 C 
ENDBRANCH   3  15
TORSDOF 2
ENDMDL
MODEL 6
REMARK VINA RESULT:      -6.6      1.723      5.664
REMARK  Name = 
REMARK  6 active torsions:
REMARK  status: ('A' for Active; 'I' for Inactive)
REMARK    1  A    between atoms: C_1  and  C_2
REMARK    2  A    between atoms: C_3  and  C_4
REMARK    3  A    between atoms: C_4  and  C_5
REMARK    4  A    between atoms: C_4  and  C_6
REMARK    5  A    between atoms: N_9  and  C_10
REMARK    6  A    between atoms: N_16  and  C_17
REMARK                            x       y       z     vdW  Elec       q    Type
REMARK                         _______ _______ _______ _____ _____    ______ ____
ROOT
ATOM      1  C   UNL     1       5.945   3.902  15.426  0.00  0.00    +0.000 C 
ATOM      2  C   UNL     1       5.500   4.186  16.826  0.00  0.00    +0.000 A 
ATOM      3  C   UNL     1       6.077   5.022  17.714  0.00  0.00    +0.000 A 
ATOM      4  C   UNL     1       5.104   5.102  18.853  0.00  0.00    +0.000 A 
ATOM      5  O   UNL     1       5.282   5.778  19.854  0.00  0.00    +0.000 OA
ATOM      6  N   UNL     1       4.042   4.253  18.531  0.00  0.00    +0.000 N 
ATOM      7  N   UNL     1       4.343   3.580  17.331  0.00  0.00    +0.000 N 
ATOM      8  C   UNL     1       3.228   3.198  16.466  0.00  0.00    +0.000 C 
ENDROOT
BRANCH   6   9
ATOM      9  C   UNL     1       3.089   3.783  19.454  0.00  0.00    +0.000 A 
ATOM     10  C   UNL     1       3.451   2.797  20.377  0.00  0.00    +0.000 A 
ATOM     11  C   UNL     1       2.561   2.408  21.382  0.00  0.00    +0.000 A 
ATOM     12  C   UNL     1       1.286   2.966  21.441  0.00  0.00    +0.000 A 
ATOM     13  C   UNL     1       0.895   3.910  20.493  0.00  0.00    +0.000 A 
ATOM     14  C   UNL     1       1.795   4.324  19.509  0.00  0.00    +0.000 A 
ENDBRANCH   6   9
BRANCH   3  15
ATOM     15  C   UNL     1       7.363   5.790  17.737  0.00  0.00    +0.000 C 
ATOM     16  C   UNL     1       7.166   7.258  17.348  0.00  0.00    +0.000 C 
ATOM     17  C   UNL     1       8.112   5.673  19.066  0.00  0.00    +0.000 C 
ENDBRANCH   3  15
TORSDOF 2
ENDMDL
MODEL 7
REMARK VINA RESULT:      -6.5      2.050      5.532
REMARK  Name = 
REMARK  6 active torsions:
REMARK  status: ('A' for Active; 'I' for Inactive)
REMARK    1  A    between atoms: C_1  and  C_2
REMARK    2  A    between atoms: C_3  and  C_4
REMARK    3  A    between atoms: C_4  and  C_5
REMARK    4  A    between atoms: C_4  and  C_6
REMARK    5  A    between atoms: N_9  and  C_10
REMARK    6  A    between atoms: N_16  and  C_17
REMARK                            x       y       z     vdW  Elec       q    Type
REMARK                         _______ _______ _______ _____ _____    ______ ____
ROOT
ATOM      1  C   UNL     1       3.771   2.406  17.453  0.00  0.00    +0.000 C 
ATOM      2  C   UNL     1       3.915   3.883  17.639  0.00  0.00    +0.000 A 
ATOM      3  C   UNL     1       4.981   4.648  17.326  0.00  0.00    +0.000 A 
ATOM      4  C   UNL     1       4.505   6.060  17.499  0.00  0.00    +0.000 A 
ATOM      5  O   UNL     1       5.200   7.042  17.298  0.00  0.00    +0.000 OA
ATOM      6  N   UNL     1       3.183   5.983  17.946  0.00  0.00    +0.000 N 
ATOM      7  N   UNL     1       2.851   4.631  18.160  0.00  0.00    +0.000 N 
ATOM      8  C   UNL     1       1.458   4.233  17.969  0.00  0.00    +0.000 C 
ENDROOT
BRANCH   6   9
ATOM      9  C   UNL     1       2.479   7.047  18.539  0.00  0.00    +0.000 A 
ATOM     10  C   UNL     1       2.208   7.015  19.911  0.00  0.00    +0.000 A 
ATOM     11  C   UNL     1       1.624   8.116  20.544  0.00  0.00    +0.000 A 
ATOM     12  C   UNL     1       1.262   9.237  19.800  0.00  0.00    +0.000 A 
ATOM     13  C   UNL     1       1.478   9.260  18.424  0.00  0.00    +0.000 A 
ATOM     14  C   UNL     1       2.092   8.173  17.797  0.00  0.00    +0.000 A 
ENDBRANCH   6   9
BRANCH   3  15
ATOM     15  C   UNL     1       6.381   4.350  16.882  0.00  0.00    +0.000 C 
ATOM     16  C   UNL     1       6.633   4.787  15.436  0.00  0.00    +0.000 C 
ATOM     17  C   UNL     1       7.445   4.924  17.819  0.00  0.00    +0.000 C 
ENDBRANCH   3  15
TORSDOF 2
ENDMDL
MODEL 8
REMARK VINA RESULT:      -6.5      1.735      5.607
REMARK  Name = 
REMARK  6 active torsions:
REMARK  status: ('A' for Active; 'I' for Inactive)
REMARK    1  A    between atoms: C_1  and  C_2
REMARK    2  A    between atoms: C_3  and  C_4
REMARK    3  A    between atoms: C_4  and  C_5
REMARK    4  A    between atoms: C_4  and  C_6
REMARK    5  A    between atoms: N_9  and  C_10
REMARK    6  A    between atoms: N_16  and  C_17
REMARK                            x       y       z     vdW  Elec       q    Type
REMARK                         _______ _______ _______ _____ _____    ______ ____
ROOT
ATOM      1  C   UNL     1       5.913   3.787  15.517  0.00  0.00    +0.000 C 
ATOM      2  C   UNL     1       5.492   4.132  16.911  0.00  0.00    +0.000 A 
ATOM      3  C   UNL     1       6.089   4.999  17.756  0.00  0.00    +0.000 A 
ATOM      4  C   UNL     1       5.135   5.133  18.905  0.00  0.00    +0.000 A 
ATOM      5  O   UNL     1       5.333   5.848  19.874  0.00  0.00    +0.000 OA
ATOM      6  N   UNL     1       4.062   4.279  18.635  0.00  0.00    +0.000 N 
ATOM      7  N   UNL     1       4.339   3.556  17.459  0.00  0.00    +0.000 N 
ATOM      8  C   UNL     1       3.209   3.146  16.628  0.00  0.00    +0.000 C 
ENDROOT
BRANCH   6   9
ATOM      9  C   UNL     1       3.121   3.855  19.591  0.00  0.00    +0.000 A 
ATOM     10  C   UNL     1       1.829   4.390  19.571  0.00  0.00    +0.000 A 
ATOM     11  C   UNL     1       0.843   3.891  20.428  0.00  0.00    +0.000 A 
ATOM     12  C   UNL     1       1.156   2.889  21.344  0.00  0.00    +0.000 A 
ATOM     13  C   UNL     1       2.453   2.386  21.410  0.00  0.00    +0.000 A 
ATOM     14  C   UNL     1       3.430   2.860  20.531  0.00  0.00    +0.000 A 
ENDBRANCH   6   9
BRANCH   3  15
ATOM     15  C   UNL     1       7.381   5.758  17.726  0.00  0.00    +0.000 C 
ATOM     16  C   UNL     1       7.180   7.222  17.324  0.00  0.00    +0.000 C 
ATOM     17  C   UNL     1       8.170   5.653  19.032  0.00  0.00    +0.000 C 
ENDBRANCH   3  15
TORSDOF 2
ENDMDL
MODEL 9
REMARK VINA RESULT:      -6.4      1.493      5.142
REMARK  Name = 
REMARK  6 active torsions:
REMARK  status: ('A' for Active; 'I' for Inactive)
REMARK    1  A    between atoms: C_1  and  C_2
REMARK    2  A    between atoms: C_3  and  C_4
REMARK    3  A    between atoms: C_4  and  C_5
REMARK    4  A    between atoms: C_4  and  C_6
REMARK    5  A    between atoms: N_9  and  C_10
REMARK    6  A    between atoms: N_16  and  C_17
REMARK                            x       y       z     vdW  Elec       q    Type
REMARK                         _______ _______ _______ _____ _____    ______ ____
ROOT
ATOM      1  C   UNL     1       5.087   7.562  16.899  0.00  0.00    +0.000 C 
ATOM      2  C   UNL     1       4.823   6.295  17.650  0.00  0.00    +0.000 A 
ATOM      3  C   UNL     1       5.734   5.413  18.113  0.00  0.00    +0.000 A 
ATOM      4  C   UNL     1       4.950   4.471  18.977  0.00  0.00    +0.000 A 
ATOM      5  O   UNL     1       5.443   3.530  19.579  0.00  0.00    +0.000 OA
ATOM      6  N   UNL     1       3.615   4.878  18.903  0.00  0.00    +0.000 N 
ATOM      7  N   UNL     1       3.510   5.933  17.977  0.00  0.00    +0.000 N 
ATOM      8  C   UNL     1       2.463   6.930  18.194  0.00  0.00    +0.000 C 
ENDROOT
BRANCH   6   9
ATOM      9  C   UNL     1       2.518   4.086  19.290  0.00  0.00    +0.000 A 
ATOM     10  C   UNL     1       1.854   3.313  18.332  0.00  0.00    +0.000 A 
ATOM     11  C   UNL     1       0.846   2.424  18.714  0.00  0.00    +0.000 A 
ATOM     12  C   UNL     1       0.460   2.339  20.051  0.00  0.00    +0.000 A 
ATOM     13  C   UNL     1       1.077   3.144  21.006  0.00  0.00    +0.000 A 
ATOM     14  C   UNL     1       2.108   4.007  20.630  0.00  0.00    +0.000 A 
ENDBRANCH   6   9
BRANCH   3  15
ATOM     15  C   UNL     1       7.213   5.253  17.932  0.00  0.00    +0.000 C 
ATOM     16  C   UNL     1       7.578   4.847  16.501  0.00  0.00    +0.000 C 
ATOM     17  C   UNL     1       8.010   6.482  18.372  0.00  0.00    +0.000 C 
ENDBRANCH   3  15
TORSDOF 2
ENDMDL
