MODEL 1
REMARK VINA RESULT:      -8.0      0.000      0.000
REMARK  Name = 
REMARK  10 active torsions:
REMARK  status: ('A' for Active; 'I' for Inactive)
REMARK    1  A    between atoms: C_2  and  O_3
REMARK    2  A    between atoms: C_2  and  C_4
REMARK    3  A    between atoms: C_4  and  N_5
REMARK    4  A    between atoms: C_6  and  C_8
REMARK    5  A    between atoms: C_11  and  N_12
REMARK    6  A    between atoms: N_12  and  C_13
REMARK    7  A    between atoms: C_13  and  N_15
REMARK    8  A    between atoms: N_15  and  C_16
REMARK    9  A    between atoms: C_19  and  S_20
REMARK   10  A    between atoms: S_20  and  N_23
REMARK                            x       y       z     vdW  Elec       q    Type
REMARK                         _______ _______ _______ _____ _____    ______ ____
ROOT
ATOM      1  C   UNL     1       2.497   4.826  20.380  0.00  0.00    +0.000 C 
ATOM      2  S   UNL     1       1.022   4.052  20.199  0.00  0.00    +0.000 S 
ENDROOT
BRANCH   1   3
ATOM      3  N   UNL     1       3.622   4.146  19.989  0.00  0.00    +0.000 N 
ATOM      4  H   UNL     1       4.059   3.631  20.749  0.00  0.00    +0.000 HD
BRANCH   3   8
ATOM      5  C   UNL     1       5.754   4.291  16.340  0.00  0.00    +0.000 A 
ATOM      6  C   UNL     1       6.347   4.797  17.500  0.00  0.00    +0.000 A 
ATOM      7  C   UNL     1       5.659   4.747  18.717  0.00  0.00    +0.000 A 
ATOM      8  C   UNL     1       4.365   4.229  18.791  0.00  0.00    +0.000 A 
ATOM      9  C   UNL     1       3.786   3.697  17.632  0.00  0.00    +0.000 A 
ATOM     10  C   UNL     1       4.472   3.739  16.411  0.00  0.00    +0.000 A 
BRANCH   5  12
ATOM     11  N   UNL     1       5.928   3.593  14.005  0.00  0.00    +0.000 N 
ATOM     12  C   UNL     1       6.434   4.370  15.020  0.00  0.00    +0.000 C 
ATOM     13  O   UNL     1       7.399   5.110  14.865  0.00  0.00    +0.000 OA
ATOM     14  H   UNL     1       5.045   3.099  14.097  0.00  0.00    +0.000 HD
BRANCH  11  15
ATOM     15  C   UNL     1       6.552   3.607  12.696  0.00  0.00    +0.000 C 
BRANCH  15  17
ATOM     16  O   UNL     1       6.224   1.698  11.228  0.00  0.00    +0.000 OA
ATOM     17  C   UNL     1       5.796   2.743  11.700  0.00  0.00    +0.000 C 
BRANCH  17  18
ATOM     18  O   UNL     1       4.577   3.243  11.381  0.00  0.00    +0.000 OA
ATOM     19  H   UNL     1       4.294   3.992  11.938  0.00  0.00    +0.000 HD
ENDBRANCH  17  18
ENDBRANCH  15  17
ENDBRANCH  11  15
ENDBRANCH   5  12
ENDBRANCH   3   8
ENDBRANCH   1   3
BRANCH   1  20
ATOM     20  N   UNL     1       2.662   6.130  20.763  0.00  0.00    +0.000 N 
ATOM     21  H   UNL     1       3.448   6.292  21.383  0.00  0.00    +0.000 HD
BRANCH  20  22
ATOM     22  C   UNL     1       1.943   7.262  20.328  0.00  0.00    +0.000 A 
ATOM     23  C   UNL     1       1.101   7.973  21.186  0.00  0.00    +0.000 A 
ATOM     24  C   UNL     1       0.470   9.141  20.754  0.00  0.00    +0.000 A 
ATOM     25  C   UNL     1       0.701   9.615  19.461  0.00  0.00    +0.000 A 
ATOM     26  C   UNL     1       1.536   8.911  18.590  0.00  0.00    +0.000 A 
ATOM     27  C   UNL     1       2.172   7.746  19.033  0.00  0.00    +0.000 A 
BRANCH  25  28
ATOM     28  S   UNL     1      -0.186  11.048  18.895  0.00  0.00    +0.000 S 
ATOM     29  O   UNL     1      -1.062  10.606  17.827  0.00  0.00    +0.000 OA
ATOM     30  O   UNL     1      -0.737  11.721  20.051  0.00  0.00    +0.000 OA
BRANCH  28  31
ATOM     31  N   UNL     1       0.982  11.996  18.157  0.00  0.00    +0.000 N 
ATOM     32  C   UNL     1       1.334  13.125  18.891  0.00  0.00    +0.000 A 
ATOM     33  N   UNL     1       2.271  12.981  19.830  0.00  0.00    +0.000 NA
ATOM     34  C   UNL     1       2.539  14.091  20.544  0.00  0.00    +0.000 A 
ATOM     35  C   UNL     1       1.877  15.285  20.367  0.00  0.00    +0.000 A 
ATOM     36  C   UNL     1       0.923  15.296  19.375  0.00  0.00    +0.000 A 
ATOM     37  N   UNL     1       0.647  14.232  18.599  0.00  0.00    +0.000 NA
ATOM     38  H   UNL     1       0.659  12.248  17.229  0.00  0.00    +0.000 HD
ENDBRANCH  28  31
ENDBRANCH  25  28
ENDBRANCH  20  22
ENDBRANCH   1  20
TORSDOF 10
ENDMDL
MODEL 2
REMARK VINA RESULT:      -8.0      2.419      3.341
REMARK  Name = 
REMARK  10 active torsions:
REMARK  status: ('A' for Active; 'I' for Inactive)
REMARK    1  A    between atoms: C_2  and  O_3
REMARK    2  A    between atoms: C_2  and  C_4
REMARK    3  A    between atoms: C_4  and  N_5
REMARK    4  A    between atoms: C_6  and  C_8
REMARK    5  A    between atoms: C_11  and  N_12
REMARK    6  A    between atoms: N_12  and  C_13
REMARK    7  A    between atoms: C_13  and  N_15
REMARK    8  A    between atoms: N_15  and  C_16
REMARK    9  A    between atoms: C_19  and  S_20
REMARK   10  A    between atoms: S_20  and  N_23
REMARK                            x       y       z     vdW  Elec       q    Type
REMARK                         _______ _______ _______ _____ _____    ______ ____
ROOT
ATOM      1  C   UNL     1       2.908   5.549  20.017  0.00  0.00    +0.000 C 
ATOM      2  S   UNL     1       1.468   4.859  20.524  0.00  0.00    +0.000 S 
ENDROOT
BRANCH   1   3
ATOM      3  N   UNL     1       3.910   4.704  19.616  0.00  0.00    +0.000 N 
ATOM      4  H   UNL     1       4.272   4.129  20.372  0.00  0.00    +0.000 HD
BRANCH   3   8
ATOM      5  C   UNL     1       6.007   4.498  15.949  0.00  0.00    +0.000 A 
ATOM      6  C   UNL     1       6.629   5.070  17.062  0.00  0.00    +0.000 A 
ATOM      7  C   UNL     1       5.953   5.136  18.285  0.00  0.00    +0.000 A 
ATOM      8  C   UNL     1       4.643   4.670  18.409  0.00  0.00    +0.000 A 
ATOM      9  C   UNL     1       4.034   4.072  17.298  0.00  0.00    +0.000 A 
ATOM     10  C   UNL     1       4.707   3.998  16.072  0.00  0.00    +0.000 A 
BRANCH   5  12
ATOM     11  N   UNL     1       6.183   3.558  13.700  0.00  0.00    +0.000 N 
ATOM     12  C   UNL     1       6.675   4.453  14.621  0.00  0.00    +0.000 C 
ATOM     13  O   UNL     1       7.618   5.198  14.379  0.00  0.00    +0.000 OA
ATOM     14  H   UNL     1       5.314   3.054  13.853  0.00  0.00    +0.000 HD
BRANCH  11  15
ATOM     15  C   UNL     1       6.798   3.449  12.391  0.00  0.00    +0.000 C 
BRANCH  15  17
ATOM     16  O   UNL     1       4.999   2.252  11.277  0.00  0.00    +0.000 OA
ATOM     17  C   UNL     1       6.185   2.324  11.572  0.00  0.00    +0.000 C 
BRANCH  17  18
ATOM     18  O   UNL     1       7.091   1.394  11.186  0.00  0.00    +0.000 OA
ATOM     19  H   UNL     1       7.069   0.572  11.712  0.00  0.00    +0.000 HD
ENDBRANCH  17  18
ENDBRANCH  15  17
ENDBRANCH  11  15
ENDBRANCH   5  12
ENDBRANCH   3   8
ENDBRANCH   1   3
BRANCH   1  20
ATOM     20  N   UNL     1       3.121   6.891  19.846  0.00  0.00    +0.000 N 
ATOM     21  H   UNL     1       4.093   7.151  19.716  0.00  0.00    +0.000 HD
BRANCH  20  22
ATOM     22  C   UNL     1       2.161   7.917  19.732  0.00  0.00    +0.000 A 
ATOM     23  C   UNL     1       1.896   8.544  18.511  0.00  0.00    +0.000 A 
ATOM     24  C   UNL     1       0.879   9.494  18.409  0.00  0.00    +0.000 A 
ATOM     25  C   UNL     1       0.105   9.804  19.529  0.00  0.00    +0.000 A 
ATOM     26  C   UNL     1       0.362   9.189  20.757  0.00  0.00    +0.000 A 
ATOM     27  C   UNL     1       1.378   8.230  20.850  0.00  0.00    +0.000 A 
BRANCH  25  28
ATOM     28  S   UNL     1      -1.120  11.086  19.405  0.00  0.00    +0.000 S 
ATOM     29  O   UNL     1      -1.331  11.597  20.746  0.00  0.00    +0.000 OA
ATOM     30  O   UNL     1      -0.725  11.984  18.342  0.00  0.00    +0.000 OA
BRANCH  28  31
ATOM     31  N   UNL     1      -2.532  10.277  19.005  0.00  0.00    +0.000 N 
ATOM     32  C   UNL     1      -2.894  10.409  17.667  0.00  0.00    +0.000 A 
ATOM     33  N   UNL     1      -2.347   9.561  16.795  0.00  0.00    +0.000 NA
ATOM     34  C   UNL     1      -2.692   9.763  15.509  0.00  0.00    +0.000 A 
ATOM     35  C   UNL     1      -3.511  10.790  15.096  0.00  0.00    +0.000 A 
ATOM     36  C   UNL     1      -3.997  11.603  16.094  0.00  0.00    +0.000 A 
ATOM     37  N   UNL     1      -3.725  11.419  17.400  0.00  0.00    +0.000 NA
ATOM     38  H   UNL     1      -3.275  10.593  19.619  0.00  0.00    +0.000 HD
ENDBRANCH  28  31
ENDBRANCH  25  28
ENDBRANCH  20  22
ENDBRANCH   1  20
TORSDOF 10
ENDMDL
MODEL 3
REMARK VINA RESULT:      -7.9      0.961      1.847
REMARK  Name = 
REMARK  10 active torsions:
REMARK  status: ('A' for Active; 'I' for Inactive)
REMARK    1  A    between atoms: C_2  and  O_3
REMARK    2  A    between atoms: C_2  and  C_4
REMARK    3  A    between atoms: C_4  and  N_5
REMARK    4  A    between atoms: C_6  and  C_8
REMARK    5  A    between atoms: C_11  and  N_12
REMARK    6  A    between atoms: N_12  and  C_13
REMARK    7  A    between atoms: C_13  and  N_15
REMARK    8  A    between atoms: N_15  and  C_16
REMARK    9  A    between atoms: C_19  and  S_20
REMARK   10  A    between atoms: S_20  and  N_23
REMARK                            x       y       z     vdW  Elec       q    Type
REMARK                         _______ _______ _______ _____ _____    ______ ____
ROOT
ATOM      1  C   UNL     1       2.364   4.095  20.537  0.00  0.00    +0.000 C 
ATOM      2  S   UNL     1       0.951   3.252  20.218  0.00  0.00    +0.000 S 
ENDROOT
BRANCH   1   3
ATOM      3  N   UNL     1       3.538   3.570  20.060  0.00  0.00    +0.000 N 
ATOM      4  H   UNL     1       4.086   3.104  20.778  0.00  0.00    +0.000 HD
BRANCH   3   8
ATOM      5  C   UNL     1       5.567   4.249  16.411  0.00  0.00    +0.000 A 
ATOM      6  C   UNL     1       4.293   3.673  16.391  0.00  0.00    +0.000 A 
ATOM      7  C   UNL     1       3.604   3.452  17.588  0.00  0.00    +0.000 A 
ATOM      8  C   UNL     1       4.183   3.765  18.819  0.00  0.00    +0.000 A 
ATOM      9  C   UNL     1       5.447   4.367  18.834  0.00  0.00    +0.000 A 
ATOM     10  C   UNL     1       6.141   4.596  17.638  0.00  0.00    +0.000 A 
BRANCH   5  12
ATOM     11  N   UNL     1       6.055   3.640  14.096  0.00  0.00    +0.000 N 
ATOM     12  C   UNL     1       6.349   4.455  15.164  0.00  0.00    +0.000 C 
ATOM     13  O   UNL     1       7.208   5.327  15.112  0.00  0.00    +0.000 OA
ATOM     14  H   UNL     1       5.246   3.025  14.097  0.00  0.00    +0.000 HD
BRANCH  11  15
ATOM     15  C   UNL     1       6.791   3.775  12.854  0.00  0.00    +0.000 C 
BRANCH  15  17
ATOM     16  O   UNL     1       5.195   2.639  11.415  0.00  0.00    +0.000 OA
ATOM     17  C   UNL     1       6.345   2.754  11.820  0.00  0.00    +0.000 C 
BRANCH  17  18
ATOM     18  O   UNL     1       7.357   1.971  11.374  0.00  0.00    +0.000 OA
ATOM     19  H   UNL     1       7.949   2.409  10.734  0.00  0.00    +0.000 HD
ENDBRANCH  17  18
ENDBRANCH  15  17
ENDBRANCH  11  15
ENDBRANCH   5  12
ENDBRANCH   3   8
ENDBRANCH   1   3
BRANCH   1  20
ATOM     20  N   UNL     1       2.430   5.332  21.122  0.00  0.00    +0.000 N 
ATOM     21  H   UNL     1       2.805   5.334  22.063  0.00  0.00    +0.000 HD
BRANCH  20  22
ATOM     22  C   UNL     1       2.135   6.583  20.544  0.00  0.00    +0.000 A 
ATOM     23  C   UNL     1       2.551   6.912  19.250  0.00  0.00    +0.000 A 
ATOM     24  C   UNL     1       2.171   8.123  18.670  0.00  0.00    +0.000 A 
ATOM     25  C   UNL     1       1.350   9.003  19.378  0.00  0.00    +0.000 A 
ATOM     26  C   UNL     1       0.931   8.690  20.674  0.00  0.00    +0.000 A 
ATOM     27  C   UNL     1       1.309   7.470  21.246  0.00  0.00    +0.000 A 
BRANCH  25  28
ATOM     28  S   UNL     1       0.956  10.582  18.663  0.00  0.00    +0.000 S 
ATOM     29  O   UNL     1       2.126  11.013  17.924  0.00  0.00    +0.000 OA
ATOM     30  O   UNL     1      -0.321  10.466  17.992  0.00  0.00    +0.000 OA
BRANCH  28  31
ATOM     31  N   UNL     1       0.845  11.618  19.975  0.00  0.00    +0.000 N 
ATOM     32  C   UNL     1       0.982  12.963  19.642  0.00  0.00    +0.000 A 
ATOM     33  N   UNL     1      -0.113  13.611  19.238  0.00  0.00    +0.000 NA
ATOM     34  C   UNL     1       0.084  14.894  18.881  0.00  0.00    +0.000 A 
ATOM     35  C   UNL     1       1.319  15.501  18.880  0.00  0.00    +0.000 A 
ATOM     36  C   UNL     1       2.369  14.718  19.304  0.00  0.00    +0.000 A 
ATOM     37  N   UNL     1       2.224  13.445  19.719  0.00  0.00    +0.000 NA
ATOM     38  H   UNL     1       1.531  11.341  20.669  0.00  0.00    +0.000 HD
ENDBRANCH  28  31
ENDBRANCH  25  28
ENDBRANCH  20  22
ENDBRANCH   1  20
TORSDOF 10
ENDMDL
MODEL 4
REMARK VINA RESULT:      -7.9      1.205      1.836
REMARK  Name = 
REMARK  10 active torsions:
REMARK  status: ('A' for Active; 'I' for Inactive)
REMARK    1  A    between atoms: C_2  and  O_3
REMARK    2  A    between atoms: C_2  and  C_4
REMARK    3  A    between atoms: C_4  and  N_5
REMARK    4  A    between atoms: C_6  and  C_8
REMARK    5  A    between atoms: C_11  and  N_12
REMARK    6  A    between atoms: N_12  and  C_13
REMARK    7  A    between atoms: C_13  and  N_15
REMARK    8  A    between atoms: N_15  and  C_16
REMARK    9  A    between atoms: C_19  and  S_20
REMARK   10  A    between atoms: S_20  and  N_23
REMARK                            x       y       z     vdW  Elec       q    Type
REMARK                         _______ _______ _______ _____ _____    ______ ____
ROOT
ATOM      1  C   UNL     1       2.634   5.398  20.037  0.00  0.00    +0.000 C 
ATOM      2  S   UNL     1       1.722   4.163  19.367  0.00  0.00    +0.000 S 
ENDROOT
BRANCH   1   3
ATOM      3  N   UNL     1       3.961   5.464  19.698  0.00  0.00    +0.000 N 
ATOM      4  H   UNL     1       4.549   5.799  20.456  0.00  0.00    +0.000 HD
BRANCH   3   8
ATOM      5  C   UNL     1       5.863   4.993  15.950  0.00  0.00    +0.000 A 
ATOM      6  C   UNL     1       5.593   6.279  16.425  0.00  0.00    +0.000 A 
ATOM      7  C   UNL     1       4.975   6.453  17.667  0.00  0.00    +0.000 A 
ATOM      8  C   UNL     1       4.584   5.354  18.436  0.00  0.00    +0.000 A 
ATOM      9  C   UNL     1       4.881   4.068  17.969  0.00  0.00    +0.000 A 
ATOM     10  C   UNL     1       5.505   3.887  16.728  0.00  0.00    +0.000 A 
BRANCH   5  12
ATOM     11  N   UNL     1       5.842   3.882  13.774  0.00  0.00    +0.000 N 
ATOM     12  C   UNL     1       6.475   4.768  14.614  0.00  0.00    +0.000 C 
ATOM     13  O   UNL     1       7.497   5.364  14.295  0.00  0.00    +0.000 OA
ATOM     14  H   UNL     1       4.922   3.508  13.984  0.00  0.00    +0.000 HD
BRANCH  11  15
ATOM     15  C   UNL     1       6.394   3.602  12.462  0.00  0.00    +0.000 C 
BRANCH  15  17
ATOM     16  O   UNL     1       4.400   2.833  11.305  0.00  0.00    +0.000 OA
ATOM     17  C   UNL     1       5.540   2.609  11.690  0.00  0.00    +0.000 C 
BRANCH  17  18
ATOM     18  O   UNL     1       6.170   1.433  11.459  0.00  0.00    +0.000 OA
ATOM     19  H   UNL     1       5.935   1.014  10.609  0.00  0.00    +0.000 HD
ENDBRANCH  17  18
ENDBRANCH  15  17
ENDBRANCH  11  15
ENDBRANCH   5  12
ENDBRANCH   3   8
ENDBRANCH   1   3
BRANCH   1  20
ATOM     20  N   UNL     1       2.135   6.426  20.792  0.00  0.00    +0.000 N 
ATOM     21  H   UNL     1       2.105   6.242  21.788  0.00  0.00    +0.000 HD
BRANCH  20  22
ATOM     22  C   UNL     1       1.759   7.716  20.365  0.00  0.00    +0.000 A 
ATOM     23  C   UNL     1       1.981   8.151  19.055  0.00  0.00    +0.000 A 
ATOM     24  C   UNL     1       1.519   9.399  18.635  0.00  0.00    +0.000 A 
ATOM     25  C   UNL     1       0.811  10.211  19.523  0.00  0.00    +0.000 A 
ATOM     26  C   UNL     1       0.587   9.792  20.838  0.00  0.00    +0.000 A 
ATOM     27  C   UNL     1       1.045   8.534  21.249  0.00  0.00    +0.000 A 
BRANCH  25  28
ATOM     28  S   UNL     1       0.317  11.837  19.002  0.00  0.00    +0.000 S 
ATOM     29  O   UNL     1       1.461  12.432  18.339  0.00  0.00    +0.000 OA
ATOM     30  O   UNL     1      -0.945  11.720  18.303  0.00  0.00    +0.000 OA
BRANCH  28  31
ATOM     31  N   UNL     1       0.128  12.693  20.429  0.00  0.00    +0.000 N 
ATOM     32  C   UNL     1       0.443  14.045  20.319  0.00  0.00    +0.000 A 
ATOM     33  N   UNL     1      -0.515  14.866  19.884  0.00  0.00    +0.000 NA
ATOM     34  C   UNL     1      -0.144  16.153  19.749  0.00  0.00    +0.000 A 
ATOM     35  C   UNL     1       1.134  16.604  19.991  0.00  0.00    +0.000 A 
ATOM     36  C   UNL     1       2.031  15.653  20.421  0.00  0.00    +0.000 A 
ATOM     37  N   UNL     1       1.704  14.362  20.620  0.00  0.00    +0.000 NA
ATOM     38  H   UNL     1       0.679  12.246  21.154  0.00  0.00    +0.000 HD
ENDBRANCH  28  31
ENDBRANCH  25  28
ENDBRANCH  20  22
ENDBRANCH   1  20
TORSDOF 10
ENDMDL
MODEL 5
REMARK VINA RESULT:      -7.9      0.975      1.624
REMARK  Name = 
REMARK  10 active torsions:
REMARK  status: ('A' for Active; 'I' for Inactive)
REMARK    1  A    between atoms: C_2  and  O_3
REMARK    2  A    between atoms: C_2  and  C_4
REMARK    3  A    between atoms: C_4  and  N_5
REMARK    4  A    between atoms: C_6  and  C_8
REMARK    5  A    between atoms: C_11  and  N_12
REMARK    6  A    between atoms: N_12  and  C_13
REMARK    7  A    between atoms: C_13  and  N_15
REMARK    8  A    between atoms: N_15  and  C_16
REMARK    9  A    between atoms: C_19  and  S_20
REMARK   10  A    between atoms: S_20  and  N_23
REMARK                            x       y       z     vdW  Elec       q    Type
REMARK                         _______ _______ _______ _____ _____    ______ ____
ROOT
ATOM      1  C   UNL     1       2.740   5.088  20.159  0.00  0.00    +0.000 C 
ATOM      2  S   UNL     1       1.262   4.388  20.524  0.00  0.00    +0.000 S 
ENDROOT
BRANCH   1   3
ATOM      3  N   UNL     1       3.728   4.270  19.674  0.00  0.00    +0.000 N 
ATOM      4  H   UNL     1       4.139   3.676  20.390  0.00  0.00    +0.000 HD
BRANCH   3   8
ATOM      5  C   UNL     1       5.821   4.390  16.001  0.00  0.00    +0.000 A 
ATOM      6  C   UNL     1       4.468   4.040  16.008  0.00  0.00    +0.000 A 
ATOM      7  C   UNL     1       3.759   4.006  17.213  0.00  0.00    +0.000 A 
ATOM      8  C   UNL     1       4.390   4.283  18.427  0.00  0.00    +0.000 A 
ATOM      9  C   UNL     1       5.738   4.660  18.413  0.00  0.00    +0.000 A 
ATOM     10  C   UNL     1       6.454   4.701  17.209  0.00  0.00    +0.000 A 
BRANCH   5  12
ATOM     11  N   UNL     1       6.136   3.652  13.693  0.00  0.00    +0.000 N 
ATOM     12  C   UNL     1       6.620   4.391  14.747  0.00  0.00    +0.000 C 
ATOM     13  O   UNL     1       7.658   5.037  14.677  0.00  0.00    +0.000 OA
ATOM     14  H   UNL     1       5.206   3.243  13.707  0.00  0.00    +0.000 HD
BRANCH  11  15
ATOM     15  C   UNL     1       6.872   3.594  12.446  0.00  0.00    +0.000 C 
BRANCH  15  17
ATOM     16  O   UNL     1       5.295   2.135  11.309  0.00  0.00    +0.000 OA
ATOM     17  C   UNL     1       6.454   2.404  11.597  0.00  0.00    +0.000 C 
BRANCH  17  18
ATOM     18  O   UNL     1       7.502   1.656  11.176  0.00  0.00    +0.000 OA
ATOM     19  H   UNL     1       7.700   1.746  10.225  0.00  0.00    +0.000 HD
ENDBRANCH  17  18
ENDBRANCH  15  17
ENDBRANCH  11  15
ENDBRANCH   5  12
ENDBRANCH   3   8
ENDBRANCH   1   3
BRANCH   1  20
ATOM     20  N   UNL     1       3.003   6.432  20.179  0.00  0.00    +0.000 N 
ATOM     21  H   UNL     1       3.979   6.670  20.316  0.00  0.00    +0.000 HD
BRANCH  20  22
ATOM     22  C   UNL     1       2.110   7.496  19.939  0.00  0.00    +0.000 A 
ATOM     23  C   UNL     1       1.277   7.998  20.943  0.00  0.00    +0.000 A 
ATOM     24  C   UNL     1       0.467   9.109  20.703  0.00  0.00    +0.000 A 
ATOM     25  C   UNL     1       0.507   9.739  19.457  0.00  0.00    +0.000 A 
ATOM     26  C   UNL     1       1.330   9.245  18.442  0.00  0.00    +0.000 A 
ATOM     27  C   UNL     1       2.147   8.135  18.693  0.00  0.00    +0.000 A 
BRANCH  25  28
ATOM     28  S   UNL     1      -0.602  11.091  19.137  0.00  0.00    +0.000 S 
ATOM     29  O   UNL     1       0.049  11.946  18.163  0.00  0.00    +0.000 OA
ATOM     30  O   UNL     1      -1.911  10.542  18.857  0.00  0.00    +0.000 OA
BRANCH  28  31
ATOM     31  N   UNL     1      -0.618  11.965  20.566  0.00  0.00    +0.000 N 
ATOM     32  C   UNL     1       0.275  13.033  20.580  0.00  0.00    +0.000 A 
ATOM     33  N   UNL     1      -0.137  14.187  20.054  0.00  0.00    +0.000 NA
ATOM     34  C   UNL     1       0.780  15.172  20.049  0.00  0.00    +0.000 A 
ATOM     35  C   UNL     1       2.069  15.011  20.504  0.00  0.00    +0.000 A 
ATOM     36  C   UNL     1       2.372  13.767  21.009  0.00  0.00    +0.000 A 
ATOM     37  N   UNL     1       1.481  12.760  21.084  0.00  0.00    +0.000 NA
ATOM     38  H   UNL     1      -0.444  11.331  21.339  0.00  0.00    +0.000 HD
ENDBRANCH  28  31
ENDBRANCH  25  28
ENDBRANCH  20  22
ENDBRANCH   1  20
TORSDOF 10
ENDMDL
MODEL 6
REMARK VINA RESULT:      -7.8      3.911      9.068
REMARK  Name = 
REMARK  10 active torsions:
REMARK  status: ('A' for Active; 'I' for Inactive)
REMARK    1  A    between atoms: C_2  and  O_3
REMARK    2  A    between atoms: C_2  and  C_4
REMARK    3  A    between atoms: C_4  and  N_5
REMARK    4  A    between atoms: C_6  and  C_8
REMARK    5  A    between atoms: C_11  and  N_12
REMARK    6  A    between atoms: N_12  and  C_13
REMARK    7  A    between atoms: C_13  and  N_15
REMARK    8  A    between atoms: N_15  and  C_16
REMARK    9  A    between atoms: C_19  and  S_20
REMARK   10  A    between atoms: S_20  and  N_23
REMARK                            x       y       z     vdW  Elec       q    Type
REMARK                         _______ _______ _______ _____ _____    ______ ____
ROOT
ATOM      1  C   UNL     1       0.773   9.611  20.882  0.00  0.00    +0.000 C 
ATOM      2  S   UNL     1       0.232   9.208  22.416  0.00  0.00    +0.000 S 
ENDROOT
BRANCH   1   3
ATOM      3  N   UNL     1       0.200  10.697  20.271  0.00  0.00    +0.000 N 
ATOM      4  H   UNL     1       0.401  11.572  20.747  0.00  0.00    +0.000 HD
BRANCH   3   8
ATOM      5  C   UNL     1      -2.622  10.809  17.123  0.00  0.00    +0.000 A 
ATOM      6  C   UNL     1      -2.792  11.650  18.226  0.00  0.00    +0.000 A 
ATOM      7  C   UNL     1      -1.862  11.633  19.271  0.00  0.00    +0.000 A 
ATOM      8  C   UNL     1      -0.775  10.758  19.251  0.00  0.00    +0.000 A 
ATOM      9  C   UNL     1      -0.593   9.937  18.132  0.00  0.00    +0.000 A 
ATOM     10  C   UNL     1      -1.518   9.953  17.079  0.00  0.00    +0.000 A 
BRANCH   5  12
ATOM     11  N   UNL     1      -3.207  10.202  14.830  0.00  0.00    +0.000 N 
ATOM     12  C   UNL     1      -3.614  10.765  16.017  0.00  0.00    +0.000 C 
ATOM     13  O   UNL     1      -4.743  11.211  16.182  0.00  0.00    +0.000 OA
ATOM     14  H   UNL     1      -2.326   9.703  14.747  0.00  0.00    +0.000 HD
BRANCH  11  15
ATOM     15  C   UNL     1      -4.118  10.142  13.703  0.00  0.00    +0.000 C 
BRANCH  15  17
ATOM     16  O   UNL     1      -4.003   9.393  11.393  0.00  0.00    +0.000 OA
ATOM     17  C   UNL     1      -3.428   9.636  12.446  0.00  0.00    +0.000 C 
BRANCH  17  18
ATOM     18  O   UNL     1      -2.090   9.482  12.599  0.00  0.00    +0.000 OA
ATOM     19  H   UNL     1      -1.834   8.681  13.095  0.00  0.00    +0.000 HD
ENDBRANCH  17  18
ENDBRANCH  15  17
ENDBRANCH  11  15
ENDBRANCH   5  12
ENDBRANCH   3   8
ENDBRANCH   1   3
BRANCH   1  20
ATOM     20  N   UNL     1       1.831   9.025  20.240  0.00  0.00    +0.000 N 
ATOM     21  H   UNL     1       2.665   9.600  20.191  0.00  0.00    +0.000 HD
BRANCH  20  22
ATOM     22  C   UNL     1       1.926   7.711  19.741  0.00  0.00    +0.000 A 
ATOM     23  C   UNL     1       2.274   7.452  18.411  0.00  0.00    +0.000 A 
ATOM     24  C   UNL     1       2.447   6.141  17.966  0.00  0.00    +0.000 A 
ATOM     25  C   UNL     1       2.294   5.080  18.860  0.00  0.00    +0.000 A 
ATOM     26  C   UNL     1       1.941   5.322  20.191  0.00  0.00    +0.000 A 
ATOM     27  C   UNL     1       1.779   6.641  20.633  0.00  0.00    +0.000 A 
BRANCH  25  28
ATOM     28  S   UNL     1       2.422   3.413  18.254  0.00  0.00    +0.000 S 
ATOM     29  O   UNL     1       1.604   2.587  19.120  0.00  0.00    +0.000 OA
ATOM     30  O   UNL     1       2.174   3.434  16.829  0.00  0.00    +0.000 OA
BRANCH  28  31
ATOM     31  N   UNL     1       4.006   2.973  18.576  0.00  0.00    +0.000 N 
ATOM     32  C   UNL     1       4.939   3.951  18.242  0.00  0.00    +0.000 A 
ATOM     33  N   UNL     1       5.186   4.900  19.147  0.00  0.00    +0.000 NA
ATOM     34  C   UNL     1       6.058   5.848  18.757  0.00  0.00    +0.000 A 
ATOM     35  C   UNL     1       6.631   5.883  17.505  0.00  0.00    +0.000 A 
ATOM     36  C   UNL     1       6.282   4.853  16.661  0.00  0.00    +0.000 A 
ATOM     37  N   UNL     1       5.453   3.853  17.015  0.00  0.00    +0.000 NA
ATOM     38  H   UNL     1       4.205   2.099  18.100  0.00  0.00    +0.000 HD
ENDBRANCH  28  31
ENDBRANCH  25  28
ENDBRANCH  20  22
ENDBRANCH   1  20
TORSDOF 10
ENDMDL
MODEL 7
REMARK VINA RESULT:      -7.7      1.954      2.422
REMARK  Name = 
REMARK  10 active torsions:
REMARK  status: ('A' for Active; 'I' for Inactive)
REMARK    1  A    between atoms: C_2  and  O_3
REMARK    2  A    between atoms: C_2  and  C_4
REMARK    3  A    between atoms: C_4  and  N_5
REMARK    4  A    between atoms: C_6  and  C_8
REMARK    5  A    between atoms: C_11  and  N_12
REMARK    6  A    between atoms: N_12  and  C_13
REMARK    7  A    between atoms: C_13  and  N_15
REMARK    8  A    between atoms: N_15  and  C_16
REMARK    9  A    between atoms: C_19  and  S_20
REMARK   10  A    between atoms: S_20  and  N_23
REMARK                            x       y       z     vdW  Elec       q    Type
REMARK                         _______ _______ _______ _____ _____    ______ ____
ROOT
ATOM      1  C   UNL     1       2.601   5.135  20.130  0.00  0.00    +0.000 C 
ATOM      2  S   UNL     1       1.063   4.505  20.340  0.00  0.00    +0.000 S 
ENDROOT
BRANCH   1   3
ATOM      3  N   UNL     1       3.580   4.285  19.686  0.00  0.00    +0.000 N 
ATOM      4  H   UNL     1       3.877   3.617  20.392  0.00  0.00    +0.000 HD
BRANCH   3   8
ATOM      5  C   UNL     1       5.842   4.348  16.113  0.00  0.00    +0.000 A 
ATOM      6  C   UNL     1       6.432   4.778  17.305  0.00  0.00    +0.000 A 
ATOM      7  C   UNL     1       5.701   4.754  18.497  0.00  0.00    +0.000 A 
ATOM      8  C   UNL     1       4.368   4.337  18.515  0.00  0.00    +0.000 A 
ATOM      9  C   UNL     1       3.791   3.880  17.324  0.00  0.00    +0.000 A 
ATOM     10  C   UNL     1       4.519   3.897  16.128  0.00  0.00    +0.000 A 
BRANCH   5  12
ATOM     11  N   UNL     1       6.080   3.638  13.787  0.00  0.00    +0.000 N 
ATOM     12  C   UNL     1       6.572   4.404  14.818  0.00  0.00    +0.000 C 
ATOM     13  O   UNL     1       7.561   5.116  14.698  0.00  0.00    +0.000 OA
ATOM     14  H   UNL     1       5.181   3.170  13.848  0.00  0.00    +0.000 HD
BRANCH  11  15
ATOM     15  C   UNL     1       6.752   3.632  12.502  0.00  0.00    +0.000 C 
BRANCH  15  17
ATOM     16  O   UNL     1       5.188   2.180  11.339  0.00  0.00    +0.000 OA
ATOM     17  C   UNL     1       6.342   2.436  11.656  0.00  0.00    +0.000 C 
BRANCH  17  18
ATOM     18  O   UNL     1       7.391   1.670  11.275  0.00  0.00    +0.000 OA
ATOM     19  H   UNL     1       7.278   1.241  10.405  0.00  0.00    +0.000 HD
ENDBRANCH  17  18
ENDBRANCH  15  17
ENDBRANCH  11  15
ENDBRANCH   5  12
ENDBRANCH   3   8
ENDBRANCH   1   3
BRANCH   1  20
ATOM     20  N   UNL     1       2.931   6.460  20.239  0.00  0.00    +0.000 N 
ATOM     21  H   UNL     1       3.913   6.636  20.422  0.00  0.00    +0.000 HD
BRANCH  20  22
ATOM     22  C   UNL     1       2.104   7.582  20.032  0.00  0.00    +0.000 A 
ATOM     23  C   UNL     1       2.008   8.206  18.785  0.00  0.00    +0.000 A 
ATOM     24  C   UNL     1       1.115   9.259  18.586  0.00  0.00    +0.000 A 
ATOM     25  C   UNL     1       0.295   9.680  19.634  0.00  0.00    +0.000 A 
ATOM     26  C   UNL     1       0.384   9.070  20.888  0.00  0.00    +0.000 A 
ATOM     27  C   UNL     1       1.275   8.007  21.078  0.00  0.00    +0.000 A 
BRANCH  25  28
ATOM     28  S   UNL     1      -0.766  11.086  19.392  0.00  0.00    +0.000 S 
ATOM     29  O   UNL     1       0.074  12.169  18.918  0.00  0.00    +0.000 OA
ATOM     30  O   UNL     1      -1.906  10.659  18.609  0.00  0.00    +0.000 OA
BRANCH  28  31
ATOM     31  N   UNL     1      -1.237  11.524  20.938  0.00  0.00    +0.000 N 
ATOM     32  C   UNL     1      -1.907  12.743  20.997  0.00  0.00    +0.000 A 
ATOM     33  N   UNL     1      -3.221  12.735  20.769  0.00  0.00    +0.000 NA
ATOM     34  C   UNL     1      -3.812  13.944  20.788  0.00  0.00    +0.000 A 
ATOM     35  C   UNL     1      -3.125  15.121  20.981  0.00  0.00    +0.000 A 
ATOM     36  C   UNL     1      -1.770  14.993  21.190  0.00  0.00    +0.000 A 
ATOM     37  N   UNL     1      -1.135  13.807  21.230  0.00  0.00    +0.000 NA
ATOM     38  H   UNL     1      -0.421  11.525  21.541  0.00  0.00    +0.000 HD
ENDBRANCH  28  31
ENDBRANCH  25  28
ENDBRANCH  20  22
ENDBRANCH   1  20
TORSDOF 10
ENDMDL
MODEL 8
REMARK VINA RESULT:      -7.6      2.177      3.033
REMARK  Name = 
REMARK  10 active torsions:
REMARK  status: ('A' for Active; 'I' for Inactive)
REMARK    1  A    between atoms: C_2  and  O_3
REMARK    2  A    between atoms: C_2  and  C_4
REMARK    3  A    between atoms: C_4  and  N_5
REMARK    4  A    between atoms: C_6  and  C_8
REMARK    5  A    between atoms: C_11  and  N_12
REMARK    6  A    between atoms: N_12  and  C_13
REMARK    7  A    between atoms: C_13  and  N_15
REMARK    8  A    between atoms: N_15  and  C_16
REMARK    9  A    between atoms: C_19  and  S_20
REMARK   10  A    between atoms: S_20  and  N_23
REMARK                            x       y       z     vdW  Elec       q    Type
REMARK                         _______ _______ _______ _____ _____    ______ ____
ROOT
ATOM      1  C   UNL     1       2.664   5.878  19.721  0.00  0.00    +0.000 C 
ATOM      2  S   UNL     1       1.845   4.630  18.959  0.00  0.00    +0.000 S 
ENDROOT
BRANCH   1   3
ATOM      3  N   UNL     1       3.910   6.201  19.248  0.00  0.00    +0.000 N 
ATOM      4  H   UNL     1       4.344   6.964  19.760  0.00  0.00    +0.000 HD
BRANCH   3   8
ATOM      5  C   UNL     1       5.807   5.120  15.626  0.00  0.00    +0.000 A 
ATOM      6  C   UNL     1       5.747   4.194  16.671  0.00  0.00    +0.000 A 
ATOM      7  C   UNL     1       5.114   4.533  17.872  0.00  0.00    +0.000 A 
ATOM      8  C   UNL     1       4.565   5.802  18.063  0.00  0.00    +0.000 A 
ATOM      9  C   UNL     1       4.602   6.717  17.003  0.00  0.00    +0.000 A 
ATOM     10  C   UNL     1       5.230   6.383  15.796  0.00  0.00    +0.000 A 
BRANCH   5  12
ATOM     11  N   UNL     1       5.921   3.901  13.511  0.00  0.00    +0.000 N 
ATOM     12  C   UNL     1       6.512   4.814  14.353  0.00  0.00    +0.000 C 
ATOM     13  O   UNL     1       7.570   5.371  14.084  0.00  0.00    +0.000 OA
ATOM     14  H   UNL     1       4.978   3.558  13.668  0.00  0.00    +0.000 HD
BRANCH  11  15
ATOM     15  C   UNL     1       6.563   3.543  12.261  0.00  0.00    +0.000 C 
BRANCH  15  17
ATOM     16  O   UNL     1       6.291   1.422  11.106  0.00  0.00    +0.000 OA
ATOM     17  C   UNL     1       5.794   2.460  11.522  0.00  0.00    +0.000 C 
BRANCH  17  18
ATOM     18  O   UNL     1       4.480   2.752  11.368  0.00  0.00    +0.000 OA
ATOM     19  H   UNL     1       3.898   2.340  12.035  0.00  0.00    +0.000 HD
ENDBRANCH  17  18
ENDBRANCH  15  17
ENDBRANCH  11  15
ENDBRANCH   5  12
ENDBRANCH   3   8
ENDBRANCH   1   3
BRANCH   1  20
ATOM     20  N   UNL     1       2.139   6.689  20.691  0.00  0.00    +0.000 N 
ATOM     21  H   UNL     1       2.277   6.357  21.639  0.00  0.00    +0.000 HD
BRANCH  20  22
ATOM     22  C   UNL     1       1.530   7.950  20.535  0.00  0.00    +0.000 A 
ATOM     23  C   UNL     1       0.827   8.562  21.577  0.00  0.00    +0.000 A 
ATOM     24  C   UNL     1       0.311   9.849  21.423  0.00  0.00    +0.000 A 
ATOM     25  C   UNL     1       0.517  10.541  20.228  0.00  0.00    +0.000 A 
ATOM     26  C   UNL     1       1.212   9.940  19.176  0.00  0.00    +0.000 A 
ATOM     27  C   UNL     1       1.736   8.652  19.340  0.00  0.00    +0.000 A 
BRANCH  25  28
ATOM     28  S   UNL     1      -0.232  12.139  20.014  0.00  0.00    +0.000 S 
ATOM     29  O   UNL     1      -1.493  12.112  20.728  0.00  0.00    +0.000 OA
ATOM     30  O   UNL     1       0.758  13.145  20.333  0.00  0.00    +0.000 OA
BRANCH  28  31
ATOM     31  N   UNL     1      -0.634  12.197  18.389  0.00  0.00    +0.000 N 
ATOM     32  C   UNL     1      -1.854  11.594  18.091  0.00  0.00    +0.000 A 
ATOM     33  N   UNL     1      -2.955  12.335  18.228  0.00  0.00    +0.000 NA
ATOM     34  C   UNL     1      -4.110  11.691  17.975  0.00  0.00    +0.000 A 
ATOM     35  C   UNL     1      -4.179  10.357  17.643  0.00  0.00    +0.000 A 
ATOM     36  C   UNL     1      -2.971   9.704  17.549  0.00  0.00    +0.000 A 
ATOM     37  N   UNL     1      -1.784  10.308  17.743  0.00  0.00    +0.000 NA
ATOM     38  H   UNL     1       0.120  11.783  17.850  0.00  0.00    +0.000 HD
ENDBRANCH  28  31
ENDBRANCH  25  28
ENDBRANCH  20  22
ENDBRANCH   1  20
TORSDOF 10
ENDMDL
MODEL 9
REMARK VINA RESULT:      -7.6      4.804      9.332
REMARK  Name = 
REMARK  10 active torsions:
REMARK  status: ('A' for Active; 'I' for Inactive)
REMARK    1  A    between atoms: C_2  and  O_3
REMARK    2  A    between atoms: C_2  and  C_4
REMARK    3  A    between atoms: C_4  and  N_5
REMARK    4  A    between atoms: C_6  and  C_8
REMARK    5  A    between atoms: C_11  and  N_12
REMARK    6  A    between atoms: N_12  and  C_13
REMARK    7  A    between atoms: C_13  and  N_15
REMARK    8  A    between atoms: N_15  and  C_16
REMARK    9  A    between atoms: C_19  and  S_20
REMARK   10  A    between atoms: S_20  and  N_23
REMARK                            x       y       z     vdW  Elec       q    Type
REMARK                         _______ _______ _______ _____ _____    ______ ____
ROOT
ATOM      1  C   UNL     1      -0.810  11.099  19.873  0.00  0.00    +0.000 C 
ATOM      2  S   UNL     1      -0.908  11.486  21.501  0.00  0.00    +0.000 S 
ENDROOT
BRANCH   1   3
ATOM      3  N   UNL     1      -1.938  11.264  19.112  0.00  0.00    +0.000 N 
ATOM      4  H   UNL     1      -2.738  11.584  19.651  0.00  0.00    +0.000 HD
BRANCH   3   8
ATOM      5  C   UNL     1      -2.851  10.161  15.132  0.00  0.00    +0.000 A 
ATOM      6  C   UNL     1      -2.172   9.258  15.955  0.00  0.00    +0.000 A 
ATOM      7  C   UNL     1      -1.872   9.604  17.277  0.00  0.00    +0.000 A 
ATOM      8  C   UNL     1      -2.209  10.859  17.787  0.00  0.00    +0.000 A 
ATOM      9  C   UNL     1      -2.913  11.750  16.968  0.00  0.00    +0.000 A 
ATOM     10  C   UNL     1      -3.222  11.409  15.644  0.00  0.00    +0.000 A 
BRANCH   5  12
ATOM     11  N   UNL     1      -4.462   9.895  13.315  0.00  0.00    +0.000 N 
ATOM     12  C   UNL     1      -3.145   9.849  13.709  0.00  0.00    +0.000 C 
ATOM     13  O   UNL     1      -2.235   9.573  12.937  0.00  0.00    +0.000 OA
ATOM     14  H   UNL     1      -5.190  10.268  13.918  0.00  0.00    +0.000 HD
BRANCH  11  15
ATOM     15  C   UNL     1      -4.822   9.585  11.945  0.00  0.00    +0.000 C 
BRANCH  15  17
ATOM     16  O   UNL     1      -6.995  10.327  11.147  0.00  0.00    +0.000 OA
ATOM     17  C   UNL     1      -6.330   9.505  11.762  0.00  0.00    +0.000 C 
BRANCH  17  18
ATOM     18  O   UNL     1      -6.879   8.414  12.349  0.00  0.00    +0.000 OA
ATOM     19  H   UNL     1      -6.227   7.751  12.649  0.00  0.00    +0.000 HD
ENDBRANCH  17  18
ENDBRANCH  15  17
ENDBRANCH  11  15
ENDBRANCH   5  12
ENDBRANCH   3   8
ENDBRANCH   1   3
BRANCH   1  20
ATOM     20  N   UNL     1       0.340  10.757  19.212  0.00  0.00    +0.000 N 
ATOM     21  H   UNL     1       0.764  11.511  18.684  0.00  0.00    +0.000 HD
BRANCH  20  22
ATOM     22  C   UNL     1       1.040   9.534  19.261  0.00  0.00    +0.000 A 
ATOM     23  C   UNL     1       1.098   8.766  20.428  0.00  0.00    +0.000 A 
ATOM     24  C   UNL     1       1.722   7.518  20.424  0.00  0.00    +0.000 A 
ATOM     25  C   UNL     1       2.273   7.022  19.240  0.00  0.00    +0.000 A 
ATOM     26  C   UNL     1       2.227   7.781  18.068  0.00  0.00    +0.000 A 
ATOM     27  C   UNL     1       1.591   9.028  18.077  0.00  0.00    +0.000 A 
BRANCH  25  28
ATOM     28  S   UNL     1       3.149   5.476  19.276  0.00  0.00    +0.000 S 
ATOM     29  O   UNL     1       2.713   4.773  20.467  0.00  0.00    +0.000 OA
ATOM     30  O   UNL     1       3.013   4.852  17.977  0.00  0.00    +0.000 OA
BRANCH  28  31
ATOM     31  N   UNL     1       4.743   5.906  19.564  0.00  0.00    +0.000 N 
ATOM     32  C   UNL     1       5.582   5.716  18.470  0.00  0.00    +0.000 A 
ATOM     33  N   UNL     1       5.646   6.695  17.566  0.00  0.00    +0.000 NA
ATOM     34  C   UNL     1       6.433   6.440  16.504  0.00  0.00    +0.000 A 
ATOM     35  C   UNL     1       7.096   5.248  16.319  0.00  0.00    +0.000 A 
ATOM     36  C   UNL     1       6.935   4.315  17.318  0.00  0.00    +0.000 A 
ATOM     37  N   UNL     1       6.200   4.533  18.425  0.00  0.00    +0.000 NA
ATOM     38  H   UNL     1       5.077   5.397  20.376  0.00  0.00    +0.000 HD
ENDBRANCH  28  31
ENDBRANCH  25  28
ENDBRANCH  20  22
ENDBRANCH   1  20
TORSDOF 10
ENDMDL
