MODEL 1
REMARK VINA RESULT:      -7.9      0.000      0.000
REMARK  Name = 
REMARK  5 active torsions:
REMARK  status: ('A' for Active; 'I' for Inactive)
REMARK    1  A    between atoms: C_2  and  C_11
REMARK    2  A    between atoms: N_3  and  C_4
REMARK    3  A    between atoms: C_9  and  O_10
REMARK    4  A    between atoms: C_14  and  C_15
REMARK    5  A    between atoms: C_15  and  C_17
REMARK                            x       y       z     vdW  Elec       q    Type
REMARK                         _______ _______ _______ _____ _____    ______ ____
ROOT
ATOM      1  C   UNL     1       1.334   8.905  19.380  0.00  0.00    +0.000 A 
ATOM      2  C   UNL     1       1.683   7.802  20.157  0.00  0.00    +0.000 A 
ATOM      3  C   UNL     1       2.519   6.811  19.629  0.00  0.00    +0.000 A 
ATOM      4  C   UNL     1       3.022   6.933  18.325  0.00  0.00    +0.000 A 
ATOM      5  C   UNL     1       2.650   8.034  17.541  0.00  0.00    +0.000 A 
ATOM      6  C   UNL     1       1.822   9.022  18.070  0.00  0.00    +0.000 A 
ENDROOT
BRANCH   1   8
ATOM      7  O   UNL     1      -0.419  10.453  19.218  0.00  0.00    +0.000 OA
ATOM      8  C   UNL     1       0.445   9.963  19.936  0.00  0.00    +0.000 C 
ATOM      9  N   UNL     1       0.777  10.361  21.218  0.00  0.00    +0.000 N 
ATOM     10  H   UNL     1       1.758  10.319  21.455  0.00  0.00    +0.000 HD
BRANCH   9  11
ATOM     11  C   UNL     1       0.112  11.408  21.857  0.00  0.00    +0.000 A 
ATOM     12  N   UNL     1       0.537  12.639  21.497  0.00  0.00    +0.000 NA
ATOM     13  C   UNL     1      -0.158  13.685  21.992  0.00  0.00    +0.000 A 
ATOM     14  C   UNL     1      -1.216  13.562  22.882  0.00  0.00    +0.000 A 
ATOM     15  C   UNL     1      -1.575  12.289  23.313  0.00  0.00    +0.000 A 
ATOM     16  C   UNL     1      -0.899  11.191  22.796  0.00  0.00    +0.000 A 
BRANCH  16  17
ATOM     17  O   UNL     1      -1.159   9.939  23.279  0.00  0.00    +0.000 OA
ATOM     18  H   UNL     1      -1.908   9.997  23.893  0.00  0.00    +0.000 HD
ENDBRANCH  16  17
ENDBRANCH   9  11
ENDBRANCH   1   8
BRANCH   4  19
ATOM     19  C   UNL     1       3.905   5.863  17.794  0.00  0.00    +0.000 C 
ATOM     20  O   UNL     1       4.884   6.180  17.122  0.00  0.00    +0.000 OA
BRANCH  19  21
ATOM     21  C   UNL     1       3.651   4.422  18.070  0.00  0.00    +0.000 A 
ATOM     22  C   UNL     1       4.431   3.785  19.043  0.00  0.00    +0.000 A 
ATOM     23  C   UNL     1       4.223   2.437  19.337  0.00  0.00    +0.000 A 
ATOM     24  C   UNL     1       3.242   1.718  18.656  0.00  0.00    +0.000 A 
ATOM     25  C   UNL     1       2.479   2.340  17.668  0.00  0.00    +0.000 A 
ATOM     26  C   UNL     1       2.689   3.688  17.365  0.00  0.00    +0.000 A 
ENDBRANCH  19  21
ENDBRANCH   4  19
TORSDOF 5
ENDMDL
MODEL 2
REMARK VINA RESULT:      -7.8      0.215      1.413
REMARK  Name = 
REMARK  5 active torsions:
REMARK  status: ('A' for Active; 'I' for Inactive)
REMARK    1  A    between atoms: C_2  and  C_11
REMARK    2  A    between atoms: N_3  and  C_4
REMARK    3  A    between atoms: C_9  and  O_10
REMARK    4  A    between atoms: C_14  and  C_15
REMARK    5  A    between atoms: C_15  and  C_17
REMARK                            x       y       z     vdW  Elec       q    Type
REMARK                         _______ _______ _______ _____ _____    ______ ____
ROOT
ATOM      1  C   UNL     1       1.225   9.063  19.433  0.00  0.00    +0.000 A 
ATOM      2  C   UNL     1       1.664   9.150  18.113  0.00  0.00    +0.000 A 
ATOM      3  C   UNL     1       2.486   8.149  17.583  0.00  0.00    +0.000 A 
ATOM      4  C   UNL     1       2.855   7.048  18.370  0.00  0.00    +0.000 A 
ATOM      5  C   UNL     1       2.428   6.977  19.703  0.00  0.00    +0.000 A 
ATOM      6  C   UNL     1       1.606   7.972  20.228  0.00  0.00    +0.000 A 
ENDROOT
BRANCH   1   8
ATOM      7  O   UNL     1      -0.553  10.585  19.314  0.00  0.00    +0.000 OA
ATOM      8  C   UNL     1       0.350  10.125  20.003  0.00  0.00    +0.000 C 
ATOM      9  N   UNL     1       0.737  10.561  21.257  0.00  0.00    +0.000 N 
ATOM     10  H   UNL     1       1.728  10.537  21.448  0.00  0.00    +0.000 HD
BRANCH   9  11
ATOM     11  C   UNL     1       0.089  11.617  21.899  0.00  0.00    +0.000 A 
ATOM     12  N   UNL     1       0.562  12.840  21.573  0.00  0.00    +0.000 NA
ATOM     13  C   UNL     1      -0.113  13.899  22.070  0.00  0.00    +0.000 A 
ATOM     14  C   UNL     1      -1.196  13.794  22.932  0.00  0.00    +0.000 A 
ATOM     15  C   UNL     1      -1.605  12.525  23.330  0.00  0.00    +0.000 A 
ATOM     16  C   UNL     1      -0.951  11.415  22.810  0.00  0.00    +0.000 A 
BRANCH  16  17
ATOM     17  O   UNL     1      -1.262  10.164  23.262  0.00  0.00    +0.000 OA
ATOM     18  H   UNL     1      -0.991   9.519  22.590  0.00  0.00    +0.000 HD
ENDBRANCH  16  17
ENDBRANCH   9  11
ENDBRANCH   1   8
BRANCH   4  19
ATOM     19  C   UNL     1       3.730   6.003  17.777  0.00  0.00    +0.000 C 
ATOM     20  O   UNL     1       4.630   6.347  17.014  0.00  0.00    +0.000 OA
BRANCH  19  21
ATOM     21  C   UNL     1       3.562   4.559  18.095  0.00  0.00    +0.000 A 
ATOM     22  C   UNL     1       2.522   3.858  17.470  0.00  0.00    +0.000 A 
ATOM     23  C   UNL     1       2.331   2.502  17.735  0.00  0.00    +0.000 A 
ATOM     24  C   UNL     1       3.173   1.842  18.629  0.00  0.00    +0.000 A 
ATOM     25  C   UNL     1       4.194   2.539  19.273  0.00  0.00    +0.000 A 
ATOM     26  C   UNL     1       4.384   3.899  19.017  0.00  0.00    +0.000 A 
ENDBRANCH  19  21
ENDBRANCH   4  19
TORSDOF 5
ENDMDL
MODEL 3
REMARK VINA RESULT:      -7.7      1.301      1.332
REMARK  Name = 
REMARK  5 active torsions:
REMARK  status: ('A' for Active; 'I' for Inactive)
REMARK    1  A    between atoms: C_2  and  C_11
REMARK    2  A    between atoms: N_3  and  C_4
REMARK    3  A    between atoms: C_9  and  O_10
REMARK    4  A    between atoms: C_14  and  C_15
REMARK    5  A    between atoms: C_15  and  C_17
REMARK                            x       y       z     vdW  Elec       q    Type
REMARK                         _______ _______ _______ _____ _____    ______ ____
ROOT
ATOM      1  C   UNL     1       1.346   9.398  19.503  0.00  0.00    +0.000 A 
ATOM      2  C   UNL     1       1.573   8.293  20.322  0.00  0.00    +0.000 A 
ATOM      3  C   UNL     1       2.188   7.151  19.799  0.00  0.00    +0.000 A 
ATOM      4  C   UNL     1       2.596   7.119  18.457  0.00  0.00    +0.000 A 
ATOM      5  C   UNL     1       2.346   8.226  17.633  0.00  0.00    +0.000 A 
ATOM      6  C   UNL     1       1.737   9.364  18.156  0.00  0.00    +0.000 A 
ENDROOT
BRANCH   1   8
ATOM      7  O   UNL     1       1.329  11.663  20.108  0.00  0.00    +0.000 OA
ATOM      8  C   UNL     1       0.691  10.618  20.054  0.00  0.00    +0.000 C 
ATOM      9  N   UNL     1      -0.578  10.397  20.557  0.00  0.00    +0.000 N 
ATOM     10  H   UNL     1      -0.744   9.485  20.957  0.00  0.00    +0.000 HD
BRANCH   9  11
ATOM     11  C   UNL     1      -1.299  11.405  21.198  0.00  0.00    +0.000 A 
ATOM     12  N   UNL     1      -1.985  12.216  20.363  0.00  0.00    +0.000 NA
ATOM     13  C   UNL     1      -2.797  13.127  20.940  0.00  0.00    +0.000 A 
ATOM     14  C   UNL     1      -2.905  13.312  22.311  0.00  0.00    +0.000 A 
ATOM     15  C   UNL     1      -2.116  12.531  23.149  0.00  0.00    +0.000 A 
ATOM     16  C   UNL     1      -1.295  11.562  22.586  0.00  0.00    +0.000 A 
BRANCH  16  17
ATOM     17  O   UNL     1      -0.434  10.852  23.375  0.00  0.00    +0.000 OA
ATOM     18  H   UNL     1      -0.646   9.909  23.289  0.00  0.00    +0.000 HD
ENDBRANCH  16  17
ENDBRANCH   9  11
ENDBRANCH   1   8
BRANCH   4  19
ATOM     19  C   UNL     1       3.245   5.890  17.933  0.00  0.00    +0.000 C 
ATOM     20  O   UNL     1       4.183   6.003  17.148  0.00  0.00    +0.000 OA
BRANCH  19  21
ATOM     21  C   UNL     1       2.806   4.529  18.346  0.00  0.00    +0.000 A 
ATOM     22  C   UNL     1       3.719   3.717  19.033  0.00  0.00    +0.000 A 
ATOM     23  C   UNL     1       3.348   2.437  19.443  0.00  0.00    +0.000 A 
ATOM     24  C   UNL     1       2.068   1.959  19.165  0.00  0.00    +0.000 A 
ATOM     25  C   UNL     1       1.163   2.752  18.461  0.00  0.00    +0.000 A 
ATOM     26  C   UNL     1       1.533   4.032  18.041  0.00  0.00    +0.000 A 
ENDBRANCH  19  21
ENDBRANCH   4  19
TORSDOF 5
ENDMDL
MODEL 4
REMARK VINA RESULT:      -7.7      1.278      1.873
REMARK  Name = 
REMARK  5 active torsions:
REMARK  status: ('A' for Active; 'I' for Inactive)
REMARK    1  A    between atoms: C_2  and  C_11
REMARK    2  A    between atoms: N_3  and  C_4
REMARK    3  A    between atoms: C_9  and  O_10
REMARK    4  A    between atoms: C_14  and  C_15
REMARK    5  A    between atoms: C_15  and  C_17
REMARK                            x       y       z     vdW  Elec       q    Type
REMARK                         _______ _______ _______ _____ _____    ______ ____
ROOT
ATOM      1  C   UNL     1       1.399   9.330  19.465  0.00  0.00    +0.000 A 
ATOM      2  C   UNL     1       1.787   9.293  18.126  0.00  0.00    +0.000 A 
ATOM      3  C   UNL     1       2.415   8.153  17.612  0.00  0.00    +0.000 A 
ATOM      4  C   UNL     1       2.639   7.039  18.435  0.00  0.00    +0.000 A 
ATOM      5  C   UNL     1       2.265   7.090  19.785  0.00  0.00    +0.000 A 
ATOM      6  C   UNL     1       1.636   8.224  20.294  0.00  0.00    +0.000 A 
ENDROOT
BRANCH   1   8
ATOM      7  O   UNL     1       1.353  11.595  20.066  0.00  0.00    +0.000 OA
ATOM      8  C   UNL     1       0.730  10.541  20.017  0.00  0.00    +0.000 C 
ATOM      9  N   UNL     1      -0.533  10.303  20.528  0.00  0.00    +0.000 N 
ATOM     10  H   UNL     1      -0.683   9.388  20.930  0.00  0.00    +0.000 HD
BRANCH   9  11
ATOM     11  C   UNL     1      -1.264  11.301  21.172  0.00  0.00    +0.000 A 
ATOM     12  N   UNL     1      -1.960  12.107  20.339  0.00  0.00    +0.000 NA
ATOM     13  C   UNL     1      -2.781  13.008  20.919  0.00  0.00    +0.000 A 
ATOM     14  C   UNL     1      -2.891  13.188  22.291  0.00  0.00    +0.000 A 
ATOM     15  C   UNL     1      -2.094  12.413  23.127  0.00  0.00    +0.000 A 
ATOM     16  C   UNL     1      -1.262  11.454  22.561  0.00  0.00    +0.000 A 
BRANCH  16  17
ATOM     17  O   UNL     1      -0.394  10.751  23.348  0.00  0.00    +0.000 OA
ATOM     18  H   UNL     1      -0.419   9.820  23.076  0.00  0.00    +0.000 HD
ENDBRANCH  16  17
ENDBRANCH   9  11
ENDBRANCH   1   8
BRANCH   4  19
ATOM     19  C   UNL     1       3.310   5.845  17.858  0.00  0.00    +0.000 C 
ATOM     20  O   UNL     1       4.234   6.009  17.065  0.00  0.00    +0.000 OA
BRANCH  19  21
ATOM     21  C   UNL     1       2.909   4.460  18.228  0.00  0.00    +0.000 A 
ATOM     22  C   UNL     1       1.554   4.115  18.143  0.00  0.00    +0.000 A 
ATOM     23  C   UNL     1       1.136   2.827  18.474  0.00  0.00    +0.000 A 
ATOM     24  C   UNL     1       2.066   1.879  18.899  0.00  0.00    +0.000 A 
ATOM     25  C   UNL     1       3.413   2.222  19.009  0.00  0.00    +0.000 A 
ATOM     26  C   UNL     1       3.836   3.514  18.686  0.00  0.00    +0.000 A 
ENDBRANCH  19  21
ENDBRANCH   4  19
TORSDOF 5
ENDMDL
MODEL 5
REMARK VINA RESULT:      -7.7      1.911      2.298
REMARK  Name = 
REMARK  5 active torsions:
REMARK  status: ('A' for Active; 'I' for Inactive)
REMARK    1  A    between atoms: C_2  and  C_11
REMARK    2  A    between atoms: N_3  and  C_4
REMARK    3  A    between atoms: C_9  and  O_10
REMARK    4  A    between atoms: C_14  and  C_15
REMARK    5  A    between atoms: C_15  and  C_17
REMARK                            x       y       z     vdW  Elec       q    Type
REMARK                         _______ _______ _______ _____ _____    ______ ____
ROOT
ATOM      1  C   UNL     1       1.835   7.916  19.524  0.00  0.00    +0.000 A 
ATOM      2  C   UNL     1       1.869   6.808  20.369  0.00  0.00    +0.000 A 
ATOM      3  C   UNL     1       2.640   5.692  20.026  0.00  0.00    +0.000 A 
ATOM      4  C   UNL     1       3.395   5.691  18.844  0.00  0.00    +0.000 A 
ATOM      5  C   UNL     1       3.340   6.799  17.988  0.00  0.00    +0.000 A 
ATOM      6  C   UNL     1       2.575   7.912  18.333  0.00  0.00    +0.000 A 
ENDROOT
BRANCH   1   8
ATOM      7  O   UNL     1       0.488   9.758  18.988  0.00  0.00    +0.000 OA
ATOM      8  C   UNL     1       1.016   9.108  19.883  0.00  0.00    +0.000 C 
ATOM      9  N   UNL     1       1.031   9.416  21.230  0.00  0.00    +0.000 N 
ATOM     10  H   UNL     1       1.882   9.193  21.727  0.00  0.00    +0.000 HD
BRANCH   9  11
ATOM     11  C   UNL     1       0.398  10.555  21.730  0.00  0.00    +0.000 A 
ATOM     12  N   UNL     1       0.881  11.719  21.242  0.00  0.00    +0.000 NA
ATOM     13  C   UNL     1       0.220  12.841  21.598  0.00  0.00    +0.000 A 
ATOM     14  C   UNL     1      -0.859  12.863  22.471  0.00  0.00    +0.000 A 
ATOM     15  C   UNL     1      -1.278  11.663  23.036  0.00  0.00    +0.000 A 
ATOM     16  C   UNL     1      -0.638  10.487  22.664  0.00  0.00    +0.000 A 
BRANCH  16  17
ATOM     17  O   UNL     1      -0.959   9.310  23.280  0.00  0.00    +0.000 OA
ATOM     18  H   UNL     1      -0.173   8.741  23.284  0.00  0.00    +0.000 HD
ENDBRANCH  16  17
ENDBRANCH   9  11
ENDBRANCH   1   8
BRANCH   4  19
ATOM     19  C   UNL     1       4.201   4.488  18.509  0.00  0.00    +0.000 C 
ATOM     20  O   UNL     1       4.058   3.471  19.183  0.00  0.00    +0.000 OA
BRANCH  19  21
ATOM     21  C   UNL     1       5.161   4.474  17.371  0.00  0.00    +0.000 A 
ATOM     22  C   UNL     1       6.503   4.780  17.631  0.00  0.00    +0.000 A 
ATOM     23  C   UNL     1       7.437   4.773  16.595  0.00  0.00    +0.000 A 
ATOM     24  C   UNL     1       7.035   4.468  15.295  0.00  0.00    +0.000 A 
ATOM     25  C   UNL     1       5.696   4.186  15.026  0.00  0.00    +0.000 A 
ATOM     26  C   UNL     1       4.755   4.199  16.059  0.00  0.00    +0.000 A 
ENDBRANCH  19  21
ENDBRANCH   4  19
TORSDOF 5
ENDMDL
MODEL 6
REMARK VINA RESULT:      -7.7      1.889      2.657
REMARK  Name = 
REMARK  5 active torsions:
REMARK  status: ('A' for Active; 'I' for Inactive)
REMARK    1  A    between atoms: C_2  and  C_11
REMARK    2  A    between atoms: N_3  and  C_4
REMARK    3  A    between atoms: C_9  and  O_10
REMARK    4  A    between atoms: C_14  and  C_15
REMARK    5  A    between atoms: C_15  and  C_17
REMARK                            x       y       z     vdW  Elec       q    Type
REMARK                         _______ _______ _______ _____ _____    ______ ____
ROOT
ATOM      1  C   UNL     1       1.844   7.911  19.544  0.00  0.00    +0.000 A 
ATOM      2  C   UNL     1       2.545   7.823  18.342  0.00  0.00    +0.000 A 
ATOM      3  C   UNL     1       3.268   6.663  18.040  0.00  0.00    +0.000 A 
ATOM      4  C   UNL     1       3.276   5.582  18.933  0.00  0.00    +0.000 A 
ATOM      5  C   UNL     1       2.587   5.686  20.150  0.00  0.00    +0.000 A 
ATOM      6  C   UNL     1       1.863   6.838  20.448  0.00  0.00    +0.000 A 
ENDROOT
BRANCH   1   8
ATOM      7  O   UNL     1       0.647   9.839  18.958  0.00  0.00    +0.000 OA
ATOM      8  C   UNL     1       1.072   9.142  19.873  0.00  0.00    +0.000 C 
ATOM      9  N   UNL     1       1.010   9.424  21.225  0.00  0.00    +0.000 N 
ATOM     10  H   UNL     1       1.810   9.143  21.774  0.00  0.00    +0.000 HD
BRANCH   9  11
ATOM     11  C   UNL     1       0.411  10.589  21.705  0.00  0.00    +0.000 A 
ATOM     12  N   UNL     1       0.922  11.731  21.193  0.00  0.00    +0.000 NA
ATOM     13  C   UNL     1       0.294  12.876  21.529  0.00  0.00    +0.000 A 
ATOM     14  C   UNL     1      -0.781  12.944  22.406  0.00  0.00    +0.000 A 
ATOM     15  C   UNL     1      -1.229  11.767  22.996  0.00  0.00    +0.000 A 
ATOM     16  C   UNL     1      -0.623  10.567  22.644  0.00  0.00    +0.000 A 
BRANCH  16  17
ATOM     17  O   UNL     1      -0.974   9.411  23.283  0.00  0.00    +0.000 OA
ATOM     18  H   UNL     1      -1.297   9.637  24.170  0.00  0.00    +0.000 HD
ENDBRANCH  16  17
ENDBRANCH   9  11
ENDBRANCH   1   8
BRANCH   4  19
ATOM     19  C   UNL     1       4.056   4.367  18.582  0.00  0.00    +0.000 C 
ATOM     20  O   UNL     1       3.776   3.303  19.131  0.00  0.00    +0.000 OA
BRANCH  19  21
ATOM     21  C   UNL     1       5.149   4.396  17.572  0.00  0.00    +0.000 A 
ATOM     22  C   UNL     1       4.833   4.084  16.243  0.00  0.00    +0.000 A 
ATOM     23  C   UNL     1       5.826   4.104  15.264  0.00  0.00    +0.000 A 
ATOM     24  C   UNL     1       7.138   4.428  15.607  0.00  0.00    +0.000 A 
ATOM     25  C   UNL     1       7.463   4.716  16.931  0.00  0.00    +0.000 A 
ATOM     26  C   UNL     1       6.474   4.689  17.918  0.00  0.00    +0.000 A 
ENDBRANCH  19  21
ENDBRANCH   4  19
TORSDOF 5
ENDMDL
MODEL 7
REMARK VINA RESULT:      -7.7      0.867      1.352
REMARK  Name = 
REMARK  5 active torsions:
REMARK  status: ('A' for Active; 'I' for Inactive)
REMARK    1  A    between atoms: C_2  and  C_11
REMARK    2  A    between atoms: N_3  and  C_4
REMARK    3  A    between atoms: C_9  and  O_10
REMARK    4  A    between atoms: C_14  and  C_15
REMARK    5  A    between atoms: C_15  and  C_17
REMARK                            x       y       z     vdW  Elec       q    Type
REMARK                         _______ _______ _______ _____ _____    ______ ____
ROOT
ATOM      1  C   UNL     1       0.966   9.463  19.534  0.00  0.00    +0.000 A 
ATOM      2  C   UNL     1       1.307   9.490  18.182  0.00  0.00    +0.000 A 
ATOM      3  C   UNL     1       2.104   8.474  17.642  0.00  0.00    +0.000 A 
ATOM      4  C   UNL     1       2.546   7.418  18.453  0.00  0.00    +0.000 A 
ATOM      5  C   UNL     1       2.218   7.408  19.816  0.00  0.00    +0.000 A 
ATOM      6  C   UNL     1       1.421   8.418  20.350  0.00  0.00    +0.000 A 
ENDROOT
BRANCH   1   8
ATOM      7  O   UNL     1      -0.824  10.974  19.461  0.00  0.00    +0.000 OA
ATOM      8  C   UNL     1       0.118  10.542  20.114  0.00  0.00    +0.000 C 
ATOM      9  N   UNL     1       0.572  11.022  21.329  0.00  0.00    +0.000 N 
ATOM     10  H   UNL     1       1.573  11.009  21.465  0.00  0.00    +0.000 HD
BRANCH   9  11
ATOM     11  C   UNL     1      -0.044  12.098  21.969  0.00  0.00    +0.000 A 
ATOM     12  N   UNL     1       0.488  13.304  21.670  0.00  0.00    +0.000 NA
ATOM     13  C   UNL     1      -0.151  14.385  22.164  0.00  0.00    +0.000 A 
ATOM     14  C   UNL     1      -1.259  14.317  22.998  0.00  0.00    +0.000 A 
ATOM     15  C   UNL     1      -1.732  13.063  23.371  0.00  0.00    +0.000 A 
ATOM     16  C   UNL     1      -1.114  11.932  22.851  0.00  0.00    +0.000 A 
BRANCH  16  17
ATOM     17  O   UNL     1      -1.491  10.690  23.280  0.00  0.00    +0.000 OA
ATOM     18  H   UNL     1      -1.599  10.118  22.504  0.00  0.00    +0.000 HD
ENDBRANCH  16  17
ENDBRANCH   9  11
ENDBRANCH   1   8
BRANCH   4  19
ATOM     19  C   UNL     1       3.392   6.356  17.848  0.00  0.00    +0.000 C 
ATOM     20  O   UNL     1       4.446   6.676  17.303  0.00  0.00    +0.000 OA
BRANCH  19  21
ATOM     21  C   UNL     1       3.012   4.918  17.902  0.00  0.00    +0.000 A 
ATOM     22  C   UNL     1       4.013   3.959  17.700  0.00  0.00    +0.000 A 
ATOM     23  C   UNL     1       3.701   2.600  17.747  0.00  0.00    +0.000 A 
ATOM     24  C   UNL     1       2.390   2.193  17.989  0.00  0.00    +0.000 A 
ATOM     25  C   UNL     1       1.385   3.143  18.166  0.00  0.00    +0.000 A 
ATOM     26  C   UNL     1       1.690   4.505  18.112  0.00  0.00    +0.000 A 
ENDBRANCH  19  21
ENDBRANCH   4  19
TORSDOF 5
ENDMDL
MODEL 8
REMARK VINA RESULT:      -7.6      1.673      2.691
REMARK  Name = 
REMARK  5 active torsions:
REMARK  status: ('A' for Active; 'I' for Inactive)
REMARK    1  A    between atoms: C_2  and  C_11
REMARK    2  A    between atoms: N_3  and  C_4
REMARK    3  A    between atoms: C_9  and  O_10
REMARK    4  A    between atoms: C_14  and  C_15
REMARK    5  A    between atoms: C_15  and  C_17
REMARK                            x       y       z     vdW  Elec       q    Type
REMARK                         _______ _______ _______ _____ _____    ______ ____
ROOT
ATOM      1  C   UNL     1       1.086   9.158  19.592  0.00  0.00    +0.000 A 
ATOM      2  C   UNL     1       1.542   9.201  18.275  0.00  0.00    +0.000 A 
ATOM      3  C   UNL     1       2.353   8.172  17.784  0.00  0.00    +0.000 A 
ATOM      4  C   UNL     1       2.694   7.087  18.606  0.00  0.00    +0.000 A 
ATOM      5  C   UNL     1       2.250   7.061  19.935  0.00  0.00    +0.000 A 
ATOM      6  C   UNL     1       1.439   8.084  20.422  0.00  0.00    +0.000 A 
ENDROOT
BRANCH   1   8
ATOM      7  O   UNL     1      -0.748  10.613  19.464  0.00  0.00    +0.000 OA
ATOM      8  C   UNL     1       0.222  10.250  20.121  0.00  0.00    +0.000 C 
ATOM      9  N   UNL     1       0.690  10.823  21.289  0.00  0.00    +0.000 N 
ATOM     10  H   UNL     1       1.694  10.846  21.400  0.00  0.00    +0.000 HD
BRANCH   9  11
ATOM     11  C   UNL     1       0.059  11.923  21.871  0.00  0.00    +0.000 A 
ATOM     12  N   UNL     1       0.580  13.118  21.514  0.00  0.00    +0.000 NA
ATOM     13  C   UNL     1      -0.074  14.215  21.951  0.00  0.00    +0.000 A 
ATOM     14  C   UNL     1      -1.185  14.177  22.783  0.00  0.00    +0.000 A 
ATOM     15  C   UNL     1      -1.645  12.937  23.216  0.00  0.00    +0.000 A 
ATOM     16  C   UNL     1      -1.013  11.789  22.757  0.00  0.00    +0.000 A 
BRANCH  16  17
ATOM     17  O   UNL     1      -1.378  10.566  23.246  0.00  0.00    +0.000 OA
ATOM     18  H   UNL     1      -0.638  10.209  23.763  0.00  0.00    +0.000 HD
ENDBRANCH  16  17
ENDBRANCH   9  11
ENDBRANCH   1   8
BRANCH   4  19
ATOM     19  C   UNL     1       3.559   6.013  18.053  0.00  0.00    +0.000 C 
ATOM     20  O   UNL     1       3.033   5.071  17.465  0.00  0.00    +0.000 OA
BRANCH  19  21
ATOM     21  C   UNL     1       5.042   6.053  18.174  0.00  0.00    +0.000 A 
ATOM     22  C   UNL     1       5.768   6.763  17.208  0.00  0.00    +0.000 A 
ATOM     23  C   UNL     1       7.159   6.832  17.286  0.00  0.00    +0.000 A 
ATOM     24  C   UNL     1       7.832   6.188  18.323  0.00  0.00    +0.000 A 
ATOM     25  C   UNL     1       7.118   5.459  19.274  0.00  0.00    +0.000 A 
ATOM     26  C   UNL     1       5.725   5.381  19.195  0.00  0.00    +0.000 A 
ENDBRANCH  19  21
ENDBRANCH   4  19
TORSDOF 5
ENDMDL
MODEL 9
REMARK VINA RESULT:      -7.6      1.945      2.277
REMARK  Name = 
REMARK  5 active torsions:
REMARK  status: ('A' for Active; 'I' for Inactive)
REMARK    1  A    between atoms: C_2  and  C_11
REMARK    2  A    between atoms: N_3  and  C_4
REMARK    3  A    between atoms: C_9  and  O_10
REMARK    4  A    between atoms: C_14  and  C_15
REMARK    5  A    between atoms: C_15  and  C_17
REMARK                            x       y       z     vdW  Elec       q    Type
REMARK                         _______ _______ _______ _____ _____    ______ ____
ROOT
ATOM      1  C   UNL     1       1.684   8.339  19.476  0.00  0.00    +0.000 A 
ATOM      2  C   UNL     1       1.692   7.291  20.396  0.00  0.00    +0.000 A 
ATOM      3  C   UNL     1       2.327   6.086  20.076  0.00  0.00    +0.000 A 
ATOM      4  C   UNL     1       2.973   5.934  18.841  0.00  0.00    +0.000 A 
ATOM      5  C   UNL     1       2.944   6.984  17.912  0.00  0.00    +0.000 A 
ATOM      6  C   UNL     1       2.315   8.184  18.233  0.00  0.00    +0.000 A 
ENDROOT
BRANCH   1   8
ATOM      7  O   UNL     1       1.460  10.669  19.353  0.00  0.00    +0.000 OA
ATOM      8  C   UNL     1       1.010   9.624  19.810  0.00  0.00    +0.000 C 
ATOM      9  N   UNL     1      -0.026   9.498  20.717  0.00  0.00    +0.000 N 
ATOM     10  H   UNL     1       0.072   8.762  21.402  0.00  0.00    +0.000 HD
BRANCH   9  11
ATOM     11  C   UNL     1      -0.704  10.610  21.216  0.00  0.00    +0.000 A 
ATOM     12  N   UNL     1      -1.284  11.380  20.269  0.00  0.00    +0.000 NA
ATOM     13  C   UNL     1      -2.057  12.396  20.707  0.00  0.00    +0.000 A 
ATOM     14  C   UNL     1      -2.225  12.721  22.046  0.00  0.00    +0.000 A 
ATOM     15  C   UNL     1      -1.541  11.974  23.000  0.00  0.00    +0.000 A 
ATOM     16  C   UNL     1      -0.764  10.902  22.581  0.00  0.00    +0.000 A 
BRANCH  16  17
ATOM     17  O   UNL     1      -0.001  10.216  23.484  0.00  0.00    +0.000 OA
ATOM     18  H   UNL     1      -0.585   9.867  24.176  0.00  0.00    +0.000 HD
ENDBRANCH  16  17
ENDBRANCH   9  11
ENDBRANCH   1   8
BRANCH   4  19
ATOM     19  C   UNL     1       3.636   4.641  18.533  0.00  0.00    +0.000 C 
ATOM     20  O   UNL     1       3.163   3.606  18.996  0.00  0.00    +0.000 OA
BRANCH  19  21
ATOM     21  C   UNL     1       4.843   4.560  17.664  0.00  0.00    +0.000 A 
ATOM     22  C   UNL     1       6.082   4.909  18.216  0.00  0.00    +0.000 A 
ATOM     23  C   UNL     1       7.239   4.842  17.440  0.00  0.00    +0.000 A 
ATOM     24  C   UNL     1       7.163   4.434  16.108  0.00  0.00    +0.000 A 
ATOM     25  C   UNL     1       5.930   4.109  15.546  0.00  0.00    +0.000 A 
ATOM     26  C   UNL     1       4.767   4.182  16.318  0.00  0.00    +0.000 A 
ENDBRANCH  19  21
ENDBRANCH   4  19
TORSDOF 5
ENDMDL
