MODEL 1
REMARK VINA RESULT:      -8.2      0.000      0.000
REMARK  Name = 
REMARK  7 active torsions:
REMARK  status: ('A' for Active; 'I' for Inactive)
REMARK    1  A    between atoms: C_1  and  C_2
REMARK    2  A    between atoms: N_4  and  C_5
REMARK    3  A    between atoms: C_5  and  C_6
REMARK    4  A    between atoms: N_8  and  C_9
REMARK    5  A    between atoms: C_12  and  N_13
REMARK    6  A    between atoms: C_18  and  C_20
REMARK    7  A    between atoms: C_20  and  O_21
REMARK                            x       y       z     vdW  Elec       q    Type
REMARK                         _______ _______ _______ _____ _____    ______ ____
ROOT
ATOM      1  C   UNL     1       2.618   7.303  18.747  0.00  0.00    +0.000 A 
ATOM      2  C   UNL     1       2.465   8.337  17.825  0.00  0.00    +0.000 A 
ATOM      3  C   UNL     1       1.701   9.473  18.133  0.00  0.00    +0.000 A 
ATOM      4  C   UNL     1       1.064   9.635  19.372  0.00  0.00    +0.000 A 
ATOM      5  C   UNL     1       1.260   8.590  20.294  0.00  0.00    +0.000 A 
ATOM      6  F   UNL     1       0.671   8.614  21.500  0.00  0.00    +0.000 F 
ATOM      7  C   UNL     1       2.012   7.448  19.994  0.00  0.00    +0.000 A 
ENDROOT
BRANCH   4   8
ATOM      8  N   UNL     1       0.293  10.759  19.631  0.00  0.00    +0.000 N 
ATOM      9  C   UNL     1      -0.972  10.980  18.915  0.00  0.00    +0.000 C 
ATOM     10  C   UNL     1      -0.980  12.313  18.148  0.00  0.00    +0.000 C 
ATOM     11  N   UNL     1      -1.128  13.472  19.042  0.00  0.00    +0.000 NA
ATOM     12  N   UNL     1       0.094  13.968  19.562  0.00  0.00    +0.000 N 
ATOM     13  C   UNL     1       0.304  15.352  19.611  0.00  0.00    +0.000 C 
ATOM     14  O   UNL     1       1.319  15.869  20.083  0.00  0.00    +0.000 OA
ATOM     15  C   UNL     1       1.161  13.058  19.999  0.00  0.00    +0.000 C 
ATOM     16  C   UNL     1       0.684  11.750  20.648  0.00  0.00    +0.000 C 
ATOM     17  H   UNL     1      -1.736  13.228  19.826  0.00  0.00    +0.000 HD
BRANCH  13  18
ATOM     18  C   UNL     1      -0.846  16.225  19.085  0.00  0.00    +0.000 C 
BRANCH  18  19
ATOM     19  O   UNL     1      -2.037  16.102  19.851  0.00  0.00    +0.000 OA
ATOM     20  H   UNL     1      -1.790  16.327  20.769  0.00  0.00    +0.000 HD
ENDBRANCH  18  19
ENDBRANCH  13  18
ENDBRANCH   4   8
BRANCH   1  23
ATOM     21  C   UNL     1       4.969   4.520  18.421  0.00  0.00    +0.000 C 
ATOM     22  C   UNL     1       4.751   6.013  18.515  0.00  0.00    +0.000 C 
ATOM     23  N   UNL     1       3.327   6.126  18.420  0.00  0.00    +0.000 N 
ATOM     24  C   UNL     1       2.800   4.954  17.905  0.00  0.00    +0.000 C 
ATOM     25  O   UNL     1       1.647   4.716  17.577  0.00  0.00    +0.000 OA
ATOM     26  O   UNL     1       3.799   4.032  17.744  0.00  0.00    +0.000 OA
BRANCH  21  27
ATOM     27  C   UNL     1       6.215   4.169  17.617  0.00  0.00    +0.000 C 
BRANCH  27  31
ATOM     28  C   UNL     1       6.083   3.942  13.845  0.00  0.00    +0.000 C 
ATOM     29  C   UNL     1       6.517   4.455  15.187  0.00  0.00    +0.000 C 
ATOM     30  O   UNL     1       7.335   5.359  15.329  0.00  0.00    +0.000 OA
ATOM     31  N   UNL     1       5.899   3.825  16.242  0.00  0.00    +0.000 N 
ATOM     32  H   UNL     1       5.448   2.932  16.074  0.00  0.00    +0.000 HD
ENDBRANCH  27  31
ENDBRANCH  21  27
ENDBRANCH   1  23
TORSDOF 6
ENDMDL
MODEL 2
REMARK VINA RESULT:      -8.1      2.196      2.541
REMARK  Name = 
REMARK  7 active torsions:
REMARK  status: ('A' for Active; 'I' for Inactive)
REMARK    1  A    between atoms: C_1  and  C_2
REMARK    2  A    between atoms: N_4  and  C_5
REMARK    3  A    between atoms: C_5  and  C_6
REMARK    4  A    between atoms: N_8  and  C_9
REMARK    5  A    between atoms: C_12  and  N_13
REMARK    6  A    between atoms: C_18  and  C_20
REMARK    7  A    between atoms: C_20  and  O_21
REMARK                            x       y       z     vdW  Elec       q    Type
REMARK                         _______ _______ _______ _____ _____    ______ ____
ROOT
ATOM      1  C   UNL     1       2.696   7.276  18.696  0.00  0.00    +0.000 A 
ATOM      2  C   UNL     1       2.577   8.330  17.791  0.00  0.00    +0.000 A 
ATOM      3  C   UNL     1       1.803   9.459  18.094  0.00  0.00    +0.000 A 
ATOM      4  C   UNL     1       1.119   9.596  19.311  0.00  0.00    +0.000 A 
ATOM      5  C   UNL     1       1.281   8.531  20.218  0.00  0.00    +0.000 A 
ATOM      6  F   UNL     1       0.648   8.530  21.402  0.00  0.00    +0.000 F 
ATOM      7  C   UNL     1       2.043   7.396  19.922  0.00  0.00    +0.000 A 
ENDROOT
BRANCH   4   8
ATOM      8  N   UNL     1       0.340  10.715  19.566  0.00  0.00    +0.000 N 
ATOM      9  C   UNL     1       0.342  11.341  20.896  0.00  0.00    +0.000 C 
ATOM     10  C   UNL     1      -1.064  11.387  21.518  0.00  0.00    +0.000 C 
ATOM     11  N   UNL     1      -1.920  12.406  20.892  0.00  0.00    +0.000 NA
ATOM     12  N   UNL     1      -2.622  11.956  19.746  0.00  0.00    +0.000 N 
ATOM     13  C   UNL     1      -3.966  12.312  19.584  0.00  0.00    +0.000 C 
ATOM     14  O   UNL     1      -4.640  11.997  18.600  0.00  0.00    +0.000 OA
ATOM     15  C   UNL     1      -1.981  11.079  18.757  0.00  0.00    +0.000 C 
ATOM     16  C   UNL     1      -0.486  11.340  18.519  0.00  0.00    +0.000 C 
ATOM     17  H   UNL     1      -1.355  13.216  20.627  0.00  0.00    +0.000 HD
BRANCH  13  18
ATOM     18  C   UNL     1      -4.568  13.188  20.694  0.00  0.00    +0.000 C 
BRANCH  18  19
ATOM     19  O   UNL     1      -4.817  12.473  21.898  0.00  0.00    +0.000 OA
ATOM     20  H   UNL     1      -4.080  12.697  22.500  0.00  0.00    +0.000 HD
ENDBRANCH  18  19
ENDBRANCH  13  18
ENDBRANCH   4   8
BRANCH   1  23
ATOM     21  C   UNL     1       5.092   4.535  18.344  0.00  0.00    +0.000 C 
ATOM     22  C   UNL     1       4.844   6.025  18.407  0.00  0.00    +0.000 C 
ATOM     23  N   UNL     1       3.415   6.105  18.371  0.00  0.00    +0.000 N 
ATOM     24  C   UNL     1       2.893   4.909  17.911  0.00  0.00    +0.000 C 
ATOM     25  O   UNL     1       1.733   4.637  17.640  0.00  0.00    +0.000 OA
ATOM     26  O   UNL     1       3.905   4.003  17.732  0.00  0.00    +0.000 OA
BRANCH  21  27
ATOM     27  C   UNL     1       6.310   4.188  17.497  0.00  0.00    +0.000 C 
BRANCH  27  31
ATOM     28  C   UNL     1       6.073   3.940  13.732  0.00  0.00    +0.000 C 
ATOM     29  C   UNL     1       6.560   4.446  15.058  0.00  0.00    +0.000 C 
ATOM     30  O   UNL     1       7.413   5.321  15.172  0.00  0.00    +0.000 OA
ATOM     31  N   UNL     1       5.946   3.846  16.133  0.00  0.00    +0.000 N 
ATOM     32  H   UNL     1       5.461   2.969  15.983  0.00  0.00    +0.000 HD
ENDBRANCH  27  31
ENDBRANCH  21  27
ENDBRANCH   1  23
TORSDOF 6
ENDMDL
MODEL 3
REMARK VINA RESULT:      -8.1      1.095      1.407
REMARK  Name = 
REMARK  7 active torsions:
REMARK  status: ('A' for Active; 'I' for Inactive)
REMARK    1  A    between atoms: C_1  and  C_2
REMARK    2  A    between atoms: N_4  and  C_5
REMARK    3  A    between atoms: C_5  and  C_6
REMARK    4  A    between atoms: N_8  and  C_9
REMARK    5  A    between atoms: C_12  and  N_13
REMARK    6  A    between atoms: C_18  and  C_20
REMARK    7  A    between atoms: C_20  and  O_21
REMARK                            x       y       z     vdW  Elec       q    Type
REMARK                         _______ _______ _______ _____ _____    ______ ____
ROOT
ATOM      1  C   UNL     1       2.818   6.911  18.711  0.00  0.00    +0.000 A 
ATOM      2  C   UNL     1       2.194   6.946  19.957  0.00  0.00    +0.000 A 
ATOM      3  C   UNL     1       1.422   8.050  20.347  0.00  0.00    +0.000 A 
ATOM      4  C   UNL     1       1.227   9.162  19.515  0.00  0.00    +0.000 A 
ATOM      5  C   UNL     1       1.843   9.086  18.252  0.00  0.00    +0.000 A 
ATOM      6  F   UNL     1       1.758  10.104  17.380  0.00  0.00    +0.000 F 
ATOM      7  C   UNL     1       2.623   7.994  17.855  0.00  0.00    +0.000 A 
ENDROOT
BRANCH   4   8
ATOM      8  N   UNL     1       0.479  10.248  19.945  0.00  0.00    +0.000 N 
ATOM      9  C   UNL     1      -0.839  10.529  19.356  0.00  0.00    +0.000 C 
ATOM     10  C   UNL     1      -0.907  11.933  18.730  0.00  0.00    +0.000 C 
ATOM     11  N   UNL     1      -0.985  12.994  19.744  0.00  0.00    +0.000 NA
ATOM     12  N   UNL     1       0.274  13.446  20.215  0.00  0.00    +0.000 N 
ATOM     13  C   UNL     1       0.487  14.820  20.385  0.00  0.00    +0.000 C 
ATOM     14  O   UNL     1       1.536  15.295  20.826  0.00  0.00    +0.000 OA
ATOM     15  C   UNL     1       1.372  12.506  20.473  0.00  0.00    +0.000 C 
ATOM     16  C   UNL     1       0.948  11.135  21.023  0.00  0.00    +0.000 C 
ATOM     17  H   UNL     1      -1.530  12.668  20.544  0.00  0.00    +0.000 HD
BRANCH  13  18
ATOM     18  C   UNL     1      -0.701  15.732  20.041  0.00  0.00    +0.000 C 
BRANCH  18  19
ATOM     19  O   UNL     1      -0.866  15.933  18.643  0.00  0.00    +0.000 OA
ATOM     20  H   UNL     1      -1.340  15.144  18.314  0.00  0.00    +0.000 HD
ENDBRANCH  18  19
ENDBRANCH  13  18
ENDBRANCH   4   8
BRANCH   1  23
ATOM     21  C   UNL     1       5.507   4.485  18.197  0.00  0.00    +0.000 C 
ATOM     22  C   UNL     1       5.081   5.934  18.277  0.00  0.00    +0.000 C 
ATOM     23  N   UNL     1       3.654   5.836  18.337  0.00  0.00    +0.000 N 
ATOM     24  C   UNL     1       3.256   4.580  17.912  0.00  0.00    +0.000 C 
ATOM     25  O   UNL     1       2.123   4.165  17.720  0.00  0.00    +0.000 OA
ATOM     26  O   UNL     1       4.358   3.806  17.666  0.00  0.00    +0.000 OA
BRANCH  21  27
ATOM     27  C   UNL     1       6.700   4.286  17.270  0.00  0.00    +0.000 C 
BRANCH  27  31
ATOM     28  C   UNL     1       6.258   3.877  13.537  0.00  0.00    +0.000 C 
ATOM     29  C   UNL     1       6.764   4.483  14.812  0.00  0.00    +0.000 C 
ATOM     30  O   UNL     1       7.516   5.452  14.845  0.00  0.00    +0.000 OA
ATOM     31  N   UNL     1       6.293   3.856  15.943  0.00  0.00    +0.000 N 
ATOM     32  H   UNL     1       5.904   2.925  15.851  0.00  0.00    +0.000 HD
ENDBRANCH  27  31
ENDBRANCH  21  27
ENDBRANCH   1  23
TORSDOF 6
ENDMDL
MODEL 4
REMARK VINA RESULT:      -8.0      2.279      2.773
REMARK  Name = 
REMARK  7 active torsions:
REMARK  status: ('A' for Active; 'I' for Inactive)
REMARK    1  A    between atoms: C_1  and  C_2
REMARK    2  A    between atoms: N_4  and  C_5
REMARK    3  A    between atoms: C_5  and  C_6
REMARK    4  A    between atoms: N_8  and  C_9
REMARK    5  A    between atoms: C_12  and  N_13
REMARK    6  A    between atoms: C_18  and  C_20
REMARK    7  A    between atoms: C_20  and  O_21
REMARK                            x       y       z     vdW  Elec       q    Type
REMARK                         _______ _______ _______ _____ _____    ______ ____
ROOT
ATOM      1  C   UNL     1       2.762   7.047  18.699  0.00  0.00    +0.000 A 
ATOM      2  C   UNL     1       2.138   7.143  19.941  0.00  0.00    +0.000 A 
ATOM      3  C   UNL     1       1.428   8.296  20.307  0.00  0.00    +0.000 A 
ATOM      4  C   UNL     1       1.299   9.400  19.452  0.00  0.00    +0.000 A 
ATOM      5  C   UNL     1       1.913   9.264  18.193  0.00  0.00    +0.000 A 
ATOM      6  F   UNL     1       1.888  10.267  17.301  0.00  0.00    +0.000 F 
ATOM      7  C   UNL     1       2.631   8.122  17.821  0.00  0.00    +0.000 A 
ENDROOT
BRANCH   4   8
ATOM      8  N   UNL     1       0.612  10.535  19.858  0.00  0.00    +0.000 N 
ATOM      9  C   UNL     1       0.663  10.979  21.258  0.00  0.00    +0.000 C 
ATOM     10  C   UNL     1      -0.735  11.057  21.894  0.00  0.00    +0.000 C 
ATOM     11  N   UNL     1      -1.504  12.215  21.415  0.00  0.00    +0.000 NA
ATOM     12  N   UNL     1      -2.239  11.977  20.226  0.00  0.00    +0.000 N 
ATOM     13  C   UNL     1      -3.550  12.458  20.124  0.00  0.00    +0.000 C 
ATOM     14  O   UNL     1      -4.245  12.331  19.114  0.00  0.00    +0.000 OA
ATOM     15  C   UNL     1      -1.670  11.189  19.125  0.00  0.00    +0.000 C 
ATOM     16  C   UNL     1      -0.158  11.357  18.909  0.00  0.00    +0.000 C 
ATOM     17  H   UNL     1      -0.875  13.003  21.253  0.00  0.00    +0.000 HD
BRANCH  13  18
ATOM     18  C   UNL     1      -4.080  13.227  21.345  0.00  0.00    +0.000 C 
BRANCH  18  19
ATOM     19  O   UNL     1      -4.606  12.377  22.357  0.00  0.00    +0.000 OA
ATOM     20  H   UNL     1      -4.199  12.674  23.194  0.00  0.00    +0.000 HD
ENDBRANCH  18  19
ENDBRANCH  13  18
ENDBRANCH   4   8
BRANCH   1  23
ATOM     21  C   UNL     1       5.293   4.439  18.281  0.00  0.00    +0.000 C 
ATOM     22  C   UNL     1       4.968   5.913  18.365  0.00  0.00    +0.000 C 
ATOM     23  N   UNL     1       3.537   5.919  18.350  0.00  0.00    +0.000 N 
ATOM     24  C   UNL     1       3.071   4.701  17.884  0.00  0.00    +0.000 C 
ATOM     25  O   UNL     1       1.923   4.372  17.627  0.00  0.00    +0.000 OA
ATOM     26  O   UNL     1       4.126   3.853  17.680  0.00  0.00    +0.000 OA
BRANCH  21  27
ATOM     27  C   UNL     1       6.514   4.165  17.413  0.00  0.00    +0.000 C 
BRANCH  27  31
ATOM     28  C   UNL     1       6.189   3.847  13.659  0.00  0.00    +0.000 C 
ATOM     29  C   UNL     1       6.659   4.419  14.964  0.00  0.00    +0.000 C 
ATOM     30  O   UNL     1       7.416   5.381  15.043  0.00  0.00    +0.000 OA
ATOM     31  N   UNL     1       6.147   3.770  16.064  0.00  0.00    +0.000 N 
ATOM     32  H   UNL     1       5.754   2.844  15.938  0.00  0.00    +0.000 HD
ENDBRANCH  27  31
ENDBRANCH  21  27
ENDBRANCH   1  23
TORSDOF 6
ENDMDL
MODEL 5
REMARK VINA RESULT:      -7.9      1.929      2.366
REMARK  Name = 
REMARK  7 active torsions:
REMARK  status: ('A' for Active; 'I' for Inactive)
REMARK    1  A    between atoms: C_1  and  C_2
REMARK    2  A    between atoms: N_4  and  C_5
REMARK    3  A    between atoms: C_5  and  C_6
REMARK    4  A    between atoms: N_8  and  C_9
REMARK    5  A    between atoms: C_12  and  N_13
REMARK    6  A    between atoms: C_18  and  C_20
REMARK    7  A    between atoms: C_20  and  O_21
REMARK                            x       y       z     vdW  Elec       q    Type
REMARK                         _______ _______ _______ _____ _____    ______ ____
ROOT
ATOM      1  C   UNL     1       2.833   7.164  18.594  0.00  0.00    +0.000 A 
ATOM      2  C   UNL     1       2.621   8.199  17.685  0.00  0.00    +0.000 A 
ATOM      3  C   UNL     1       1.853   9.320  18.033  0.00  0.00    +0.000 A 
ATOM      4  C   UNL     1       1.270   9.467  19.301  0.00  0.00    +0.000 A 
ATOM      5  C   UNL     1       1.526   8.421  20.207  0.00  0.00    +0.000 A 
ATOM      6  F   UNL     1       0.993   8.430  21.440  0.00  0.00    +0.000 F 
ATOM      7  C   UNL     1       2.282   7.294  19.868  0.00  0.00    +0.000 A 
ENDROOT
BRANCH   4   8
ATOM      8  N   UNL     1       0.493  10.576  19.600  0.00  0.00    +0.000 N 
ATOM      9  C   UNL     1       1.052  11.932  19.493  0.00  0.00    +0.000 C 
ATOM     10  C   UNL     1       0.979  12.697  20.825  0.00  0.00    +0.000 C 
ATOM     11  N   UNL     1      -0.387  13.141  21.141  0.00  0.00    +0.000 NA
ATOM     12  N   UNL     1      -1.165  12.184  21.839  0.00  0.00    +0.000 N 
ATOM     13  C   UNL     1      -1.964  12.602  22.911  0.00  0.00    +0.000 C 
ATOM     14  O   UNL     1      -2.700  11.844  23.546  0.00  0.00    +0.000 OA
ATOM     15  C   UNL     1      -1.106  10.757  21.493  0.00  0.00    +0.000 C 
ATOM     16  C   UNL     1      -0.919  10.450  20.000  0.00  0.00    +0.000 C 
ATOM     17  H   UNL     1      -0.877  13.389  20.279  0.00  0.00    +0.000 HD
BRANCH  13  18
ATOM     18  C   UNL     1      -1.922  14.104  23.233  0.00  0.00    +0.000 C 
BRANCH  18  19
ATOM     19  O   UNL     1      -0.719  14.506  23.875  0.00  0.00    +0.000 OA
ATOM     20  H   UNL     1      -0.054  14.594  23.165  0.00  0.00    +0.000 HD
ENDBRANCH  18  19
ENDBRANCH  13  18
ENDBRANCH   4   8
BRANCH   1  23
ATOM     21  C   UNL     1       5.223   4.434  18.131  0.00  0.00    +0.000 C 
ATOM     22  C   UNL     1       4.975   5.922  18.226  0.00  0.00    +0.000 C 
ATOM     23  N   UNL     1       3.546   6.001  18.230  0.00  0.00    +0.000 N 
ATOM     24  C   UNL     1       3.013   4.811  17.763  0.00  0.00    +0.000 C 
ATOM     25  O   UNL     1       1.847   4.542  17.518  0.00  0.00    +0.000 OA
ATOM     26  O   UNL     1       4.021   3.911  17.541  0.00  0.00    +0.000 OA
BRANCH  21  27
ATOM     27  C   UNL     1       6.418   4.104  17.245  0.00  0.00    +0.000 C 
BRANCH  27  31
ATOM     28  C   UNL     1       6.060   3.823  13.492  0.00  0.00    +0.000 C 
ATOM     29  C   UNL     1       6.581   4.349  14.797  0.00  0.00    +0.000 C 
ATOM     30  O   UNL     1       7.420   5.241  14.877  0.00  0.00    +0.000 OA
ATOM     31  N   UNL     1       6.016   3.745  15.896  0.00  0.00    +0.000 N 
ATOM     32  H   UNL     1       5.542   2.858  15.769  0.00  0.00    +0.000 HD
ENDBRANCH  27  31
ENDBRANCH  21  27
ENDBRANCH   1  23
TORSDOF 6
ENDMDL
MODEL 6
REMARK VINA RESULT:      -7.8      1.803      2.936
REMARK  Name = 
REMARK  7 active torsions:
REMARK  status: ('A' for Active; 'I' for Inactive)
REMARK    1  A    between atoms: C_1  and  C_2
REMARK    2  A    between atoms: N_4  and  C_5
REMARK    3  A    between atoms: C_5  and  C_6
REMARK    4  A    between atoms: N_8  and  C_9
REMARK    5  A    between atoms: C_12  and  N_13
REMARK    6  A    between atoms: C_18  and  C_20
REMARK    7  A    between atoms: C_20  and  O_21
REMARK                            x       y       z     vdW  Elec       q    Type
REMARK                         _______ _______ _______ _____ _____    ______ ____
ROOT
ATOM      1  C   UNL     1       2.332   7.310  18.563  0.00  0.00    +0.000 A 
ATOM      2  C   UNL     1       2.179   8.313  17.607  0.00  0.00    +0.000 A 
ATOM      3  C   UNL     1       1.588   9.542  17.937  0.00  0.00    +0.000 A 
ATOM      4  C   UNL     1       1.132   9.832  19.231  0.00  0.00    +0.000 A 
ATOM      5  C   UNL     1       1.326   8.814  20.182  0.00  0.00    +0.000 A 
ATOM      6  F   UNL     1       0.900   8.960  21.447  0.00  0.00    +0.000 F 
ATOM      7  C   UNL     1       1.906   7.581  19.863  0.00  0.00    +0.000 A 
ENDROOT
BRANCH   4   8
ATOM      8  N   UNL     1       0.527  11.049  19.513  0.00  0.00    +0.000 N 
ATOM      9  C   UNL     1      -0.878  11.287  19.152  0.00  0.00    +0.000 C 
ATOM     10  C   UNL     1      -1.040  12.498  18.217  0.00  0.00    +0.000 C 
ATOM     11  N   UNL     1      -0.864  13.776  18.922  0.00  0.00    +0.000 NA
ATOM     12  N   UNL     1       0.479  14.222  18.997  0.00  0.00    +0.000 N 
ATOM     13  C   UNL     1       0.765  15.574  18.766  0.00  0.00    +0.000 C 
ATOM     14  O   UNL     1       1.898  16.054  18.848  0.00  0.00    +0.000 OA
ATOM     15  C   UNL     1       1.579  13.285  19.257  0.00  0.00    +0.000 C 
ATOM     16  C   UNL     1       1.245  12.128  20.211  0.00  0.00    +0.000 C 
ATOM     17  H   UNL     1      -1.231  13.700  19.873  0.00  0.00    +0.000 HD
BRANCH  13  18
ATOM     18  C   UNL     1      -0.442  16.471  18.450  0.00  0.00    +0.000 C 
BRANCH  18  19
ATOM     19  O   UNL     1      -1.428  16.464  19.475  0.00  0.00    +0.000 OA
ATOM     20  H   UNL     1      -1.007  16.040  20.248  0.00  0.00    +0.000 HD
ENDBRANCH  18  19
ENDBRANCH  13  18
ENDBRANCH   4   8
BRANCH   1  23
ATOM     21  C   UNL     1       2.985   3.901  17.410  0.00  0.00    +0.000 C 
ATOM     22  C   UNL     1       2.065   4.859  18.133  0.00  0.00    +0.000 C 
ATOM     23  N   UNL     1       2.861   6.046  18.224  0.00  0.00    +0.000 N 
ATOM     24  C   UNL     1       4.191   5.732  18.004  0.00  0.00    +0.000 C 
ATOM     25  O   UNL     1       5.172   6.453  18.111  0.00  0.00    +0.000 OA
ATOM     26  O   UNL     1       4.304   4.408  17.674  0.00  0.00    +0.000 OA
BRANCH  21  27
ATOM     27  C   UNL     1       2.864   2.477  17.938  0.00  0.00    +0.000 C 
BRANCH  27  31
ATOM     28  C   UNL     1       1.843   2.457  21.579  0.00  0.00    +0.000 C 
ATOM     29  C   UNL     1       2.773   2.502  20.402  0.00  0.00    +0.000 C 
ATOM     30  O   UNL     1       3.992   2.591  20.512  0.00  0.00    +0.000 OA
ATOM     31  N   UNL     1       2.129   2.419  19.190  0.00  0.00    +0.000 N 
ATOM     32  H   UNL     1       1.134   2.613  19.158  0.00  0.00    +0.000 HD
ENDBRANCH  27  31
ENDBRANCH  21  27
ENDBRANCH   1  23
TORSDOF 6
ENDMDL
MODEL 7
REMARK VINA RESULT:      -7.8      1.246      1.340
REMARK  Name = 
REMARK  7 active torsions:
REMARK  status: ('A' for Active; 'I' for Inactive)
REMARK    1  A    between atoms: C_1  and  C_2
REMARK    2  A    between atoms: N_4  and  C_5
REMARK    3  A    between atoms: C_5  and  C_6
REMARK    4  A    between atoms: N_8  and  C_9
REMARK    5  A    between atoms: C_12  and  N_13
REMARK    6  A    between atoms: C_18  and  C_20
REMARK    7  A    between atoms: C_20  and  O_21
REMARK                            x       y       z     vdW  Elec       q    Type
REMARK                         _______ _______ _______ _____ _____    ______ ____
ROOT
ATOM      1  C   UNL     1       3.158   6.822  18.366  0.00  0.00    +0.000 A 
ATOM      2  C   UNL     1       2.865   7.951  17.603  0.00  0.00    +0.000 A 
ATOM      3  C   UNL     1       1.996   8.943  18.083  0.00  0.00    +0.000 A 
ATOM      4  C   UNL     1       1.387   8.861  19.344  0.00  0.00    +0.000 A 
ATOM      5  C   UNL     1       1.724   7.726  20.104  0.00  0.00    +0.000 A 
ATOM      6  F   UNL     1       1.178   7.518  21.313  0.00  0.00    +0.000 F 
ATOM      7  C   UNL     1       2.582   6.726  19.632  0.00  0.00    +0.000 A 
ENDROOT
BRANCH   4   8
ATOM      8  N   UNL     1       0.512   9.847  19.774  0.00  0.00    +0.000 N 
ATOM      9  C   UNL     1      -0.543  10.352  18.883  0.00  0.00    +0.000 C 
ATOM     10  C   UNL     1      -0.436  11.869  18.657  0.00  0.00    +0.000 C 
ATOM     11  N   UNL     1      -0.872  12.641  19.830  0.00  0.00    +0.000 NA
ATOM     12  N   UNL     1       0.148  12.878  20.786  0.00  0.00    +0.000 N 
ATOM     13  C   UNL     1       0.258  14.147  21.369  0.00  0.00    +0.000 C 
ATOM     14  O   UNL     1       1.089  14.428  22.235  0.00  0.00    +0.000 OA
ATOM     15  C   UNL     1       1.122  11.835  21.133  0.00  0.00    +0.000 C 
ATOM     16  C   UNL     1       0.575  10.400  21.137  0.00  0.00    +0.000 C 
ATOM     17  H   UNL     1      -1.643  12.157  20.295  0.00  0.00    +0.000 HD
BRANCH  13  18
ATOM     18  C   UNL     1      -0.772  15.190  20.907  0.00  0.00    +0.000 C 
BRANCH  18  19
ATOM     19  O   UNL     1      -2.115  14.804  21.170  0.00  0.00    +0.000 OA
ATOM     20  H   UNL     1      -2.506  14.590  20.300  0.00  0.00    +0.000 HD
ENDBRANCH  18  19
ENDBRANCH  13  18
ENDBRANCH   4   8
BRANCH   1  23
ATOM     21  C   UNL     1       5.842   4.517  17.439  0.00  0.00    +0.000 C 
ATOM     22  C   UNL     1       5.372   5.946  17.597  0.00  0.00    +0.000 C 
ATOM     23  N   UNL     1       3.975   5.786  17.863  0.00  0.00    +0.000 N 
ATOM     24  C   UNL     1       3.571   4.517  17.486  0.00  0.00    +0.000 C 
ATOM     25  O   UNL     1       2.441   4.054  17.456  0.00  0.00    +0.000 OA
ATOM     26  O   UNL     1       4.657   3.792  17.073  0.00  0.00    +0.000 OA
BRANCH  21  27
ATOM     27  C   UNL     1       6.894   4.374  16.346  0.00  0.00    +0.000 C 
BRANCH  27  31
ATOM     28  C   UNL     1       6.010   3.607  12.750  0.00  0.00    +0.000 C 
ATOM     29  C   UNL     1       6.654   4.338  13.891  0.00  0.00    +0.000 C 
ATOM     30  O   UNL     1       7.382   5.315  13.741  0.00  0.00    +0.000 OA
ATOM     31  N   UNL     1       6.339   3.816  15.125  0.00  0.00    +0.000 N 
ATOM     32  H   UNL     1       5.963   2.875  15.168  0.00  0.00    +0.000 HD
ENDBRANCH  27  31
ENDBRANCH  21  27
ENDBRANCH   1  23
TORSDOF 6
ENDMDL
MODEL 8
REMARK VINA RESULT:      -7.6      2.122      2.703
REMARK  Name = 
REMARK  7 active torsions:
REMARK  status: ('A' for Active; 'I' for Inactive)
REMARK    1  A    between atoms: C_1  and  C_2
REMARK    2  A    between atoms: N_4  and  C_5
REMARK    3  A    between atoms: C_5  and  C_6
REMARK    4  A    between atoms: N_8  and  C_9
REMARK    5  A    between atoms: C_12  and  N_13
REMARK    6  A    between atoms: C_18  and  C_20
REMARK    7  A    between atoms: C_20  and  O_21
REMARK                            x       y       z     vdW  Elec       q    Type
REMARK                         _______ _______ _______ _____ _____    ______ ____
ROOT
ATOM      1  C   UNL     1       2.773   7.115  18.751  0.00  0.00    +0.000 A 
ATOM      2  C   UNL     1       2.126   7.271  19.976  0.00  0.00    +0.000 A 
ATOM      3  C   UNL     1       1.386   8.428  20.261  0.00  0.00    +0.000 A 
ATOM      4  C   UNL     1       1.248   9.476  19.339  0.00  0.00    +0.000 A 
ATOM      5  C   UNL     1       1.885   9.279  18.100  0.00  0.00    +0.000 A 
ATOM      6  F   UNL     1       1.855  10.226  17.149  0.00  0.00    +0.000 F 
ATOM      7  C   UNL     1       2.634   8.133  17.809  0.00  0.00    +0.000 A 
ENDROOT
BRANCH   4   8
ATOM      8  N   UNL     1       0.531  10.618  19.666  0.00  0.00    +0.000 N 
ATOM      9  C   UNL     1       1.176  11.939  19.639  0.00  0.00    +0.000 C 
ATOM     10  C   UNL     1       1.105  12.648  21.002  0.00  0.00    +0.000 C 
ATOM     11  N   UNL     1      -0.241  13.162  21.295  0.00  0.00    +0.000 NA
ATOM     12  N   UNL     1      -1.101  12.226  21.922  0.00  0.00    +0.000 N 
ATOM     13  C   UNL     1      -1.909  12.645  22.987  0.00  0.00    +0.000 C 
ATOM     14  O   UNL     1      -2.713  11.908  23.562  0.00  0.00    +0.000 OA
ATOM     15  C   UNL     1      -1.118  10.816  21.513  0.00  0.00    +0.000 C 
ATOM     16  C   UNL     1      -0.898  10.564  20.014  0.00  0.00    +0.000 C 
ATOM     17  H   UNL     1      -0.685  13.479  20.431  0.00  0.00    +0.000 HD
BRANCH  13  18
ATOM     18  C   UNL     1      -1.786  14.126  23.380  0.00  0.00    +0.000 C 
BRANCH  18  19
ATOM     19  O   UNL     1      -0.507  14.462  23.902  0.00  0.00    +0.000 OA
ATOM     20  H   UNL     1      -0.600  15.359  24.279  0.00  0.00    +0.000 HD
ENDBRANCH  18  19
ENDBRANCH  13  18
ENDBRANCH   4   8
BRANCH   1  23
ATOM     21  C   UNL     1       5.376   4.557  18.506  0.00  0.00    +0.000 C 
ATOM     22  C   UNL     1       5.008   6.023  18.475  0.00  0.00    +0.000 C 
ATOM     23  N   UNL     1       3.577   5.986  18.483  0.00  0.00    +0.000 N 
ATOM     24  C   UNL     1       3.142   4.721  18.124  0.00  0.00    +0.000 C 
ATOM     25  O   UNL     1       2.001   4.338  17.913  0.00  0.00    +0.000 OA
ATOM     26  O   UNL     1       4.219   3.889  17.973  0.00  0.00    +0.000 OA
BRANCH  21  27
ATOM     27  C   UNL     1       6.593   4.249  17.643  0.00  0.00    +0.000 C 
BRANCH  27  31
ATOM     28  C   UNL     1       6.238   3.928  13.892  0.00  0.00    +0.000 C 
ATOM     29  C   UNL     1       6.710   4.508  15.193  0.00  0.00    +0.000 C 
ATOM     30  O   UNL     1       7.451   5.483  15.266  0.00  0.00    +0.000 OA
ATOM     31  N   UNL     1       6.221   3.848  16.297  0.00  0.00    +0.000 N 
ATOM     32  H   UNL     1       5.843   2.915  16.173  0.00  0.00    +0.000 HD
ENDBRANCH  27  31
ENDBRANCH  21  27
ENDBRANCH   1  23
TORSDOF 6
ENDMDL
MODEL 9
REMARK VINA RESULT:      -7.6      2.532      3.577
REMARK  Name = 
REMARK  7 active torsions:
REMARK  status: ('A' for Active; 'I' for Inactive)
REMARK    1  A    between atoms: C_1  and  C_2
REMARK    2  A    between atoms: N_4  and  C_5
REMARK    3  A    between atoms: C_5  and  C_6
REMARK    4  A    between atoms: N_8  and  C_9
REMARK    5  A    between atoms: C_12  and  N_13
REMARK    6  A    between atoms: C_18  and  C_20
REMARK    7  A    between atoms: C_20  and  O_21
REMARK                            x       y       z     vdW  Elec       q    Type
REMARK                         _______ _______ _______ _____ _____    ______ ____
ROOT
ATOM      1  C   UNL     1       2.552   7.239  18.474  0.00  0.00    +0.000 A 
ATOM      2  C   UNL     1       2.467   8.302  17.576  0.00  0.00    +0.000 A 
ATOM      3  C   UNL     1       1.835   9.501  17.934  0.00  0.00    +0.000 A 
ATOM      4  C   UNL     1       1.267   9.702  19.201  0.00  0.00    +0.000 A 
ATOM      5  C   UNL     1       1.394   8.624  20.097  0.00  0.00    +0.000 A 
ATOM      6  F   UNL     1       0.861   8.682  21.327  0.00  0.00    +0.000 F 
ATOM      7  C   UNL     1       2.014   7.419  19.747  0.00  0.00    +0.000 A 
ENDROOT
BRANCH   4   8
ATOM      8  N   UNL     1       0.625  10.892  19.511  0.00  0.00    +0.000 N 
ATOM      9  C   UNL     1       0.971  11.632  20.733  0.00  0.00    +0.000 C 
ATOM     10  C   UNL     1      -0.244  11.834  21.654  0.00  0.00    +0.000 C 
ATOM     11  N   UNL     1      -1.172  12.852  21.139  0.00  0.00    +0.000 NA
ATOM     12  N   UNL     1      -2.146  12.353  20.238  0.00  0.00    +0.000 N 
ATOM     13  C   UNL     1      -3.472  12.789  20.353  0.00  0.00    +0.000 C 
ATOM     14  O   UNL     1      -4.373  12.437  19.588  0.00  0.00    +0.000 OA
ATOM     15  C   UNL     1      -1.800  11.348  19.224  0.00  0.00    +0.000 C 
ATOM     16  C   UNL     1      -0.392  11.479  18.623  0.00  0.00    +0.000 C 
ATOM     17  H   UNL     1      -0.647  13.592  20.669  0.00  0.00    +0.000 HD
BRANCH  13  18
ATOM     18  C   UNL     1      -3.751  13.801  21.475  0.00  0.00    +0.000 C 
BRANCH  18  19
ATOM     19  O   UNL     1      -3.638  13.239  22.777  0.00  0.00    +0.000 OA
ATOM     20  H   UNL     1      -4.518  12.869  22.986  0.00  0.00    +0.000 HD
ENDBRANCH  18  19
ENDBRANCH  13  18
ENDBRANCH   4   8
BRANCH   1  23
ATOM     21  C   UNL     1       3.310   3.871  17.263  0.00  0.00    +0.000 C 
ATOM     22  C   UNL     1       2.383   4.779  18.039  0.00  0.00    +0.000 C 
ATOM     23  N   UNL     1       3.124   6.003  18.099  0.00  0.00    +0.000 N 
ATOM     24  C   UNL     1       4.455   5.757  17.808  0.00  0.00    +0.000 C 
ATOM     25  O   UNL     1       5.403   6.525  17.868  0.00  0.00    +0.000 OA
ATOM     26  O   UNL     1       4.615   4.442  17.462  0.00  0.00    +0.000 OA
BRANCH  21  27
ATOM     27  C   UNL     1       3.287   2.440  17.786  0.00  0.00    +0.000 C 
BRANCH  27  31
ATOM     28  C   UNL     1       2.820   2.369  21.538  0.00  0.00    +0.000 C 
ATOM     29  C   UNL     1       3.564   2.439  20.237  0.00  0.00    +0.000 C 
ATOM     30  O   UNL     1       4.785   2.543  20.164  0.00  0.00    +0.000 OA
ATOM     31  N   UNL     1       2.747   2.360  19.133  0.00  0.00    +0.000 N 
ATOM     32  H   UNL     1       1.757   2.541  19.252  0.00  0.00    +0.000 HD
ENDBRANCH  27  31
ENDBRANCH  21  27
ENDBRANCH   1  23
TORSDOF 6
ENDMDL
