MODEL 1
REMARK VINA RESULT:      -8.3      0.000      0.000
REMARK  Name = 
REMARK  13 active torsions:
REMARK  status: ('A' for Active; 'I' for Inactive)
REMARK    1  A    between atoms: C_1  and  C_2
REMARK    2  A    between atoms: C_2  and  C_3
REMARK    3  A    between atoms: C_2  and  C_4
REMARK    4  A    between atoms: C_2  and  C_5
REMARK    5  A    between atoms: C_8  and  C_9
REMARK    6  A    between atoms: C_9  and  C_10
REMARK    7  A    between atoms: C_10  and  N_11
REMARK    8  A    between atoms: C_12  and  S_13
REMARK    9  A    between atoms: N_14  and  C_15
REMARK   10  A    between atoms: C_15  and  C_16
REMARK   11  A    between atoms: C_19  and  N_20
REMARK   12  A    between atoms: N_20  and  S_21
REMARK   13  A    between atoms: S_21  and  C_22
REMARK                            x       y       z     vdW  Elec       q    Type
REMARK                         _______ _______ _______ _____ _____    ______ ____
ROOT
ATOM      1  N   UNL     1       7.554   6.451  16.632  0.00  0.00    +0.000 NA
ATOM      2  C   UNL     1       7.725   6.718  17.876  0.00  0.00    +0.000 C 
ATOM      3  N   UNL     1       8.238   7.905  18.310  0.00  0.00    +0.000 N 
ATOM      4  H   UNL     1       8.218   8.017  19.317  0.00  0.00    +0.000 HD
ENDROOT
BRANCH   2   5
ATOM      5  S   UNL     1       7.355   5.680  19.240  0.00  0.00    +0.000 S 
ATOM      6  H   UNL     1       8.581   5.238  19.525  0.00  0.00    +0.000 HD
ENDBRANCH   2   5
BRANCH   1   7
ATOM      7  C   UNL     1       7.002   5.194  16.145  0.00  0.00    +0.000 C 
BRANCH   7   8
ATOM      8  C   UNL     1       5.570   5.411  15.645  0.00  0.00    +0.000 C 
BRANCH   8  12
ATOM      9  C   UNL     1       2.858   4.140  18.807  0.00  0.00    +0.000 A 
ATOM     10  C   UNL     1       3.111   5.499  18.554  0.00  0.00    +0.000 A 
ATOM     11  C   UNL     1       3.962   5.905  17.521  0.00  0.00    +0.000 A 
ATOM     12  C   UNL     1       4.585   4.964  16.700  0.00  0.00    +0.000 A 
ATOM     13  C   UNL     1       4.344   3.608  16.931  0.00  0.00    +0.000 A 
ATOM     14  C   UNL     1       3.497   3.205  17.970  0.00  0.00    +0.000 A 
BRANCH   9  16
ATOM     15  C   UNL     1       2.616   2.792  20.993  0.00  0.00    +0.000 C 
ATOM     16  C   UNL     1       1.916   3.670  19.929  0.00  0.00    +0.000 C 
ATOM     17  C   UNL     1       0.756   2.837  19.343  0.00  0.00    +0.000 C 
ATOM     18  C   UNL     1       1.335   4.900  20.661  0.00  0.00    +0.000 C 
ENDBRANCH   9  16
ENDBRANCH   8  12
ENDBRANCH   7   8
ENDBRANCH   1   7
BRANCH   3  19
ATOM     19  C   UNL     1       8.084   9.139  17.572  0.00  0.00    +0.000 C 
BRANCH  19  20
ATOM     20  C   UNL     1       8.699  10.271  18.361  0.00  0.00    +0.000 A 
ATOM     21  C   UNL     1       9.197  10.070  19.658  0.00  0.00    +0.000 A 
ATOM     22  C   UNL     1       9.771  11.128  20.374  0.00  0.00    +0.000 A 
ATOM     23  C   UNL     1       9.827  12.400  19.811  0.00  0.00    +0.000 A 
ATOM     24  C   UNL     1       9.326  12.604  18.526  0.00  0.00    +0.000 A 
ATOM     25  F   UNL     1       9.397  13.822  17.964  0.00  0.00    +0.000 F 
ATOM     26  C   UNL     1       8.768  11.556  17.801  0.00  0.00    +0.000 A 
BRANCH  23  27
ATOM     27  N   UNL     1      10.445  13.462  20.537  0.00  0.00    +0.000 N 
ATOM     28  H   UNL     1      11.361  13.260  20.937  0.00  0.00    +0.000 HD
BRANCH  27  29
ATOM     29  S   UNL     1       9.480  14.384  21.565  0.00  0.00    +0.000 S 
ATOM     30  C   UNL     1      10.569  15.685  22.121  0.00  0.00    +0.000 C 
ATOM     31  O   UNL     1       8.479  14.997  20.715  0.00  0.00    +0.000 OA
ATOM     32  O   UNL     1       9.102  13.581  22.705  0.00  0.00    +0.000 OA
ENDBRANCH  27  29
ENDBRANCH  23  27
ENDBRANCH  19  20
ENDBRANCH   3  19
TORSDOF 9
ENDMDL
MODEL 2
REMARK VINA RESULT:      -8.1      1.262      1.814
REMARK  Name = 
REMARK  13 active torsions:
REMARK  status: ('A' for Active; 'I' for Inactive)
REMARK    1  A    between atoms: C_1  and  C_2
REMARK    2  A    between atoms: C_2  and  C_3
REMARK    3  A    between atoms: C_2  and  C_4
REMARK    4  A    between atoms: C_2  and  C_5
REMARK    5  A    between atoms: C_8  and  C_9
REMARK    6  A    between atoms: C_9  and  C_10
REMARK    7  A    between atoms: C_10  and  N_11
REMARK    8  A    between atoms: C_12  and  S_13
REMARK    9  A    between atoms: N_14  and  C_15
REMARK   10  A    between atoms: C_15  and  C_16
REMARK   11  A    between atoms: C_19  and  N_20
REMARK   12  A    between atoms: N_20  and  S_21
REMARK   13  A    between atoms: S_21  and  C_22
REMARK                            x       y       z     vdW  Elec       q    Type
REMARK                         _______ _______ _______ _____ _____    ______ ____
ROOT
ATOM      1  N   UNL     1       7.400   6.630  16.741  0.00  0.00    +0.000 NA
ATOM      2  C   UNL     1       7.778   6.740  17.964  0.00  0.00    +0.000 C 
ATOM      3  N   UNL     1       8.271   7.902  18.479  0.00  0.00    +0.000 N 
ATOM      4  H   UNL     1       8.429   7.872  19.480  0.00  0.00    +0.000 HD
ENDROOT
BRANCH   2   5
ATOM      5  S   UNL     1       7.744   5.493  19.196  0.00  0.00    +0.000 S 
ATOM      6  H   UNL     1       8.994   5.037  19.088  0.00  0.00    +0.000 HD
ENDBRANCH   2   5
BRANCH   1   7
ATOM      7  C   UNL     1       6.865   5.402  16.170  0.00  0.00    +0.000 C 
BRANCH   7   8
ATOM      8  C   UNL     1       5.390   5.597  15.803  0.00  0.00    +0.000 C 
BRANCH   8  12
ATOM      9  C   UNL     1       2.714   4.005  18.849  0.00  0.00    +0.000 A 
ATOM     10  C   UNL     1       3.145   3.223  17.764  0.00  0.00    +0.000 A 
ATOM     11  C   UNL     1       4.026   3.728  16.802  0.00  0.00    +0.000 A 
ATOM     12  C   UNL     1       4.510   5.034  16.896  0.00  0.00    +0.000 A 
ATOM     13  C   UNL     1       4.098   5.827  17.968  0.00  0.00    +0.000 A 
ATOM     14  C   UNL     1       3.211   5.320  18.926  0.00  0.00    +0.000 A 
BRANCH   9  16
ATOM     15  C   UNL     1       0.763   2.408  19.393  0.00  0.00    +0.000 C 
ATOM     16  C   UNL     1       1.756   3.466  19.926  0.00  0.00    +0.000 C 
ATOM     17  C   UNL     1       0.919   4.617  20.523  0.00  0.00    +0.000 C 
ATOM     18  C   UNL     1       2.574   2.800  21.054  0.00  0.00    +0.000 C 
ENDBRANCH   9  16
ENDBRANCH   8  12
ENDBRANCH   7   8
ENDBRANCH   1   7
BRANCH   3  19
ATOM     19  C   UNL     1       7.892   9.204  17.976  0.00  0.00    +0.000 C 
BRANCH  19  20
ATOM     20  C   UNL     1       8.894  10.231  18.447  0.00  0.00    +0.000 A 
ATOM     21  C   UNL     1       9.143  10.435  19.813  0.00  0.00    +0.000 A 
ATOM     22  C   UNL     1      10.080  11.387  20.233  0.00  0.00    +0.000 A 
ATOM     23  C   UNL     1      10.757  12.160  19.294  0.00  0.00    +0.000 A 
ATOM     24  C   UNL     1      10.507  11.964  17.936  0.00  0.00    +0.000 A 
ATOM     25  F   UNL     1      11.171  12.687  17.020  0.00  0.00    +0.000 F 
ATOM     26  C   UNL     1       9.588  11.011  17.508  0.00  0.00    +0.000 A 
BRANCH  23  27
ATOM     27  N   UNL     1      11.735  13.101  19.733  0.00  0.00    +0.000 N 
ATOM     28  H   UNL     1      12.449  12.746  20.368  0.00  0.00    +0.000 HD
BRANCH  27  29
ATOM     29  S   UNL     1      11.214  14.648  20.149  0.00  0.00    +0.000 S 
ATOM     30  C   UNL     1       9.986  15.035  18.912  0.00  0.00    +0.000 C 
ATOM     31  O   UNL     1      10.517  14.499  21.411  0.00  0.00    +0.000 OA
ATOM     32  O   UNL     1      12.316  15.572  20.009  0.00  0.00    +0.000 OA
ENDBRANCH  27  29
ENDBRANCH  23  27
ENDBRANCH  19  20
ENDBRANCH   3  19
TORSDOF 9
ENDMDL
MODEL 3
REMARK VINA RESULT:      -7.9      1.687      2.306
REMARK  Name = 
REMARK  13 active torsions:
REMARK  status: ('A' for Active; 'I' for Inactive)
REMARK    1  A    between atoms: C_1  and  C_2
REMARK    2  A    between atoms: C_2  and  C_3
REMARK    3  A    between atoms: C_2  and  C_4
REMARK    4  A    between atoms: C_2  and  C_5
REMARK    5  A    between atoms: C_8  and  C_9
REMARK    6  A    between atoms: C_9  and  C_10
REMARK    7  A    between atoms: C_10  and  N_11
REMARK    8  A    between atoms: C_12  and  S_13
REMARK    9  A    between atoms: N_14  and  C_15
REMARK   10  A    between atoms: C_15  and  C_16
REMARK   11  A    between atoms: C_19  and  N_20
REMARK   12  A    between atoms: N_20  and  S_21
REMARK   13  A    between atoms: S_21  and  C_22
REMARK                            x       y       z     vdW  Elec       q    Type
REMARK                         _______ _______ _______ _____ _____    ______ ____
ROOT
ATOM      1  N   UNL     1       7.650   6.555  16.834  0.00  0.00    +0.000 NA
ATOM      2  C   UNL     1       7.889   6.915  18.043  0.00  0.00    +0.000 C 
ATOM      3  N   UNL     1       8.304   8.173  18.367  0.00  0.00    +0.000 N 
ATOM      4  H   UNL     1       8.352   8.344  19.365  0.00  0.00    +0.000 HD
ENDROOT
BRANCH   2   5
ATOM      5  S   UNL     1       7.743   5.930  19.486  0.00  0.00    +0.000 S 
ATOM      6  H   UNL     1       7.959   6.862  20.416  0.00  0.00    +0.000 HD
ENDBRANCH   2   5
BRANCH   1   7
ATOM      7  C   UNL     1       7.201   5.221  16.463  0.00  0.00    +0.000 C 
BRANCH   7   8
ATOM      8  C   UNL     1       5.770   5.283  15.918  0.00  0.00    +0.000 C 
BRANCH   8  12
ATOM      9  C   UNL     1       2.825   4.049  18.881  0.00  0.00    +0.000 A 
ATOM     10  C   UNL     1       3.343   3.147  17.936  0.00  0.00    +0.000 A 
ATOM     11  C   UNL     1       4.309   3.539  17.003  0.00  0.00    +0.000 A 
ATOM     12  C   UNL     1       4.794   4.848  16.987  0.00  0.00    +0.000 A 
ATOM     13  C   UNL     1       4.295   5.760  17.919  0.00  0.00    +0.000 A 
ATOM     14  C   UNL     1       3.324   5.366  18.848  0.00  0.00    +0.000 A 
BRANCH   9  16
ATOM     15  C   UNL     1       0.653   2.739  19.349  0.00  0.00    +0.000 C 
ATOM     16  C   UNL     1       1.772   3.637  19.925  0.00  0.00    +0.000 C 
ATOM     17  C   UNL     1       1.092   4.887  20.522  0.00  0.00    +0.000 C 
ATOM     18  C   UNL     1       2.458   2.844  21.059  0.00  0.00    +0.000 C 
ENDBRANCH   9  16
ENDBRANCH   8  12
ENDBRANCH   7   8
ENDBRANCH   1   7
BRANCH   3  19
ATOM     19  C   UNL     1       7.959   9.337  17.581  0.00  0.00    +0.000 C 
BRANCH  19  20
ATOM     20  C   UNL     1       8.590  10.561  18.201  0.00  0.00    +0.000 A 
ATOM     21  C   UNL     1       8.323  11.848  17.709  0.00  0.00    +0.000 A 
ATOM     22  C   UNL     1       8.910  12.974  18.299  0.00  0.00    +0.000 A 
ATOM     23  C   UNL     1       9.789  12.821  19.367  0.00  0.00    +0.000 A 
ATOM     24  C   UNL     1      10.062  11.543  19.855  0.00  0.00    +0.000 A 
ATOM     25  F   UNL     1      10.889  11.386  20.900  0.00  0.00    +0.000 F 
ATOM     26  C   UNL     1       9.472  10.419  19.284  0.00  0.00    +0.000 A 
BRANCH  23  27
ATOM     27  N   UNL     1      10.353  13.979  19.983  0.00  0.00    +0.000 N 
ATOM     28  H   UNL     1       9.701  14.596  20.464  0.00  0.00    +0.000 HD
BRANCH  27  29
ATOM     29  S   UNL     1      11.539  14.825  19.137  0.00  0.00    +0.000 S 
ATOM     30  C   UNL     1      10.626  16.082  18.259  0.00  0.00    +0.000 C 
ATOM     31  O   UNL     1      12.332  15.499  20.147  0.00  0.00    +0.000 OA
ATOM     32  O   UNL     1      12.153  13.942  18.172  0.00  0.00    +0.000 OA
ENDBRANCH  27  29
ENDBRANCH  23  27
ENDBRANCH  19  20
ENDBRANCH   3  19
TORSDOF 9
ENDMDL
MODEL 4
REMARK VINA RESULT:      -7.2      5.654      8.831
REMARK  Name = 
REMARK  13 active torsions:
REMARK  status: ('A' for Active; 'I' for Inactive)
REMARK    1  A    between atoms: C_1  and  C_2
REMARK    2  A    between atoms: C_2  and  C_3
REMARK    3  A    between atoms: C_2  and  C_4
REMARK    4  A    between atoms: C_2  and  C_5
REMARK    5  A    between atoms: C_8  and  C_9
REMARK    6  A    between atoms: C_9  and  C_10
REMARK    7  A    between atoms: C_10  and  N_11
REMARK    8  A    between atoms: C_12  and  S_13
REMARK    9  A    between atoms: N_14  and  C_15
REMARK   10  A    between atoms: C_15  and  C_16
REMARK   11  A    between atoms: C_19  and  N_20
REMARK   12  A    between atoms: N_20  and  S_21
REMARK   13  A    between atoms: S_21  and  C_22
REMARK                            x       y       z     vdW  Elec       q    Type
REMARK                         _______ _______ _______ _____ _____    ______ ____
ROOT
ATOM      1  N   UNL     1       1.240   4.728  20.129  0.00  0.00    +0.000 NA
ATOM      2  C   UNL     1       1.148   3.508  20.519  0.00  0.00    +0.000 C 
ATOM      3  N   UNL     1       0.651   2.517  19.726  0.00  0.00    +0.000 N 
ATOM      4  H   UNL     1       0.736   1.590  20.126  0.00  0.00    +0.000 HD
ENDROOT
BRANCH   2   5
ATOM      5  S   UNL     1       1.618   2.861  22.080  0.00  0.00    +0.000 S 
ATOM      6  H   UNL     1       0.434   2.416  22.504  0.00  0.00    +0.000 HD
ENDBRANCH   2   5
BRANCH   1   7
ATOM      7  C   UNL     1       1.772   5.802  20.955  0.00  0.00    +0.000 C 
BRANCH   7   8
ATOM      8  C   UNL     1       2.590   6.769  20.092  0.00  0.00    +0.000 C 
BRANCH   8  12
ATOM      9  C   UNL     1       0.142  10.285  19.307  0.00  0.00    +0.000 A 
ATOM     10  C   UNL     1       0.161   9.667  20.568  0.00  0.00    +0.000 A 
ATOM     11  C   UNL     1       0.969   8.555  20.826  0.00  0.00    +0.000 A 
ATOM     12  C   UNL     1       1.790   8.025  19.829  0.00  0.00    +0.000 A 
ATOM     13  C   UNL     1       1.789   8.626  18.569  0.00  0.00    +0.000 A 
ATOM     14  C   UNL     1       0.975   9.736  18.313  0.00  0.00    +0.000 A 
BRANCH   9  16
ATOM     15  C   UNL     1       0.087  12.751  18.549  0.00  0.00    +0.000 C 
ATOM     16  C   UNL     1      -0.728  11.518  19.004  0.00  0.00    +0.000 C 
ATOM     17  C   UNL     1      -1.521  11.936  20.261  0.00  0.00    +0.000 C 
ATOM     18  C   UNL     1      -1.720  11.180  17.870  0.00  0.00    +0.000 C 
ENDBRANCH   9  16
ENDBRANCH   8  12
ENDBRANCH   7   8
ENDBRANCH   1   7
BRANCH   3  19
ATOM     19  C   UNL     1       0.743   2.552  18.283  0.00  0.00    +0.000 C 
BRANCH  19  20
ATOM     20  C   UNL     1       2.149   2.932  17.883  0.00  0.00    +0.000 A 
ATOM     21  C   UNL     1       3.195   1.996  17.915  0.00  0.00    +0.000 A 
ATOM     22  C   UNL     1       4.492   2.362  17.534  0.00  0.00    +0.000 A 
ATOM     23  C   UNL     1       4.760   3.671  17.145  0.00  0.00    +0.000 A 
ATOM     24  C   UNL     1       3.724   4.606  17.119  0.00  0.00    +0.000 A 
ATOM     25  F   UNL     1       3.966   5.865  16.723  0.00  0.00    +0.000 F 
ATOM     26  C   UNL     1       2.429   4.247  17.482  0.00  0.00    +0.000 A 
BRANCH  23  27
ATOM     27  N   UNL     1       6.078   4.023  16.726  0.00  0.00    +0.000 N 
ATOM     28  H   UNL     1       6.558   3.346  16.135  0.00  0.00    +0.000 HD
BRANCH  27  29
ATOM     29  S   UNL     1       7.103   4.736  17.857  0.00  0.00    +0.000 S 
ATOM     30  C   UNL     1       7.221   6.434  17.320  0.00  0.00    +0.000 C 
ATOM     31  O   UNL     1       6.369   4.732  19.107  0.00  0.00    +0.000 OA
ATOM     32  O   UNL     1       8.411   4.129  17.756  0.00  0.00    +0.000 OA
ENDBRANCH  27  29
ENDBRANCH  23  27
ENDBRANCH  19  20
ENDBRANCH   3  19
TORSDOF 9
ENDMDL
MODEL 5
REMARK VINA RESULT:      -7.2      5.290      6.256
REMARK  Name = 
REMARK  13 active torsions:
REMARK  status: ('A' for Active; 'I' for Inactive)
REMARK    1  A    between atoms: C_1  and  C_2
REMARK    2  A    between atoms: C_2  and  C_3
REMARK    3  A    between atoms: C_2  and  C_4
REMARK    4  A    between atoms: C_2  and  C_5
REMARK    5  A    between atoms: C_8  and  C_9
REMARK    6  A    between atoms: C_9  and  C_10
REMARK    7  A    between atoms: C_10  and  N_11
REMARK    8  A    between atoms: C_12  and  S_13
REMARK    9  A    between atoms: N_14  and  C_15
REMARK   10  A    between atoms: C_15  and  C_16
REMARK   11  A    between atoms: C_19  and  N_20
REMARK   12  A    between atoms: N_20  and  S_21
REMARK   13  A    between atoms: S_21  and  C_22
REMARK                            x       y       z     vdW  Elec       q    Type
REMARK                         _______ _______ _______ _____ _____    ______ ____
ROOT
ATOM      1  N   UNL     1       4.928   6.037  16.110  0.00  0.00    +0.000 NA
ATOM      2  C   UNL     1       5.221   6.946  16.968  0.00  0.00    +0.000 C 
ATOM      3  N   UNL     1       4.270   7.651  17.646  0.00  0.00    +0.000 N 
ATOM      4  H   UNL     1       4.646   8.259  18.365  0.00  0.00    +0.000 HD
ENDROOT
BRANCH   2   5
ATOM      5  S   UNL     1       6.825   7.466  17.451  0.00  0.00    +0.000 S 
ATOM      6  H   UNL     1       6.972   6.738  18.559  0.00  0.00    +0.000 HD
ENDBRANCH   2   5
BRANCH   1   7
ATOM      7  C   UNL     1       5.925   5.268  15.378  0.00  0.00    +0.000 C 
BRANCH   7   8
ATOM      8  C   UNL     1       5.896   3.806  15.836  0.00  0.00    +0.000 C 
BRANCH   8  12
ATOM      9  C   UNL     1       3.037   3.513  19.109  0.00  0.00    +0.000 A 
ATOM     10  C   UNL     1       2.643   3.355  17.770  0.00  0.00    +0.000 A 
ATOM     11  C   UNL     1       3.567   3.423  16.722  0.00  0.00    +0.000 A 
ATOM     12  C   UNL     1       4.921   3.645  16.980  0.00  0.00    +0.000 A 
ATOM     13  C   UNL     1       5.335   3.802  18.304  0.00  0.00    +0.000 A 
ATOM     14  C   UNL     1       4.406   3.739  19.351  0.00  0.00    +0.000 A 
BRANCH   9  16
ATOM     15  C   UNL     1       0.685   2.795  19.888  0.00  0.00    +0.000 C 
ATOM     16  C   UNL     1       2.040   3.429  20.278  0.00  0.00    +0.000 C 
ATOM     17  C   UNL     1       1.740   4.840  20.829  0.00  0.00    +0.000 C 
ATOM     18  C   UNL     1       2.643   2.564  21.407  0.00  0.00    +0.000 C 
ENDBRANCH   9  16
ENDBRANCH   8  12
ENDBRANCH   7   8
ENDBRANCH   1   7
BRANCH   3  19
ATOM     19  C   UNL     1       2.964   7.110  17.949  0.00  0.00    +0.000 C 
BRANCH  19  20
ATOM     20  C   UNL     1       2.103   8.195  18.552  0.00  0.00    +0.000 A 
ATOM     21  C   UNL     1       1.633   9.268  17.779  0.00  0.00    +0.000 A 
ATOM     22  C   UNL     1       0.831  10.262  18.352  0.00  0.00    +0.000 A 
ATOM     23  C   UNL     1       0.514  10.207  19.706  0.00  0.00    +0.000 A 
ATOM     24  C   UNL     1       0.985   9.146  20.479  0.00  0.00    +0.000 A 
ATOM     25  F   UNL     1       0.666   9.069  21.780  0.00  0.00    +0.000 F 
ATOM     26  C   UNL     1       1.771   8.145  19.915  0.00  0.00    +0.000 A 
BRANCH  23  27
ATOM     27  N   UNL     1      -0.334  11.207  20.270  0.00  0.00    +0.000 N 
ATOM     28  H   UNL     1      -1.113  11.517  19.690  0.00  0.00    +0.000 HD
BRANCH  27  29
ATOM     29  S   UNL     1       0.390  12.475  21.110  0.00  0.00    +0.000 S 
ATOM     30  C   UNL     1      -0.177  13.935  20.255  0.00  0.00    +0.000 C 
ATOM     31  O   UNL     1      -0.230  12.479  22.421  0.00  0.00    +0.000 OA
ATOM     32  O   UNL     1       1.824  12.382  20.963  0.00  0.00    +0.000 OA
ENDBRANCH  27  29
ENDBRANCH  23  27
ENDBRANCH  19  20
ENDBRANCH   3  19
TORSDOF 9
ENDMDL
MODEL 6
REMARK VINA RESULT:      -7.1      1.286      1.833
REMARK  Name = 
REMARK  13 active torsions:
REMARK  status: ('A' for Active; 'I' for Inactive)
REMARK    1  A    between atoms: C_1  and  C_2
REMARK    2  A    between atoms: C_2  and  C_3
REMARK    3  A    between atoms: C_2  and  C_4
REMARK    4  A    between atoms: C_2  and  C_5
REMARK    5  A    between atoms: C_8  and  C_9
REMARK    6  A    between atoms: C_9  and  C_10
REMARK    7  A    between atoms: C_10  and  N_11
REMARK    8  A    between atoms: C_12  and  S_13
REMARK    9  A    between atoms: N_14  and  C_15
REMARK   10  A    between atoms: C_15  and  C_16
REMARK   11  A    between atoms: C_19  and  N_20
REMARK   12  A    between atoms: N_20  and  S_21
REMARK   13  A    between atoms: S_21  and  C_22
REMARK                            x       y       z     vdW  Elec       q    Type
REMARK                         _______ _______ _______ _____ _____    ______ ____
ROOT
ATOM      1  N   UNL     1       7.655   6.264  17.215  0.00  0.00    +0.000 NA
ATOM      2  C   UNL     1       8.026   6.684  18.370  0.00  0.00    +0.000 C 
ATOM      3  N   UNL     1       8.422   7.970  18.594  0.00  0.00    +0.000 N 
ATOM      4  H   UNL     1       8.584   8.184  19.571  0.00  0.00    +0.000 HD
ENDROOT
BRANCH   2   5
ATOM      5  S   UNL     1       8.101   5.755  19.856  0.00  0.00    +0.000 S 
ATOM      6  H   UNL     1       8.090   4.521  19.350  0.00  0.00    +0.000 HD
ENDBRANCH   2   5
BRANCH   1   7
ATOM      7  C   UNL     1       7.223   4.899  16.952  0.00  0.00    +0.000 C 
BRANCH   7   8
ATOM      8  C   UNL     1       5.885   4.909  16.204  0.00  0.00    +0.000 C 
BRANCH   8  12
ATOM      9  C   UNL     1       2.742   3.762  18.993  0.00  0.00    +0.000 A 
ATOM     10  C   UNL     1       3.886   4.458  19.417  0.00  0.00    +0.000 A 
ATOM     11  C   UNL     1       4.881   4.849  18.516  0.00  0.00    +0.000 A 
ATOM     12  C   UNL     1       4.763   4.561  17.155  0.00  0.00    +0.000 A 
ATOM     13  C   UNL     1       3.632   3.874  16.711  0.00  0.00    +0.000 A 
ATOM     14  C   UNL     1       2.640   3.478  17.617  0.00  0.00    +0.000 A 
BRANCH   9  16
ATOM     15  C   UNL     1       0.612   2.348  19.341  0.00  0.00    +0.000 C 
ATOM     16  C   UNL     1       1.628   3.333  19.964  0.00  0.00    +0.000 C 
ATOM     17  C   UNL     1       0.832   4.565  20.444  0.00  0.00    +0.000 C 
ATOM     18  C   UNL     1       2.257   2.631  21.188  0.00  0.00    +0.000 C 
ENDBRANCH   9  16
ENDBRANCH   8  12
ENDBRANCH   7   8
ENDBRANCH   1   7
BRANCH   3  19
ATOM     19  C   UNL     1       7.933   9.085  17.814  0.00  0.00    +0.000 C 
BRANCH  19  20
ATOM     20  C   UNL     1       8.626  10.349  18.265  0.00  0.00    +0.000 A 
ATOM     21  C   UNL     1       8.416  11.570  17.606  0.00  0.00    +0.000 A 
ATOM     22  C   UNL     1       9.061  12.735  18.040  0.00  0.00    +0.000 A 
ATOM     23  C   UNL     1       9.940  12.684  19.119  0.00  0.00    +0.000 A 
ATOM     24  C   UNL     1      10.155  11.470  19.772  0.00  0.00    +0.000 A 
ATOM     25  F   UNL     1      10.982  11.414  20.828  0.00  0.00    +0.000 F 
ATOM     26  C   UNL     1       9.508  10.310  19.356  0.00  0.00    +0.000 A 
BRANCH  23  27
ATOM     27  N   UNL     1      10.563  13.884  19.574  0.00  0.00    +0.000 N 
ATOM     28  H   UNL     1      11.574  13.844  19.707  0.00  0.00    +0.000 HD
BRANCH  27  29
ATOM     29  S   UNL     1       9.788  14.772  20.777  0.00  0.00    +0.000 S 
ATOM     30  C   UNL     1       8.101  14.889  20.204  0.00  0.00    +0.000 C 
ATOM     31  O   UNL     1       9.784  13.919  21.949  0.00  0.00    +0.000 OA
ATOM     32  O   UNL     1      10.353  16.101  20.822  0.00  0.00    +0.000 OA
ENDBRANCH  27  29
ENDBRANCH  23  27
ENDBRANCH  19  20
ENDBRANCH   3  19
TORSDOF 9
ENDMDL
MODEL 7
REMARK VINA RESULT:      -7.0      7.352     10.442
REMARK  Name = 
REMARK  13 active torsions:
REMARK  status: ('A' for Active; 'I' for Inactive)
REMARK    1  A    between atoms: C_1  and  C_2
REMARK    2  A    between atoms: C_2  and  C_3
REMARK    3  A    between atoms: C_2  and  C_4
REMARK    4  A    between atoms: C_2  and  C_5
REMARK    5  A    between atoms: C_8  and  C_9
REMARK    6  A    between atoms: C_9  and  C_10
REMARK    7  A    between atoms: C_10  and  N_11
REMARK    8  A    between atoms: C_12  and  S_13
REMARK    9  A    between atoms: N_14  and  C_15
REMARK   10  A    between atoms: C_15  and  C_16
REMARK   11  A    between atoms: C_19  and  N_20
REMARK   12  A    between atoms: N_20  and  S_21
REMARK   13  A    between atoms: S_21  and  C_22
REMARK                            x       y       z     vdW  Elec       q    Type
REMARK                         _______ _______ _______ _____ _____    ______ ____
ROOT
ATOM      1  N   UNL     1       0.474   8.041  21.427  0.00  0.00    +0.000 NA
ATOM      2  C   UNL     1       1.265   8.323  20.455  0.00  0.00    +0.000 C 
ATOM      3  N   UNL     1       2.302   7.515  20.093  0.00  0.00    +0.000 N 
ATOM      4  H   UNL     1       2.774   7.809  19.245  0.00  0.00    +0.000 HD
ENDROOT
BRANCH   2   5
ATOM      5  S   UNL     1       1.199   9.734  19.415  0.00  0.00    +0.000 S 
ATOM      6  H   UNL     1       2.442   9.715  18.933  0.00  0.00    +0.000 HD
ENDBRANCH   2   5
BRANCH   1   7
ATOM      7  C   UNL     1      -0.643   8.884  21.829  0.00  0.00    +0.000 C 
BRANCH   7   8
ATOM      8  C   UNL     1      -0.170   9.928  22.847  0.00  0.00    +0.000 C 
BRANCH   8  12
ATOM      9  C   UNL     1      -2.403  13.594  22.110  0.00  0.00    +0.000 A 
ATOM     10  C   UNL     1      -2.779  12.692  23.120  0.00  0.00    +0.000 A 
ATOM     11  C   UNL     1      -2.044  11.529  23.373  0.00  0.00    +0.000 A 
ATOM     12  C   UNL     1      -0.904  11.231  22.625  0.00  0.00    +0.000 A 
ATOM     13  C   UNL     1      -0.511  12.115  21.619  0.00  0.00    +0.000 A 
ATOM     14  C   UNL     1      -1.252  13.276  21.364  0.00  0.00    +0.000 A 
BRANCH   9  16
ATOM     15  C   UNL     1      -4.396  14.676  20.880  0.00  0.00    +0.000 C 
ATOM     16  C   UNL     1      -3.188  14.886  21.823  0.00  0.00    +0.000 C 
ATOM     17  C   UNL     1      -2.270  15.935  21.160  0.00  0.00    +0.000 C 
ATOM     18  C   UNL     1      -3.735  15.460  23.148  0.00  0.00    +0.000 C 
ENDBRANCH   9  16
ENDBRANCH   8  12
ENDBRANCH   7   8
ENDBRANCH   1   7
BRANCH   3  19
ATOM     19  C   UNL     1       2.286   6.084  20.297  0.00  0.00    +0.000 C 
BRANCH  19  20
ATOM     20  C   UNL     1       3.157   5.422  19.255  0.00  0.00    +0.000 A 
ATOM     21  C   UNL     1       2.599   4.780  18.139  0.00  0.00    +0.000 A 
ATOM     22  C   UNL     1       3.421   4.178  17.178  0.00  0.00    +0.000 A 
ATOM     23  C   UNL     1       4.803   4.188  17.339  0.00  0.00    +0.000 A 
ATOM     24  C   UNL     1       5.360   4.819  18.451  0.00  0.00    +0.000 A 
ATOM     25  F   UNL     1       6.694   4.856  18.604  0.00  0.00    +0.000 F 
ATOM     26  C   UNL     1       4.553   5.434  19.404  0.00  0.00    +0.000 A 
BRANCH  23  27
ATOM     27  N   UNL     1       5.631   3.601  16.335  0.00  0.00    +0.000 N 
ATOM     28  H   UNL     1       6.210   2.816  16.632  0.00  0.00    +0.000 HD
BRANCH  27  29
ATOM     29  S   UNL     1       6.434   4.630  15.271  0.00  0.00    +0.000 S 
ATOM     30  C   UNL     1       6.278   3.818  13.689  0.00  0.00    +0.000 C 
ATOM     31  O   UNL     1       5.632   5.836  15.214  0.00  0.00    +0.000 OA
ATOM     32  O   UNL     1       7.834   4.680  15.627  0.00  0.00    +0.000 OA
ENDBRANCH  27  29
ENDBRANCH  23  27
ENDBRANCH  19  20
ENDBRANCH   3  19
TORSDOF 9
ENDMDL
MODEL 8
REMARK VINA RESULT:      -7.0      5.261      6.218
REMARK  Name = 
REMARK  13 active torsions:
REMARK  status: ('A' for Active; 'I' for Inactive)
REMARK    1  A    between atoms: C_1  and  C_2
REMARK    2  A    between atoms: C_2  and  C_3
REMARK    3  A    between atoms: C_2  and  C_4
REMARK    4  A    between atoms: C_2  and  C_5
REMARK    5  A    between atoms: C_8  and  C_9
REMARK    6  A    between atoms: C_9  and  C_10
REMARK    7  A    between atoms: C_10  and  N_11
REMARK    8  A    between atoms: C_12  and  S_13
REMARK    9  A    between atoms: N_14  and  C_15
REMARK   10  A    between atoms: C_15  and  C_16
REMARK   11  A    between atoms: C_19  and  N_20
REMARK   12  A    between atoms: N_20  and  S_21
REMARK   13  A    between atoms: S_21  and  C_22
REMARK                            x       y       z     vdW  Elec       q    Type
REMARK                         _______ _______ _______ _____ _____    ______ ____
ROOT
ATOM      1  N   UNL     1       4.857   6.129  16.151  0.00  0.00    +0.000 NA
ATOM      2  C   UNL     1       5.110   7.016  17.044  0.00  0.00    +0.000 C 
ATOM      3  N   UNL     1       4.130   7.691  17.710  0.00  0.00    +0.000 N 
ATOM      4  H   UNL     1       4.475   8.281  18.458  0.00  0.00    +0.000 HD
ENDROOT
BRANCH   2   5
ATOM      5  S   UNL     1       6.692   7.538  17.595  0.00  0.00    +0.000 S 
ATOM      6  H   UNL     1       7.424   7.188  16.535  0.00  0.00    +0.000 HD
ENDBRANCH   2   5
BRANCH   1   7
ATOM      7  C   UNL     1       5.885   5.391  15.431  0.00  0.00    +0.000 C 
BRANCH   7   8
ATOM      8  C   UNL     1       6.090   4.016  16.076  0.00  0.00    +0.000 C 
BRANCH   8  12
ATOM      9  C   UNL     1       2.940   3.471  19.034  0.00  0.00    +0.000 A 
ATOM     10  C   UNL     1       2.693   3.329  17.658  0.00  0.00    +0.000 A 
ATOM     11  C   UNL     1       3.712   3.477  16.712  0.00  0.00    +0.000 A 
ATOM     12  C   UNL     1       5.017   3.769  17.111  0.00  0.00    +0.000 A 
ATOM     13  C   UNL     1       5.286   3.912  18.473  0.00  0.00    +0.000 A 
ATOM     14  C   UNL     1       4.262   3.769  19.418  0.00  0.00    +0.000 A 
BRANCH   9  16
ATOM     15  C   UNL     1       1.201   4.635  20.542  0.00  0.00    +0.000 C 
ATOM     16  C   UNL     1       1.837   3.299  20.093  0.00  0.00    +0.000 C 
ATOM     17  C   UNL     1       2.409   2.621  21.356  0.00  0.00    +0.000 C 
ATOM     18  C   UNL     1       0.704   2.422  19.518  0.00  0.00    +0.000 C 
ENDBRANCH   9  16
ENDBRANCH   8  12
ENDBRANCH   7   8
ENDBRANCH   1   7
BRANCH   3  19
ATOM     19  C   UNL     1       2.821   7.128  17.953  0.00  0.00    +0.000 C 
BRANCH  19  20
ATOM     20  C   UNL     1       1.974   8.138  18.691  0.00  0.00    +0.000 A 
ATOM     21  C   UNL     1       1.829   8.088  20.086  0.00  0.00    +0.000 A 
ATOM     22  C   UNL     1       1.046   9.036  20.756  0.00  0.00    +0.000 A 
ATOM     23  C   UNL     1       0.380  10.024  20.036  0.00  0.00    +0.000 A 
ATOM     24  C   UNL     1       0.516  10.071  18.649  0.00  0.00    +0.000 A 
ATOM     25  F   UNL     1      -0.102  11.034  17.946  0.00  0.00    +0.000 F 
ATOM     26  C   UNL     1       1.304   9.142  17.975  0.00  0.00    +0.000 A 
BRANCH  23  27
ATOM     27  N   UNL     1      -0.387  11.005  20.733  0.00  0.00    +0.000 N 
ATOM     28  H   UNL     1      -1.343  11.143  20.408  0.00  0.00    +0.000 HD
BRANCH  27  29
ATOM     29  S   UNL     1       0.370  12.451  21.150  0.00  0.00    +0.000 S 
ATOM     30  C   UNL     1      -0.245  13.619  19.949  0.00  0.00    +0.000 C 
ATOM     31  O   UNL     1      -0.186  12.825  22.436  0.00  0.00    +0.000 OA
ATOM     32  O   UNL     1       1.796  12.308  20.966  0.00  0.00    +0.000 OA
ENDBRANCH  27  29
ENDBRANCH  23  27
ENDBRANCH  19  20
ENDBRANCH   3  19
TORSDOF 9
ENDMDL
MODEL 9
REMARK VINA RESULT:      -6.9      4.827      7.727
REMARK  Name = 
REMARK  13 active torsions:
REMARK  status: ('A' for Active; 'I' for Inactive)
REMARK    1  A    between atoms: C_1  and  C_2
REMARK    2  A    between atoms: C_2  and  C_3
REMARK    3  A    between atoms: C_2  and  C_4
REMARK    4  A    between atoms: C_2  and  C_5
REMARK    5  A    between atoms: C_8  and  C_9
REMARK    6  A    between atoms: C_9  and  C_10
REMARK    7  A    between atoms: C_10  and  N_11
REMARK    8  A    between atoms: C_12  and  S_13
REMARK    9  A    between atoms: N_14  and  C_15
REMARK   10  A    between atoms: C_15  and  C_16
REMARK   11  A    between atoms: C_19  and  N_20
REMARK   12  A    between atoms: N_20  and  S_21
REMARK   13  A    between atoms: S_21  and  C_22
REMARK                            x       y       z     vdW  Elec       q    Type
REMARK                         _______ _______ _______ _____ _____    ______ ____
ROOT
ATOM      1  N   UNL     1       1.579   3.708  19.326  0.00  0.00    +0.000 NA
ATOM      2  C   UNL     1       2.063   2.650  19.869  0.00  0.00    +0.000 C 
ATOM      3  N   UNL     1       2.665   1.662  19.146  0.00  0.00    +0.000 N 
ATOM      4  H   UNL     1       3.092   0.941  19.716  0.00  0.00    +0.000 HD
ENDROOT
BRANCH   2   5
ATOM      5  S   UNL     1       2.072   2.249  21.576  0.00  0.00    +0.000 S 
ATOM      6  H   UNL     1       0.923   2.819  21.946  0.00  0.00    +0.000 HD
ENDBRANCH   2   5
BRANCH   1   7
ATOM      7  C   UNL     1       0.938   4.779  20.076  0.00  0.00    +0.000 C 
BRANCH   7   8
ATOM      8  C   UNL     1       2.001   5.672  20.724  0.00  0.00    +0.000 C 
BRANCH   8  12
ATOM      9  C   UNL     1       1.083   9.797  19.667  0.00  0.00    +0.000 A 
ATOM     10  C   UNL     1       0.743   9.264  20.922  0.00  0.00    +0.000 A 
ATOM     11  C   UNL     1       1.063   7.947  21.269  0.00  0.00    +0.000 A 
ATOM     12  C   UNL     1       1.741   7.119  20.372  0.00  0.00    +0.000 A 
ATOM     13  C   UNL     1       2.091   7.629  19.121  0.00  0.00    +0.000 A 
ATOM     14  C   UNL     1       1.763   8.946  18.774  0.00  0.00    +0.000 A 
BRANCH   9  16
ATOM     15  C   UNL     1       1.838  11.904  18.384  0.00  0.00    +0.000 C 
ATOM     16  C   UNL     1       0.753  11.246  19.269  0.00  0.00    +0.000 C 
ATOM     17  C   UNL     1       0.597  12.126  20.527  0.00  0.00    +0.000 C 
ATOM     18  C   UNL     1      -0.568  11.270  18.469  0.00  0.00    +0.000 C 
ENDBRANCH   9  16
ENDBRANCH   8  12
ENDBRANCH   7   8
ENDBRANCH   1   7
BRANCH   3  19
ATOM     19  C   UNL     1       3.345   1.912  17.895  0.00  0.00    +0.000 C 
BRANCH  19  20
ATOM     20  C   UNL     1       4.024   3.260  17.959  0.00  0.00    +0.000 A 
ATOM     21  C   UNL     1       4.731   3.668  19.102  0.00  0.00    +0.000 A 
ATOM     22  C   UNL     1       5.360   4.918  19.143  0.00  0.00    +0.000 A 
ATOM     23  C   UNL     1       5.267   5.780  18.054  0.00  0.00    +0.000 A 
ATOM     24  C   UNL     1       4.560   5.381  16.920  0.00  0.00    +0.000 A 
ATOM     25  F   UNL     1       4.484   6.195  15.856  0.00  0.00    +0.000 F 
ATOM     26  C   UNL     1       3.943   4.135  16.865  0.00  0.00    +0.000 A 
BRANCH  23  27
ATOM     27  N   UNL     1       5.943   7.037  18.095  0.00  0.00    +0.000 N 
ATOM     28  H   UNL     1       5.436   7.833  17.710  0.00  0.00    +0.000 HD
BRANCH  27  29
ATOM     29  S   UNL     1       7.582   7.067  17.709  0.00  0.00    +0.000 S 
ATOM     30  C   UNL     1       7.996   8.803  17.728  0.00  0.00    +0.000 C 
ATOM     31  O   UNL     1       8.259   6.453  18.835  0.00  0.00    +0.000 OA
ATOM     32  O   UNL     1       7.761   6.565  16.366  0.00  0.00    +0.000 OA
ENDBRANCH  27  29
ENDBRANCH  23  27
ENDBRANCH  19  20
ENDBRANCH   3  19
TORSDOF 9
ENDMDL
