MODEL 1
REMARK VINA RESULT:      -8.1      0.000      0.000
REMARK  Name = 
REMARK  5 active torsions:
REMARK  status: ('A' for Active; 'I' for Inactive)
REMARK    1  A    between atoms: C_2  and  C_3
REMARK    2  A    between atoms: C_4  and  C_5
REMARK    3  A    between atoms: N_15  and  C_16
REMARK    4  A    between atoms: C_17  and  C_18
REMARK    5  A    between atoms: C_18  and  O_20
REMARK                            x       y       z     vdW  Elec       q    Type
REMARK                         _______ _______ _______ _____ _____    ______ ____
ROOT
ATOM      1  O   UNL     1       1.436   8.853  19.998  0.00  0.00    +0.000 OA
ATOM      2  C   UNL     1       1.542   9.031  18.790  0.00  0.00    +0.000 C 
ATOM      3  N   UNL     1       0.881   9.992  18.042  0.00  0.00    +0.000 N 
ATOM      4  H   UNL     1       1.111  10.037  17.046  0.00  0.00    +0.000 HD
ENDROOT
BRANCH   3   5
ATOM      5  C   UNL     1      -0.049  10.941  18.479  0.00  0.00    +0.000 C 
ATOM      6  C   UNL     1       0.319  12.213  18.792  0.00  0.00    +0.000 C 
ATOM      7  C   UNL     1      -0.675  13.243  19.288  0.00  0.00    +0.000 C 
ATOM      8  C   UNL     1      -2.046  12.696  19.673  0.00  0.00    +0.000 C 
ATOM      9  C   UNL     1      -2.500  11.664  18.663  0.00  0.00    +0.000 C 
ATOM     10  C   UNL     1      -1.503  10.510  18.594  0.00  0.00    +0.000 C 
BRANCH   6  11
ATOM     11  C   UNL     1       1.748  12.634  18.686  0.00  0.00    +0.000 C 
ATOM     12  O   UNL     1       2.396  13.044  19.638  0.00  0.00    +0.000 OA
BRANCH  11  13
ATOM     13  O   UNL     1       2.301  12.525  17.460  0.00  0.00    +0.000 OA
ATOM     14  H   UNL     1       2.103  13.219  16.807  0.00  0.00    +0.000 HD
ENDBRANCH  11  13
ENDBRANCH   6  11
ENDBRANCH   3   5
BRANCH   2  15
ATOM     15  C   UNL     1       2.455   8.170  17.976  0.00  0.00    +0.000 C 
ATOM     16  C   UNL     1       2.592   6.870  18.295  0.00  0.00    +0.000 C 
BRANCH  16  17
ATOM     17  C   UNL     1       3.476   5.946  17.569  0.00  0.00    +0.000 A 
ATOM     18  C   UNL     1       4.591   6.488  16.906  0.00  0.00    +0.000 A 
ATOM     19  C   UNL     1       5.446   5.626  16.247  0.00  0.00    +0.000 A 
ATOM     20  C   UNL     1       5.234   4.269  16.226  0.00  0.00    +0.000 A 
ATOM     21  C   UNL     1       4.157   3.694  16.863  0.00  0.00    +0.000 A 
ATOM     22  C   UNL     1       3.271   4.544  17.541  0.00  0.00    +0.000 A 
ATOM     23 BR   UNL     1       1.795   3.730  18.424  0.00  0.00    +0.000 Br
ATOM     24  O   UNL     1       6.193   3.603  15.527  0.00  0.00    +0.000 OA
ATOM     25  C   UNL     1       7.034   4.697  15.106  0.00  0.00    +0.000 C 
ATOM     26  O   UNL     1       6.566   5.984  15.563  0.00  0.00    +0.000 OA
ENDBRANCH  16  17
ENDBRANCH   2  15
TORSDOF 5
ENDMDL
MODEL 2
REMARK VINA RESULT:      -7.9      6.136      9.127
REMARK  Name = 
REMARK  5 active torsions:
REMARK  status: ('A' for Active; 'I' for Inactive)
REMARK    1  A    between atoms: C_2  and  C_3
REMARK    2  A    between atoms: C_4  and  C_5
REMARK    3  A    between atoms: N_15  and  C_16
REMARK    4  A    between atoms: C_17  and  C_18
REMARK    5  A    between atoms: C_18  and  O_20
REMARK                            x       y       z     vdW  Elec       q    Type
REMARK                         _______ _______ _______ _____ _____    ______ ____
ROOT
ATOM      1  O   UNL     1       8.072   6.709  18.893  0.00  0.00    +0.000 OA
ATOM      2  C   UNL     1       7.650   7.552  18.110  0.00  0.00    +0.000 C 
ATOM      3  N   UNL     1       6.507   7.450  17.332  0.00  0.00    +0.000 N 
ATOM      4  H   UNL     1       6.268   8.262  16.757  0.00  0.00    +0.000 HD
ENDROOT
BRANCH   3   5
ATOM      5  C   UNL     1       5.608   6.381  17.251  0.00  0.00    +0.000 C 
ATOM      6  C   UNL     1       5.964   5.186  16.705  0.00  0.00    +0.000 C 
ATOM      7  C   UNL     1       4.993   4.029  16.591  0.00  0.00    +0.000 C 
ATOM      8  C   UNL     1       3.533   4.370  16.870  0.00  0.00    +0.000 C 
ATOM      9  C   UNL     1       3.431   5.299  18.061  0.00  0.00    +0.000 C 
ATOM     10  C   UNL     1       4.205   6.590  17.800  0.00  0.00    +0.000 C 
BRANCH   6  11
ATOM     11  C   UNL     1       7.340   4.984  16.160  0.00  0.00    +0.000 C 
ATOM     12  O   UNL     1       8.164   4.247  16.681  0.00  0.00    +0.000 OA
BRANCH  11  13
ATOM     13  O   UNL     1       7.626   5.664  15.030  0.00  0.00    +0.000 OA
ATOM     14  H   UNL     1       7.632   6.636  15.071  0.00  0.00    +0.000 HD
ENDBRANCH  11  13
ENDBRANCH   6  11
ENDBRANCH   3   5
BRANCH   2  15
ATOM     15  C   UNL     1       8.382   8.843  17.921  0.00  0.00    +0.000 C 
ATOM     16  C   UNL     1       8.806   9.523  19.002  0.00  0.00    +0.000 C 
BRANCH  16  17
ATOM     17  C   UNL     1       9.518  10.807  18.923  0.00  0.00    +0.000 A 
ATOM     18  C   UNL     1      10.091  11.166  17.690  0.00  0.00    +0.000 A 
ATOM     19  C   UNL     1      10.736  12.384  17.596  0.00  0.00    +0.000 A 
ATOM     20  C   UNL     1      10.826  13.242  18.665  0.00  0.00    +0.000 A 
ATOM     21  C   UNL     1      10.278  12.933  19.890  0.00  0.00    +0.000 A 
ATOM     22  C   UNL     1       9.618  11.702  20.017  0.00  0.00    +0.000 A 
ATOM     23 BR   UNL     1       8.858  11.299  21.713  0.00  0.00    +0.000 Br
ATOM     24  O   UNL     1      11.496  14.386  18.359  0.00  0.00    +0.000 OA
ATOM     25  C   UNL     1      11.821  14.151  16.973  0.00  0.00    +0.000 C 
ATOM     26  O   UNL     1      11.337  12.882  16.481  0.00  0.00    +0.000 OA
ENDBRANCH  16  17
ENDBRANCH   2  15
TORSDOF 5
ENDMDL
MODEL 3
REMARK VINA RESULT:      -7.8      1.757      2.248
REMARK  Name = 
REMARK  5 active torsions:
REMARK  status: ('A' for Active; 'I' for Inactive)
REMARK    1  A    between atoms: C_2  and  C_3
REMARK    2  A    between atoms: C_4  and  C_5
REMARK    3  A    between atoms: N_15  and  C_16
REMARK    4  A    between atoms: C_17  and  C_18
REMARK    5  A    between atoms: C_18  and  O_20
REMARK                            x       y       z     vdW  Elec       q    Type
REMARK                         _______ _______ _______ _____ _____    ______ ____
ROOT
ATOM      1  O   UNL     1       2.112  11.046  18.148  0.00  0.00    +0.000 OA
ATOM      2  C   UNL     1       1.637   9.924  18.292  0.00  0.00    +0.000 C 
ATOM      3  N   UNL     1       0.542   9.592  19.073  0.00  0.00    +0.000 N 
ATOM      4  H   UNL     1       0.244   8.613  19.054  0.00  0.00    +0.000 HD
ENDROOT
BRANCH   3   5
ATOM      5  C   UNL     1      -0.240  10.433  19.871  0.00  0.00    +0.000 C 
ATOM      6  C   UNL     1      -1.273  11.153  19.355  0.00  0.00    +0.000 C 
ATOM      7  C   UNL     1      -2.113  12.085  20.204  0.00  0.00    +0.000 C 
ATOM      8  C   UNL     1      -1.563  12.375  21.597  0.00  0.00    +0.000 C 
ATOM      9  C   UNL     1      -1.018  11.106  22.218  0.00  0.00    +0.000 C 
ATOM     10  C   UNL     1       0.096  10.523  21.352  0.00  0.00    +0.000 C 
BRANCH   6  11
ATOM     11  C   UNL     1      -1.599  11.072  17.899  0.00  0.00    +0.000 C 
ATOM     12  O   UNL     1      -1.876  10.024  17.334  0.00  0.00    +0.000 OA
BRANCH  11  13
ATOM     13  O   UNL     1      -1.581  12.244  17.230  0.00  0.00    +0.000 OA
ATOM     14  H   UNL     1      -1.458  12.217  16.265  0.00  0.00    +0.000 HD
ENDBRANCH  11  13
ENDBRANCH   6  11
ENDBRANCH   3   5
BRANCH   2  15
ATOM     15  C   UNL     1       2.241   8.751  17.587  0.00  0.00    +0.000 C 
ATOM     16  C   UNL     1       2.974   7.867  18.289  0.00  0.00    +0.000 C 
BRANCH  16  17
ATOM     17  C   UNL     1       3.623   6.693  17.687  0.00  0.00    +0.000 A 
ATOM     18  C   UNL     1       4.594   6.916  16.695  0.00  0.00    +0.000 A 
ATOM     19  C   UNL     1       5.232   5.821  16.144  0.00  0.00    +0.000 A 
ATOM     20  C   UNL     1       4.944   4.538  16.540  0.00  0.00    +0.000 A 
ATOM     21  C   UNL     1       4.002   4.273  17.509  0.00  0.00    +0.000 A 
ATOM     22  C   UNL     1       3.336   5.364  18.086  0.00  0.00    +0.000 A 
ATOM     23 BR   UNL     1       2.047   4.979  19.431  0.00  0.00    +0.000 Br
ATOM     24  O   UNL     1       5.686   3.609  15.877  0.00  0.00    +0.000 OA
ATOM     25  C   UNL     1       6.475   4.455  15.015  0.00  0.00    +0.000 C 
ATOM     26  O   UNL     1       6.194   5.862  15.183  0.00  0.00    +0.000 OA
ENDBRANCH  16  17
ENDBRANCH   2  15
TORSDOF 5
ENDMDL
MODEL 4
REMARK VINA RESULT:      -7.7      1.656      2.500
REMARK  Name = 
REMARK  5 active torsions:
REMARK  status: ('A' for Active; 'I' for Inactive)
REMARK    1  A    between atoms: C_2  and  C_3
REMARK    2  A    between atoms: C_4  and  C_5
REMARK    3  A    between atoms: N_15  and  C_16
REMARK    4  A    between atoms: C_17  and  C_18
REMARK    5  A    between atoms: C_18  and  O_20
REMARK                            x       y       z     vdW  Elec       q    Type
REMARK                         _______ _______ _______ _____ _____    ______ ____
ROOT
ATOM      1  O   UNL     1       2.260  10.782  18.049  0.00  0.00    +0.000 OA
ATOM      2  C   UNL     1       1.790   9.668  18.253  0.00  0.00    +0.000 C 
ATOM      3  N   UNL     1       0.768   9.359  19.136  0.00  0.00    +0.000 N 
ATOM      4  H   UNL     1       0.459   8.383  19.160  0.00  0.00    +0.000 HD
ENDROOT
BRANCH   3   5
ATOM      5  C   UNL     1       0.071  10.220  19.990  0.00  0.00    +0.000 C 
ATOM      6  C   UNL     1       0.198  10.145  21.343  0.00  0.00    +0.000 C 
ATOM      7  C   UNL     1      -0.568  11.057  22.279  0.00  0.00    +0.000 C 
ATOM      8  C   UNL     1      -1.684  11.871  21.631  0.00  0.00    +0.000 C 
ATOM      9  C   UNL     1      -1.229  12.408  20.291  0.00  0.00    +0.000 C 
ATOM     10  C   UNL     1      -0.841  11.262  19.359  0.00  0.00    +0.000 C 
BRANCH   6  11
ATOM     11  C   UNL     1       1.088   9.118  21.963  0.00  0.00    +0.000 C 
ATOM     12  O   UNL     1       1.186   7.975  21.539  0.00  0.00    +0.000 OA
BRANCH  11  13
ATOM     13  O   UNL     1       1.801   9.531  23.032  0.00  0.00    +0.000 OA
ATOM     14  H   UNL     1       2.650   9.092  23.211  0.00  0.00    +0.000 HD
ENDBRANCH  11  13
ENDBRANCH   6  11
ENDBRANCH   3   5
BRANCH   2  15
ATOM     15  C   UNL     1       2.314   8.478  17.513  0.00  0.00    +0.000 C 
ATOM     16  C   UNL     1       3.280   7.728  18.074  0.00  0.00    +0.000 C 
BRANCH  16  17
ATOM     17  C   UNL     1       3.873   6.551  17.421  0.00  0.00    +0.000 A 
ATOM     18  C   UNL     1       4.869   6.768  16.453  0.00  0.00    +0.000 A 
ATOM     19  C   UNL     1       5.455   5.668  15.856  0.00  0.00    +0.000 A 
ATOM     20  C   UNL     1       5.092   4.385  16.185  0.00  0.00    +0.000 A 
ATOM     21  C   UNL     1       4.124   4.125  17.129  0.00  0.00    +0.000 A 
ATOM     22  C   UNL     1       3.510   5.222  17.752  0.00  0.00    +0.000 A 
ATOM     23 BR   UNL     1       2.183   4.842  19.061  0.00  0.00    +0.000 Br
ATOM     24  O   UNL     1       5.792   3.451  15.485  0.00  0.00    +0.000 OA
ATOM     25  C   UNL     1       6.638   4.294  14.675  0.00  0.00    +0.000 C 
ATOM     26  O   UNL     1       6.430   5.703  14.909  0.00  0.00    +0.000 OA
ENDBRANCH  16  17
ENDBRANCH   2  15
TORSDOF 5
ENDMDL
MODEL 5
REMARK VINA RESULT:      -7.6      1.397      2.126
REMARK  Name = 
REMARK  5 active torsions:
REMARK  status: ('A' for Active; 'I' for Inactive)
REMARK    1  A    between atoms: C_2  and  C_3
REMARK    2  A    between atoms: C_4  and  C_5
REMARK    3  A    between atoms: N_15  and  C_16
REMARK    4  A    between atoms: C_17  and  C_18
REMARK    5  A    between atoms: C_18  and  O_20
REMARK                            x       y       z     vdW  Elec       q    Type
REMARK                         _______ _______ _______ _____ _____    ______ ____
ROOT
ATOM      1  O   UNL     1       1.255   8.826  20.047  0.00  0.00    +0.000 OA
ATOM      2  C   UNL     1       1.445   9.125  18.873  0.00  0.00    +0.000 C 
ATOM      3  N   UNL     1       1.017  10.282  18.242  0.00  0.00    +0.000 N 
ATOM      4  H   UNL     1       1.293  10.401  17.264  0.00  0.00    +0.000 HD
ENDROOT
BRANCH   3   5
ATOM      5  C   UNL     1       0.272  11.336  18.781  0.00  0.00    +0.000 C 
ATOM      6  C   UNL     1      -1.074  11.427  18.602  0.00  0.00    +0.000 C 
ATOM      7  C   UNL     1      -1.888  12.576  19.160  0.00  0.00    +0.000 C 
ATOM      8  C   UNL     1      -1.078  13.753  19.694  0.00  0.00    +0.000 C 
ATOM      9  C   UNL     1       0.119  13.253  20.474  0.00  0.00    +0.000 C 
ATOM     10  C   UNL     1       1.014  12.392  19.586  0.00  0.00    +0.000 C 
BRANCH   6  11
ATOM     11  C   UNL     1      -1.802  10.395  17.804  0.00  0.00    +0.000 C 
ATOM     12  O   UNL     1      -2.565   9.581  18.303  0.00  0.00    +0.000 OA
BRANCH  11  13
ATOM     13  O   UNL     1      -1.576  10.417  16.474  0.00  0.00    +0.000 OA
ATOM     14  H   UNL     1      -1.829  11.217  15.981  0.00  0.00    +0.000 HD
ENDBRANCH  11  13
ENDBRANCH   6  11
ENDBRANCH   3   5
BRANCH   2  15
ATOM     15  C   UNL     1       2.206   8.204  17.972  0.00  0.00    +0.000 C 
ATOM     16  C   UNL     1       2.751   7.085  18.483  0.00  0.00    +0.000 C 
BRANCH  16  17
ATOM     17  C   UNL     1       3.530   6.126  17.685  0.00  0.00    +0.000 A 
ATOM     18  C   UNL     1       4.668   6.604  17.011  0.00  0.00    +0.000 A 
ATOM     19  C   UNL     1       5.426   5.706  16.284  0.00  0.00    +0.000 A 
ATOM     20  C   UNL     1       5.097   4.375  16.207  0.00  0.00    +0.000 A 
ATOM     21  C   UNL     1       3.993   3.863  16.852  0.00  0.00    +0.000 A 
ATOM     22  C   UNL     1       3.204   4.750  17.598  0.00  0.00    +0.000 A 
ATOM     23 BR   UNL     1       1.690   4.022  18.490  0.00  0.00    +0.000 Br
ATOM     24  O   UNL     1       5.974   3.666  15.446  0.00  0.00    +0.000 OA
ATOM     25  C   UNL     1       6.893   4.704  15.048  0.00  0.00    +0.000 C 
ATOM     26  O   UNL     1       6.552   6.002  15.581  0.00  0.00    +0.000 OA
ENDBRANCH  16  17
ENDBRANCH   2  15
TORSDOF 5
ENDMDL
MODEL 6
REMARK VINA RESULT:      -7.6      6.127      9.139
REMARK  Name = 
REMARK  5 active torsions:
REMARK  status: ('A' for Active; 'I' for Inactive)
REMARK    1  A    between atoms: C_2  and  C_3
REMARK    2  A    between atoms: C_4  and  C_5
REMARK    3  A    between atoms: N_15  and  C_16
REMARK    4  A    between atoms: C_17  and  C_18
REMARK    5  A    between atoms: C_18  and  O_20
REMARK                            x       y       z     vdW  Elec       q    Type
REMARK                         _______ _______ _______ _____ _____    ______ ____
ROOT
ATOM      1  O   UNL     1       8.160   6.914  18.751  0.00  0.00    +0.000 OA
ATOM      2  C   UNL     1       7.719   7.687  17.908  0.00  0.00    +0.000 C 
ATOM      3  N   UNL     1       6.820   7.375  16.900  0.00  0.00    +0.000 N 
ATOM      4  H   UNL     1       6.517   8.147  16.299  0.00  0.00    +0.000 HD
ENDROOT
BRANCH   3   5
ATOM      5  C   UNL     1       6.240   6.136  16.610  0.00  0.00    +0.000 C 
ATOM      6  C   UNL     1       4.992   5.809  17.043  0.00  0.00    +0.000 C 
ATOM      7  C   UNL     1       4.363   4.462  16.755  0.00  0.00    +0.000 C 
ATOM      8  C   UNL     1       5.308   3.406  16.193  0.00  0.00    +0.000 C 
ATOM      9  C   UNL     1       6.228   4.023  15.160  0.00  0.00    +0.000 C 
ATOM     10  C   UNL     1       7.050   5.149  15.782  0.00  0.00    +0.000 C 
BRANCH   6  11
ATOM     11  C   UNL     1       4.200   6.776  17.862  0.00  0.00    +0.000 C 
ATOM     12  O   UNL     1       3.838   7.866  17.446  0.00  0.00    +0.000 OA
BRANCH  11  13
ATOM     13  O   UNL     1       3.888   6.365  19.110  0.00  0.00    +0.000 OA
ATOM     14  H   UNL     1       2.957   6.164  19.305  0.00  0.00    +0.000 HD
ENDBRANCH  11  13
ENDBRANCH   6  11
ENDBRANCH   3   5
BRANCH   2  15
ATOM     15  C   UNL     1       8.143   9.122  17.902  0.00  0.00    +0.000 C 
ATOM     16  C   UNL     1       9.078   9.535  18.777  0.00  0.00    +0.000 C 
BRANCH  16  17
ATOM     17  C   UNL     1       9.549  10.925  18.862  0.00  0.00    +0.000 A 
ATOM     18  C   UNL     1      10.069  11.515  17.697  0.00  0.00    +0.000 A 
ATOM     19  C   UNL     1      10.486  12.831  17.757  0.00  0.00    +0.000 A 
ATOM     20  C   UNL     1      10.403  13.566  18.914  0.00  0.00    +0.000 A 
ATOM     21  C   UNL     1       9.898  13.030  20.078  0.00  0.00    +0.000 A 
ATOM     22  C   UNL     1       9.468  11.696  20.048  0.00  0.00    +0.000 A 
ATOM     23 BR   UNL     1       8.764  10.977  21.663  0.00  0.00    +0.000 Br
ATOM     24  O   UNL     1      10.861  14.838  18.757  0.00  0.00    +0.000 OA
ATOM     25  C   UNL     1      11.246  14.820  17.367  0.00  0.00    +0.000 C 
ATOM     26  O   UNL     1      11.006  13.548  16.725  0.00  0.00    +0.000 OA
ENDBRANCH  16  17
ENDBRANCH   2  15
TORSDOF 5
ENDMDL
MODEL 7
REMARK VINA RESULT:      -7.5      2.152      2.989
REMARK  Name = 
REMARK  5 active torsions:
REMARK  status: ('A' for Active; 'I' for Inactive)
REMARK    1  A    between atoms: C_2  and  C_3
REMARK    2  A    between atoms: C_4  and  C_5
REMARK    3  A    between atoms: N_15  and  C_16
REMARK    4  A    between atoms: C_17  and  C_18
REMARK    5  A    between atoms: C_18  and  O_20
REMARK                            x       y       z     vdW  Elec       q    Type
REMARK                         _______ _______ _______ _____ _____    ______ ____
ROOT
ATOM      1  O   UNL     1      -0.444  10.094  18.028  0.00  0.00    +0.000 OA
ATOM      2  C   UNL     1       0.576   9.890  18.677  0.00  0.00    +0.000 C 
ATOM      3  N   UNL     1       0.887  10.442  19.909  0.00  0.00    +0.000 N 
ATOM      4  H   UNL     1       1.764  10.138  20.342  0.00  0.00    +0.000 HD
ENDROOT
BRANCH   3   5
ATOM      5  C   UNL     1       0.137  11.349  20.666  0.00  0.00    +0.000 C 
ATOM      6  C   UNL     1      -0.353  11.025  21.893  0.00  0.00    +0.000 C 
ATOM      7  C   UNL     1      -1.185  11.990  22.712  0.00  0.00    +0.000 C 
ATOM      8  C   UNL     1      -1.666  13.232  21.969  0.00  0.00    +0.000 C 
ATOM      9  C   UNL     1      -0.560  13.777  21.090  0.00  0.00    +0.000 C 
ATOM     10  C   UNL     1      -0.117  12.727  20.075  0.00  0.00    +0.000 C 
BRANCH   6  11
ATOM     11  C   UNL     1      -0.109   9.669  22.471  0.00  0.00    +0.000 C 
ATOM     12  O   UNL     1      -0.328   8.633  21.859  0.00  0.00    +0.000 OA
BRANCH  11  13
ATOM     13  O   UNL     1       0.386   9.649  23.726  0.00  0.00    +0.000 OA
ATOM     14  H   UNL     1       0.808  10.457  24.063  0.00  0.00    +0.000 HD
ENDBRANCH  11  13
ENDBRANCH   6  11
ENDBRANCH   3   5
BRANCH   2  15
ATOM     15  C   UNL     1       1.633   8.968  18.156  0.00  0.00    +0.000 C 
ATOM     16  C   UNL     1       1.968   7.880  18.873  0.00  0.00    +0.000 C 
BRANCH  16  17
ATOM     17  C   UNL     1       3.004   6.923  18.457  0.00  0.00    +0.000 A 
ATOM     18  C   UNL     1       3.880   7.310  17.428  0.00  0.00    +0.000 A 
ATOM     19  C   UNL     1       4.877   6.431  17.050  0.00  0.00    +0.000 A 
ATOM     20  C   UNL     1       5.030   5.205  17.650  0.00  0.00    +0.000 A 
ATOM     21  C   UNL     1       4.197   4.786  18.663  0.00  0.00    +0.000 A 
ATOM     22  C   UNL     1       3.174   5.656  19.068  0.00  0.00    +0.000 A 
ATOM     23 BR   UNL     1       2.041   5.063  20.476  0.00  0.00    +0.000 Br
ATOM     24  O   UNL     1       6.072   4.499  17.133  0.00  0.00    +0.000 OA
ATOM     25  C   UNL     1       6.558   5.420  16.135  0.00  0.00    +0.000 C 
ATOM     26  O   UNL     1       5.805   6.651  16.080  0.00  0.00    +0.000 OA
ENDBRANCH  16  17
ENDBRANCH   2  15
TORSDOF 5
ENDMDL
MODEL 8
REMARK VINA RESULT:      -7.5      1.970      2.380
REMARK  Name = 
REMARK  5 active torsions:
REMARK  status: ('A' for Active; 'I' for Inactive)
REMARK    1  A    between atoms: C_2  and  C_3
REMARK    2  A    between atoms: C_4  and  C_5
REMARK    3  A    between atoms: N_15  and  C_16
REMARK    4  A    between atoms: C_17  and  C_18
REMARK    5  A    between atoms: C_18  and  O_20
REMARK                            x       y       z     vdW  Elec       q    Type
REMARK                         _______ _______ _______ _____ _____    ______ ____
ROOT
ATOM      1  O   UNL     1       0.947   6.540  21.194  0.00  0.00    +0.000 OA
ATOM      2  C   UNL     1       1.669   7.177  20.435  0.00  0.00    +0.000 C 
ATOM      3  N   UNL     1       1.610   8.541  20.200  0.00  0.00    +0.000 N 
ATOM      4  H   UNL     1       2.313   8.930  19.566  0.00  0.00    +0.000 HD
ENDROOT
BRANCH   3   5
ATOM      5  C   UNL     1       0.723   9.476  20.746  0.00  0.00    +0.000 C 
ATOM      6  C   UNL     1      -0.041  10.282  19.960  0.00  0.00    +0.000 C 
ATOM      7  C   UNL     1      -0.988  11.313  20.538  0.00  0.00    +0.000 C 
ATOM      8  C   UNL     1      -0.831  11.580  22.031  0.00  0.00    +0.000 C 
ATOM      9  C   UNL     1      -0.618  10.279  22.776  0.00  0.00    +0.000 C 
ATOM     10  C   UNL     1       0.631   9.567  22.261  0.00  0.00    +0.000 C 
BRANCH   6  11
ATOM     11  C   UNL     1       0.055  10.197  18.471  0.00  0.00    +0.000 C 
ATOM     12  O   UNL     1      -0.907   9.973  17.751  0.00  0.00    +0.000 OA
BRANCH  11  13
ATOM     13  O   UNL     1       1.285  10.397  17.953  0.00  0.00    +0.000 OA
ATOM     14  H   UNL     1       1.522   9.915  17.142  0.00  0.00    +0.000 HD
ENDBRANCH  11  13
ENDBRANCH   6  11
ENDBRANCH   3   5
BRANCH   2  15
ATOM     15  C   UNL     1       2.742   6.487  19.654  0.00  0.00    +0.000 C 
ATOM     16  C   UNL     1       2.482   6.075  18.400  0.00  0.00    +0.000 C 
BRANCH  16  17
ATOM     17  C   UNL     1       3.462   5.373  17.558  0.00  0.00    +0.000 A 
ATOM     18  C   UNL     1       4.471   6.139  16.947  0.00  0.00    +0.000 A 
ATOM     19  C   UNL     1       5.416   5.486  16.179  0.00  0.00    +0.000 A 
ATOM     20  C   UNL     1       5.393   4.124  16.003  0.00  0.00    +0.000 A 
ATOM     21  C   UNL     1       4.426   3.335  16.584  0.00  0.00    +0.000 A 
ATOM     22  C   UNL     1       3.452   3.969  17.369  0.00  0.00    +0.000 A 
ATOM     23 BR   UNL     1       2.131   2.861  18.172  0.00  0.00    +0.000 Br
ATOM     24  O   UNL     1       6.413   3.684  15.217  0.00  0.00    +0.000 OA
ATOM     25  C   UNL     1       7.082   4.927  14.915  0.00  0.00    +0.000 C 
ATOM     26  O   UNL     1       6.455   6.075  15.526  0.00  0.00    +0.000 OA
ENDBRANCH  16  17
ENDBRANCH   2  15
TORSDOF 5
ENDMDL
MODEL 9
REMARK VINA RESULT:      -7.4      3.211      8.766
REMARK  Name = 
REMARK  5 active torsions:
REMARK  status: ('A' for Active; 'I' for Inactive)
REMARK    1  A    between atoms: C_2  and  C_3
REMARK    2  A    between atoms: C_4  and  C_5
REMARK    3  A    between atoms: N_15  and  C_16
REMARK    4  A    between atoms: C_17  and  C_18
REMARK    5  A    between atoms: C_18  and  O_20
REMARK                            x       y       z     vdW  Elec       q    Type
REMARK                         _______ _______ _______ _____ _____    ______ ____
ROOT
ATOM      1  O   UNL     1       2.366   5.420  17.832  0.00  0.00    +0.000 OA
ATOM      2  C   UNL     1       3.005   6.360  18.292  0.00  0.00    +0.000 C 
ATOM      3  N   UNL     1       4.322   6.677  18.001  0.00  0.00    +0.000 N 
ATOM      4  H   UNL     1       4.699   7.522  18.438  0.00  0.00    +0.000 HD
ENDROOT
BRANCH   3   5
ATOM      5  C   UNL     1       5.207   6.004  17.153  0.00  0.00    +0.000 C 
ATOM      6  C   UNL     1       6.120   5.114  17.630  0.00  0.00    +0.000 C 
ATOM      7  C   UNL     1       7.099   4.396  16.725  0.00  0.00    +0.000 C 
ATOM      8  C   UNL     1       7.183   4.929  15.298  0.00  0.00    +0.000 C 
ATOM      9  C   UNL     1       5.798   5.248  14.777  0.00  0.00    +0.000 C 
ATOM     10  C   UNL     1       5.120   6.292  15.662  0.00  0.00    +0.000 C 
BRANCH   6  11
ATOM     11  C   UNL     1       6.210   4.837  19.096  0.00  0.00    +0.000 C 
ATOM     12  O   UNL     1       6.948   5.455  19.849  0.00  0.00    +0.000 OA
BRANCH  11  13
ATOM     13  O   UNL     1       5.407   3.854  19.555  0.00  0.00    +0.000 OA
ATOM     14  H   UNL     1       4.469   3.873  19.297  0.00  0.00    +0.000 HD
ENDBRANCH  11  13
ENDBRANCH   6  11
ENDBRANCH   3   5
BRANCH   2  15
ATOM     15  C   UNL     1       2.369   7.301  19.266  0.00  0.00    +0.000 C 
ATOM     16  C   UNL     1       1.775   8.419  18.809  0.00  0.00    +0.000 C 
BRANCH  16  17
ATOM     17  C   UNL     1       1.138   9.413  19.685  0.00  0.00    +0.000 A 
ATOM     18  C   UNL     1       0.433   8.945  20.807  0.00  0.00    +0.000 A 
ATOM     19  C   UNL     1      -0.143   9.872  21.654  0.00  0.00    +0.000 A 
ATOM     20  C   UNL     1      -0.042  11.223  21.428  0.00  0.00    +0.000 A 
ATOM     21  C   UNL     1       0.641  11.727  20.343  0.00  0.00    +0.000 A 
ATOM     22  C   UNL     1       1.236  10.810  19.465  0.00  0.00    +0.000 A 
ATOM     23 BR   UNL     1       2.184  11.525  17.979  0.00  0.00    +0.000 Br
ATOM     24  O   UNL     1      -0.675  11.959  22.382  0.00  0.00    +0.000 OA
ATOM     25  C   UNL     1      -1.190  10.916  23.235  0.00  0.00    +0.000 C 
ATOM     26  O   UNL     1      -0.852   9.588  22.780  0.00  0.00    +0.000 OA
ENDBRANCH  16  17
ENDBRANCH   2  15
TORSDOF 5
ENDMDL
