MODEL 1
REMARK VINA RESULT:      -7.7      0.000      0.000
REMARK  Name = 
REMARK  5 active torsions:
REMARK  status: ('A' for Active; 'I' for Inactive)
REMARK    1  A    between atoms: C_1  and  N_2
REMARK    2  A    between atoms: C_8  and  C_9
REMARK    3  A    between atoms: C_11  and  C_12
REMARK    4  A    between atoms: N_15  and  C_16
REMARK    5  A    between atoms: C_17  and  C_18
REMARK                            x       y       z     vdW  Elec       q    Type
REMARK                         _______ _______ _______ _____ _____    ______ ____
ROOT
ATOM      1  C   UNL     1       4.855   0.680  19.878  0.00  0.00    +0.000 C 
ATOM      2  N   UNL     1       4.618   2.006  19.356  0.00  0.00    +0.000 N 
ATOM      3  C   UNL     1       3.804   2.918  19.980  0.00  0.00    +0.000 A 
ATOM      4  N   UNL     1       3.161   2.556  21.053  0.00  0.00    +0.000 NA
ATOM      5  C   UNL     1       2.310   3.434  21.670  0.00  0.00    +0.000 A 
ATOM      6  N   UNL     1       2.084   4.662  21.331  0.00  0.00    +0.000 NA
ATOM      7  N   UNL     1       2.778   5.057  20.246  0.00  0.00    +0.000 N 
ATOM      8  C   UNL     1       2.742   6.296  19.647  0.00  0.00    +0.000 A 
ATOM      9  C   UNL     1       1.866   7.397  20.108  0.00  0.00    +0.000 C 
ATOM     10  N   UNL     1       3.544   6.325  18.600  0.00  0.00    +0.000 NA
ATOM     11  C   UNL     1       4.051   5.049  18.483  0.00  0.00    +0.000 A 
ATOM     12  C   UNL     1       3.619   4.261  19.524  0.00  0.00    +0.000 A 
ATOM     13  H   UNL     1       4.623   2.051  18.340  0.00  0.00    +0.000 HD
ENDROOT
BRANCH  11  14
ATOM     14  C   UNL     1       4.846   4.717  17.295  0.00  0.00    +0.000 A 
ATOM     15  C   UNL     1       4.512   3.698  16.384  0.00  0.00    +0.000 A 
ATOM     16  N   UNL     1       5.314   3.679  15.323  0.00  0.00    +0.000 NA
ATOM     17  N   UNL     1       6.239   4.621  15.604  0.00  0.00    +0.000 N 
ATOM     18  C   UNL     1       7.239   4.873  14.589  0.00  0.00    +0.000 C 
ATOM     19  C   UNL     1       6.046   5.259  16.823  0.00  0.00    +0.000 A 
BRANCH  19  20
ATOM     20  C   UNL     1       6.950   6.273  17.418  0.00  0.00    +0.000 A 
ATOM     21  C   UNL     1       7.015   7.578  16.902  0.00  0.00    +0.000 A 
ATOM     22  C   UNL     1       7.750   8.584  17.541  0.00  0.00    +0.000 A 
ATOM     23  C   UNL     1       8.496   8.272  18.667  0.00  0.00    +0.000 A 
ATOM     24  F   UNL     1       9.205   9.229  19.278  0.00  0.00    +0.000 F 
ATOM     25  C   UNL     1       8.504   6.983  19.173  0.00  0.00    +0.000 A 
ATOM     26  C   UNL     1       7.709   6.003  18.572  0.00  0.00    +0.000 A 
ENDBRANCH  19  20
ENDBRANCH  11  14
TORSDOF 2
ENDMDL
MODEL 2
REMARK VINA RESULT:      -6.9      6.472      9.591
REMARK  Name = 
REMARK  5 active torsions:
REMARK  status: ('A' for Active; 'I' for Inactive)
REMARK    1  A    between atoms: C_1  and  N_2
REMARK    2  A    between atoms: C_8  and  C_9
REMARK    3  A    between atoms: C_11  and  C_12
REMARK    4  A    between atoms: N_15  and  C_16
REMARK    5  A    between atoms: C_17  and  C_18
REMARK                            x       y       z     vdW  Elec       q    Type
REMARK                         _______ _______ _______ _____ _____    ______ ____
ROOT
ATOM      1  C   UNL     1      -0.916  13.720  23.146  0.00  0.00    +0.000 C 
ATOM      2  N   UNL     1      -0.295  13.508  21.859  0.00  0.00    +0.000 N 
ATOM      3  C   UNL     1       0.920  14.048  21.519  0.00  0.00    +0.000 A 
ATOM      4  N   UNL     1       1.512  14.844  22.362  0.00  0.00    +0.000 NA
ATOM      5  C   UNL     1       2.705  15.429  22.029  0.00  0.00    +0.000 A 
ATOM      6  N   UNL     1       3.380  15.248  20.940  0.00  0.00    +0.000 NA
ATOM      7  N   UNL     1       2.794  14.392  20.081  0.00  0.00    +0.000 N 
ATOM      8  C   UNL     1       3.265  14.009  18.845  0.00  0.00    +0.000 A 
ATOM      9  C   UNL     1       4.513  14.540  18.250  0.00  0.00    +0.000 C 
ATOM     10  N   UNL     1       2.428  13.165  18.274  0.00  0.00    +0.000 NA
ATOM     11  C   UNL     1       1.357  13.062  19.135  0.00  0.00    +0.000 A 
ATOM     12  C   UNL     1       1.589  13.784  20.282  0.00  0.00    +0.000 A 
ATOM     13  H   UNL     1      -0.960  13.417  21.095  0.00  0.00    +0.000 HD
ENDROOT
BRANCH  11  14
ATOM     14  C   UNL     1       0.169  12.324  18.691  0.00  0.00    +0.000 A 
ATOM     15  C   UNL     1      -1.046  12.933  18.330  0.00  0.00    +0.000 A 
ATOM     16  N   UNL     1      -1.926  12.065  17.839  0.00  0.00    +0.000 NA
ATOM     17  N   UNL     1      -1.315  10.871  17.986  0.00  0.00    +0.000 N 
ATOM     18  C   UNL     1      -2.020   9.712  17.483  0.00  0.00    +0.000 C 
ATOM     19  C   UNL     1      -0.049  10.949  18.555  0.00  0.00    +0.000 A 
BRANCH  19  20
ATOM     20  C   UNL     1       0.811   9.793  18.903  0.00  0.00    +0.000 A 
ATOM     21  C   UNL     1       0.841   9.279  20.211  0.00  0.00    +0.000 A 
ATOM     22  C   UNL     1       1.533   8.102  20.521  0.00  0.00    +0.000 A 
ATOM     23  C   UNL     1       2.270   7.465  19.536  0.00  0.00    +0.000 A 
ATOM     24  F   UNL     1       2.939   6.343  19.828  0.00  0.00    +0.000 F 
ATOM     25  C   UNL     1       2.314   7.972  18.248  0.00  0.00    +0.000 A 
ATOM     26  C   UNL     1       1.561   9.106  17.929  0.00  0.00    +0.000 A 
ENDBRANCH  19  20
ENDBRANCH  11  14
TORSDOF 2
ENDMDL
MODEL 3
REMARK VINA RESULT:      -6.9      9.089     11.804
REMARK  Name = 
REMARK  5 active torsions:
REMARK  status: ('A' for Active; 'I' for Inactive)
REMARK    1  A    between atoms: C_1  and  N_2
REMARK    2  A    between atoms: C_8  and  C_9
REMARK    3  A    between atoms: C_11  and  C_12
REMARK    4  A    between atoms: N_15  and  C_16
REMARK    5  A    between atoms: C_17  and  C_18
REMARK                            x       y       z     vdW  Elec       q    Type
REMARK                         _______ _______ _______ _____ _____    ______ ____
ROOT
ATOM      1  C   UNL     1      -3.064  11.381  16.810  0.00  0.00    +0.000 C 
ATOM      2  N   UNL     1      -3.432  11.919  18.099  0.00  0.00    +0.000 N 
ATOM      3  C   UNL     1      -4.646  11.672  18.691  0.00  0.00    +0.000 A 
ATOM      4  N   UNL     1      -5.535  10.981  18.038  0.00  0.00    +0.000 NA
ATOM      5  C   UNL     1      -6.768  10.757  18.589  0.00  0.00    +0.000 A 
ATOM      6  N   UNL     1      -7.172  11.127  19.761  0.00  0.00    +0.000 NA
ATOM      7  N   UNL     1      -6.243  11.806  20.460  0.00  0.00    +0.000 N 
ATOM      8  C   UNL     1      -6.379  12.332  21.725  0.00  0.00    +0.000 A 
ATOM      9  C   UNL     1      -7.635  12.254  22.506  0.00  0.00    +0.000 C 
ATOM     10  N   UNL     1      -5.270  12.941  22.094  0.00  0.00    +0.000 NA
ATOM     11  C   UNL     1      -4.425  12.868  21.007  0.00  0.00    +0.000 A 
ATOM     12  C   UNL     1      -4.998  12.128  20.000  0.00  0.00    +0.000 A 
ATOM     13  H   UNL     1      -3.035  12.836  18.287  0.00  0.00    +0.000 HD
ENDROOT
BRANCH  11  14
ATOM     14  C   UNL     1      -3.165  13.619  21.047  0.00  0.00    +0.000 A 
ATOM     15  C   UNL     1      -3.066  15.004  20.825  0.00  0.00    +0.000 A 
ATOM     16  N   UNL     1      -1.840  15.470  21.044  0.00  0.00    +0.000 NA
ATOM     17  N   UNL     1      -1.117  14.360  21.303  0.00  0.00    +0.000 N 
ATOM     18  C   UNL     1       0.277  14.556  21.638  0.00  0.00    +0.000 C 
ATOM     19  C   UNL     1      -1.853  13.183  21.265  0.00  0.00    +0.000 A 
BRANCH  19  20
ATOM     20  C   UNL     1      -1.302  11.816  21.432  0.00  0.00    +0.000 A 
ATOM     21  C   UNL     1      -0.808  11.095  20.332  0.00  0.00    +0.000 A 
ATOM     22  C   UNL     1      -0.152   9.868  20.495  0.00  0.00    +0.000 A 
ATOM     23  C   UNL     1      -0.053   9.310  21.759  0.00  0.00    +0.000 A 
ATOM     24  F   UNL     1       0.567   8.134  21.919  0.00  0.00    +0.000 F 
ATOM     25  C   UNL     1      -0.580   9.963  22.861  0.00  0.00    +0.000 A 
ATOM     26  C   UNL     1      -1.167  11.222  22.700  0.00  0.00    +0.000 A 
ENDBRANCH  19  20
ENDBRANCH  11  14
TORSDOF 2
ENDMDL
MODEL 4
REMARK VINA RESULT:      -6.7      1.685      2.575
REMARK  Name = 
REMARK  5 active torsions:
REMARK  status: ('A' for Active; 'I' for Inactive)
REMARK    1  A    between atoms: C_1  and  N_2
REMARK    2  A    between atoms: C_8  and  C_9
REMARK    3  A    between atoms: C_11  and  C_12
REMARK    4  A    between atoms: N_15  and  C_16
REMARK    5  A    between atoms: C_17  and  C_18
REMARK                            x       y       z     vdW  Elec       q    Type
REMARK                         _______ _______ _______ _____ _____    ______ ____
ROOT
ATOM      1  C   UNL     1       2.164   3.804  21.643  0.00  0.00    +0.000 C 
ATOM      2  N   UNL     1       2.477   4.661  20.523  0.00  0.00    +0.000 N 
ATOM      3  C   UNL     1       2.004   5.944  20.410  0.00  0.00    +0.000 A 
ATOM      4  N   UNL     1       1.180   6.392  21.314  0.00  0.00    +0.000 NA
ATOM      5  C   UNL     1       0.660   7.654  21.202  0.00  0.00    +0.000 A 
ATOM      6  N   UNL     1       0.932   8.525  20.285  0.00  0.00    +0.000 NA
ATOM      7  N   UNL     1       1.816   8.084  19.369  0.00  0.00    +0.000 N 
ATOM      8  C   UNL     1       2.291   8.776  18.278  0.00  0.00    +0.000 A 
ATOM      9  C   UNL     1       1.843  10.142  17.923  0.00  0.00    +0.000 C 
ATOM     10  N   UNL     1       3.136   8.031  17.593  0.00  0.00    +0.000 NA
ATOM     11  C   UNL     1       3.148   6.804  18.221  0.00  0.00    +0.000 A 
ATOM     12  C   UNL     1       2.366   6.835  19.352  0.00  0.00    +0.000 A 
ATOM     13  H   UNL     1       2.590   4.160  19.645  0.00  0.00    +0.000 HD
ENDROOT
BRANCH  11  14
ATOM     14  C   UNL     1       3.867   5.696  17.582  0.00  0.00    +0.000 A 
ATOM     15  C   UNL     1       3.249   4.522  17.117  0.00  0.00    +0.000 A 
ATOM     16  N   UNL     1       4.091   3.728  16.461  0.00  0.00    +0.000 NA
ATOM     17  N   UNL     1       5.284   4.343  16.599  0.00  0.00    +0.000 N 
ATOM     18  C   UNL     1       6.413   3.729  15.932  0.00  0.00    +0.000 C 
ATOM     19  C   UNL     1       5.231   5.526  17.324  0.00  0.00    +0.000 A 
BRANCH  19  20
ATOM     20  C   UNL     1       6.398   6.363  17.695  0.00  0.00    +0.000 A 
ATOM     21  C   UNL     1       6.627   7.604  17.078  0.00  0.00    +0.000 A 
ATOM     22  C   UNL     1       7.636   8.468  17.519  0.00  0.00    +0.000 A 
ATOM     23  C   UNL     1       8.483   8.063  18.539  0.00  0.00    +0.000 A 
ATOM     24  F   UNL     1       9.453   8.882  18.961  0.00  0.00    +0.000 F 
ATOM     25  C   UNL     1       8.327   6.822  19.134  0.00  0.00    +0.000 A 
ATOM     26  C   UNL     1       7.270   5.997  18.738  0.00  0.00    +0.000 A 
ENDBRANCH  19  20
ENDBRANCH  11  14
TORSDOF 2
ENDMDL
MODEL 5
REMARK VINA RESULT:      -6.7      9.281     11.989
REMARK  Name = 
REMARK  5 active torsions:
REMARK  status: ('A' for Active; 'I' for Inactive)
REMARK    1  A    between atoms: C_1  and  N_2
REMARK    2  A    between atoms: C_8  and  C_9
REMARK    3  A    between atoms: C_11  and  C_12
REMARK    4  A    between atoms: N_15  and  C_16
REMARK    5  A    between atoms: C_17  and  C_18
REMARK                            x       y       z     vdW  Elec       q    Type
REMARK                         _______ _______ _______ _____ _____    ______ ____
ROOT
ATOM      1  C   UNL     1      -2.735  11.465  17.024  0.00  0.00    +0.000 C 
ATOM      2  N   UNL     1      -3.216  12.037  18.261  0.00  0.00    +0.000 N 
ATOM      3  C   UNL     1      -4.455  11.756  18.780  0.00  0.00    +0.000 A 
ATOM      4  N   UNL     1      -5.264  10.997  18.099  0.00  0.00    +0.000 NA
ATOM      5  C   UNL     1      -6.522  10.736  18.575  0.00  0.00    +0.000 A 
ATOM      6  N   UNL     1      -7.023  11.134  19.700  0.00  0.00    +0.000 NA
ATOM      7  N   UNL     1      -6.175  11.885  20.430  0.00  0.00    +0.000 N 
ATOM      8  C   UNL     1      -6.423  12.454  21.658  0.00  0.00    +0.000 A 
ATOM      9  C   UNL     1      -7.726  12.348  22.355  0.00  0.00    +0.000 C 
ATOM     10  N   UNL     1      -5.371  13.131  22.073  0.00  0.00    +0.000 NA
ATOM     11  C   UNL     1      -4.450  13.055  21.051  0.00  0.00    +0.000 A 
ATOM     12  C   UNL     1      -4.918  12.247  20.041  0.00  0.00    +0.000 A 
ATOM     13  H   UNL     1      -2.874  12.978  18.434  0.00  0.00    +0.000 HD
ENDROOT
BRANCH  11  14
ATOM     14  C   UNL     1      -3.231  13.866  21.143  0.00  0.00    +0.000 A 
ATOM     15  C   UNL     1      -3.190  15.253  20.914  0.00  0.00    +0.000 A 
ATOM     16  N   UNL     1      -1.999  15.780  21.185  0.00  0.00    +0.000 NA
ATOM     17  N   UNL     1      -1.236  14.708  21.486  0.00  0.00    +0.000 N 
ATOM     18  C   UNL     1       0.130  14.973  21.883  0.00  0.00    +0.000 C 
ATOM     19  C   UNL     1      -1.911  13.496  21.424  0.00  0.00    +0.000 A 
BRANCH  19  20
ATOM     20  C   UNL     1      -1.303  12.159  21.626  0.00  0.00    +0.000 A 
ATOM     21  C   UNL     1      -1.286  11.554  22.894  0.00  0.00    +0.000 A 
ATOM     22  C   UNL     1      -0.850  10.235  23.073  0.00  0.00    +0.000 A 
ATOM     23  C   UNL     1      -0.350   9.530  21.989  0.00  0.00    +0.000 A 
ATOM     24  F   UNL     1       0.074   8.272  22.155  0.00  0.00    +0.000 F 
ATOM     25  C   UNL     1      -0.296  10.112  20.734  0.00  0.00    +0.000 A 
ATOM     26  C   UNL     1      -0.802  11.403  20.550  0.00  0.00    +0.000 A 
ENDBRANCH  19  20
ENDBRANCH  11  14
TORSDOF 2
ENDMDL
MODEL 6
REMARK VINA RESULT:      -6.6      7.578     10.185
REMARK  Name = 
REMARK  5 active torsions:
REMARK  status: ('A' for Active; 'I' for Inactive)
REMARK    1  A    between atoms: C_1  and  N_2
REMARK    2  A    between atoms: C_8  and  C_9
REMARK    3  A    between atoms: C_11  and  C_12
REMARK    4  A    between atoms: N_15  and  C_16
REMARK    5  A    between atoms: C_17  and  C_18
REMARK                            x       y       z     vdW  Elec       q    Type
REMARK                         _______ _______ _______ _____ _____    ______ ____
ROOT
ATOM      1  C   UNL     1      -2.668  10.761  15.556  0.00  0.00    +0.000 C 
ATOM      2  N   UNL     1      -2.510  11.416  16.835  0.00  0.00    +0.000 N 
ATOM      3  C   UNL     1      -3.529  11.521  17.749  0.00  0.00    +0.000 A 
ATOM      4  N   UNL     1      -4.709  11.075  17.429  0.00  0.00    +0.000 NA
ATOM      5  C   UNL     1      -5.752  11.207  18.307  0.00  0.00    +0.000 A 
ATOM      6  N   UNL     1      -5.703  11.706  19.500  0.00  0.00    +0.000 NA
ATOM      7  N   UNL     1      -4.475  12.130  19.854  0.00  0.00    +0.000 N 
ATOM      8  C   UNL     1      -4.113  12.710  21.049  0.00  0.00    +0.000 A 
ATOM      9  C   UNL     1      -5.075  12.995  22.139  0.00  0.00    +0.000 C 
ATOM     10  N   UNL     1      -2.829  13.010  21.046  0.00  0.00    +0.000 NA
ATOM     11  C   UNL     1      -2.371  12.681  19.789  0.00  0.00    +0.000 A 
ATOM     12  C   UNL     1      -3.372  12.093  19.051  0.00  0.00    +0.000 A 
ATOM     13  H   UNL     1      -1.860  12.197  16.816  0.00  0.00    +0.000 HD
ENDROOT
BRANCH  11  14
ATOM     14  C   UNL     1      -1.006  13.066  19.416  0.00  0.00    +0.000 A 
ATOM     15  C   UNL     1      -0.669  14.297  18.825  0.00  0.00    +0.000 A 
ATOM     16  N   UNL     1       0.645  14.462  18.703  0.00  0.00    +0.000 NA
ATOM     17  N   UNL     1       1.156  13.284  19.118  0.00  0.00    +0.000 N 
ATOM     18  C   UNL     1       2.599  13.175  19.149  0.00  0.00    +0.000 C 
ATOM     19  C   UNL     1       0.198  12.360  19.516  0.00  0.00    +0.000 A 
BRANCH  19  20
ATOM     20  C   UNL     1       0.469  10.965  19.939  0.00  0.00    +0.000 A 
ATOM     21  C   UNL     1       0.962  10.014  19.030  0.00  0.00    +0.000 A 
ATOM     22  C   UNL     1       1.362   8.738  19.447  0.00  0.00    +0.000 A 
ATOM     23  C   UNL     1       1.197   8.372  20.773  0.00  0.00    +0.000 A 
ATOM     24  F   UNL     1       1.571   7.151  21.176  0.00  0.00    +0.000 F 
ATOM     25  C   UNL     1       0.660   9.261  21.689  0.00  0.00    +0.000 A 
ATOM     26  C   UNL     1       0.333  10.558  21.279  0.00  0.00    +0.000 A 
ENDBRANCH  19  20
ENDBRANCH  11  14
TORSDOF 2
ENDMDL
MODEL 7
REMARK VINA RESULT:      -6.5      6.174      9.507
REMARK  Name = 
REMARK  5 active torsions:
REMARK  status: ('A' for Active; 'I' for Inactive)
REMARK    1  A    between atoms: C_1  and  N_2
REMARK    2  A    between atoms: C_8  and  C_9
REMARK    3  A    between atoms: C_11  and  C_12
REMARK    4  A    between atoms: N_15  and  C_16
REMARK    5  A    between atoms: C_17  and  C_18
REMARK                            x       y       z     vdW  Elec       q    Type
REMARK                         _______ _______ _______ _____ _____    ______ ____
ROOT
ATOM      1  C   UNL     1      -0.749  10.519  22.973  0.00  0.00    +0.000 C 
ATOM      2  N   UNL     1      -0.045  10.640  21.717  0.00  0.00    +0.000 N 
ATOM      3  C   UNL     1       0.563   9.577  21.097  0.00  0.00    +0.000 A 
ATOM      4  N   UNL     1       0.569   8.420  21.695  0.00  0.00    +0.000 NA
ATOM      5  C   UNL     1       1.206   7.354  21.117  0.00  0.00    +0.000 A 
ATOM      6  N   UNL     1       1.798   7.335  19.967  0.00  0.00    +0.000 NA
ATOM      7  N   UNL     1       1.759   8.517  19.323  0.00  0.00    +0.000 N 
ATOM      8  C   UNL     1       2.304   8.808  18.093  0.00  0.00    +0.000 A 
ATOM      9  C   UNL     1       3.078   7.828  17.295  0.00  0.00    +0.000 C 
ATOM     10  N   UNL     1       2.083  10.068  17.776  0.00  0.00    +0.000 NA
ATOM     11  C   UNL     1       1.442  10.620  18.865  0.00  0.00    +0.000 A 
ATOM     12  C   UNL     1       1.194   9.658  19.816  0.00  0.00    +0.000 A 
ATOM     13  H   UNL     1       0.416  11.537  21.592  0.00  0.00    +0.000 HD
ENDROOT
BRANCH  11  14
ATOM     14  C   UNL     1       1.220  12.070  18.887  0.00  0.00    +0.000 A 
ATOM     15  C   UNL     1       2.246  13.022  19.028  0.00  0.00    +0.000 A 
ATOM     16  N   UNL     1       1.807  14.270  18.887  0.00  0.00    +0.000 NA
ATOM     17  N   UNL     1       0.471  14.127  18.763  0.00  0.00    +0.000 N 
ATOM     18  C   UNL     1      -0.294  15.335  18.538  0.00  0.00    +0.000 C 
ATOM     19  C   UNL     1       0.034  12.809  18.811  0.00  0.00    +0.000 A 
BRANCH  19  20
ATOM     20  C   UNL     1      -1.381  12.368  18.781  0.00  0.00    +0.000 A 
ATOM     21  C   UNL     1      -2.255  12.660  19.842  0.00  0.00    +0.000 A 
ATOM     22  C   UNL     1      -3.625  12.381  19.763  0.00  0.00    +0.000 A 
ATOM     23  C   UNL     1      -4.124  11.731  18.645  0.00  0.00    +0.000 A 
ATOM     24  F   UNL     1      -5.432  11.456  18.567  0.00  0.00    +0.000 F 
ATOM     25  C   UNL     1      -3.285  11.374  17.603  0.00  0.00    +0.000 A 
ATOM     26  C   UNL     1      -1.932  11.724  17.658  0.00  0.00    +0.000 A 
ENDBRANCH  19  20
ENDBRANCH  11  14
TORSDOF 2
ENDMDL
MODEL 8
REMARK VINA RESULT:      -6.5      7.593     11.445
REMARK  Name = 
REMARK  5 active torsions:
REMARK  status: ('A' for Active; 'I' for Inactive)
REMARK    1  A    between atoms: C_1  and  N_2
REMARK    2  A    between atoms: C_8  and  C_9
REMARK    3  A    between atoms: C_11  and  C_12
REMARK    4  A    between atoms: N_15  and  C_16
REMARK    5  A    between atoms: C_17  and  C_18
REMARK                            x       y       z     vdW  Elec       q    Type
REMARK                         _______ _______ _______ _____ _____    ______ ____
ROOT
ATOM      1  C   UNL     1      -0.362  16.119  18.989  0.00  0.00    +0.000 C 
ATOM      2  N   UNL     1      -0.631  14.703  18.889  0.00  0.00    +0.000 N 
ATOM      3  C   UNL     1       0.353  13.770  18.678  0.00  0.00    +0.000 A 
ATOM      4  N   UNL     1       1.575  14.176  18.490  0.00  0.00    +0.000 NA
ATOM      5  C   UNL     1       2.567  13.268  18.236  0.00  0.00    +0.000 A 
ATOM      6  N   UNL     1       2.449  11.980  18.200  0.00  0.00    +0.000 NA
ATOM      7  N   UNL     1       1.195  11.549  18.436  0.00  0.00    +0.000 N 
ATOM      8  C   UNL     1       0.758  10.244  18.457  0.00  0.00    +0.000 A 
ATOM      9  C   UNL     1       1.639   9.088  18.169  0.00  0.00    +0.000 C 
ATOM     10  N   UNL     1      -0.535  10.193  18.711  0.00  0.00    +0.000 NA
ATOM     11  C   UNL     1      -0.952  11.505  18.782  0.00  0.00    +0.000 A 
ATOM     12  C   UNL     1       0.118  12.359  18.657  0.00  0.00    +0.000 A 
ATOM     13  H   UNL     1      -1.532  14.488  18.470  0.00  0.00    +0.000 HD
ENDROOT
BRANCH  11  14
ATOM     14  C   UNL     1      -2.391  11.778  18.879  0.00  0.00    +0.000 A 
ATOM     15  C   UNL     1      -3.312  11.523  17.847  0.00  0.00    +0.000 A 
ATOM     16  N   UNL     1      -4.570  11.733  18.223  0.00  0.00    +0.000 NA
ATOM     17  N   UNL     1      -4.453  12.231  19.471  0.00  0.00    +0.000 N 
ATOM     18  C   UNL     1      -5.684  12.515  20.177  0.00  0.00    +0.000 C 
ATOM     19  C   UNL     1      -3.142  12.340  19.917  0.00  0.00    +0.000 A 
BRANCH  19  20
ATOM     20  C   UNL     1      -2.717  12.927  21.211  0.00  0.00    +0.000 A 
ATOM     21  C   UNL     1      -2.066  12.147  22.182  0.00  0.00    +0.000 A 
ATOM     22  C   UNL     1      -1.530  12.718  23.343  0.00  0.00    +0.000 A 
ATOM     23  C   UNL     1      -1.709  14.071  23.582  0.00  0.00    +0.000 A 
ATOM     24  F   UNL     1      -1.204  14.621  24.694  0.00  0.00    +0.000 F 
ATOM     25  C   UNL     1      -2.396  14.863  22.677  0.00  0.00    +0.000 A 
ATOM     26  C   UNL     1      -2.864  14.299  21.486  0.00  0.00    +0.000 A 
ENDBRANCH  19  20
ENDBRANCH  11  14
TORSDOF 2
ENDMDL
MODEL 9
REMARK VINA RESULT:      -6.5      7.694     10.194
REMARK  Name = 
REMARK  5 active torsions:
REMARK  status: ('A' for Active; 'I' for Inactive)
REMARK    1  A    between atoms: C_1  and  N_2
REMARK    2  A    between atoms: C_8  and  C_9
REMARK    3  A    between atoms: C_11  and  C_12
REMARK    4  A    between atoms: N_15  and  C_16
REMARK    5  A    between atoms: C_17  and  C_18
REMARK                            x       y       z     vdW  Elec       q    Type
REMARK                         _______ _______ _______ _____ _____    ______ ____
ROOT
ATOM      1  C   UNL     1      -2.682  10.905  15.737  0.00  0.00    +0.000 C 
ATOM      2  N   UNL     1      -2.451  11.566  17.001  0.00  0.00    +0.000 N 
ATOM      3  C   UNL     1      -3.408  11.656  17.980  0.00  0.00    +0.000 A 
ATOM      4  N   UNL     1      -4.600  11.189  17.741  0.00  0.00    +0.000 NA
ATOM      5  C   UNL     1      -5.584  11.306  18.686  0.00  0.00    +0.000 A 
ATOM      6  N   UNL     1      -5.464  11.809  19.872  0.00  0.00    +0.000 NA
ATOM      7  N   UNL     1      -4.222  12.256  20.143  0.00  0.00    +0.000 N 
ATOM      8  C   UNL     1      -3.792  12.845  21.310  0.00  0.00    +0.000 A 
ATOM      9  C   UNL     1      -4.684  13.117  22.461  0.00  0.00    +0.000 C 
ATOM     10  N   UNL     1      -2.516  13.167  21.221  0.00  0.00    +0.000 NA
ATOM     11  C   UNL     1      -2.138  12.842  19.936  0.00  0.00    +0.000 A 
ATOM     12  C   UNL     1      -3.175  12.235  19.268  0.00  0.00    +0.000 A 
ATOM     13  H   UNL     1      -1.818  12.358  16.937  0.00  0.00    +0.000 HD
ENDROOT
BRANCH  11  14
ATOM     14  C   UNL     1      -0.807  13.250  19.473  0.00  0.00    +0.000 A 
ATOM     15  C   UNL     1      -0.534  14.480  18.848  0.00  0.00    +0.000 A 
ATOM     16  N   UNL     1       0.766  14.669  18.640  0.00  0.00    +0.000 NA
ATOM     17  N   UNL     1       1.326  13.506  19.034  0.00  0.00    +0.000 N 
ATOM     18  C   UNL     1       2.770  13.426  18.974  0.00  0.00    +0.000 C 
ATOM     19  C   UNL     1       0.415  12.569  19.503  0.00  0.00    +0.000 A 
BRANCH  19  20
ATOM     20  C   UNL     1       0.741  11.185  19.923  0.00  0.00    +0.000 A 
ATOM     21  C   UNL     1       0.648  10.795  21.270  0.00  0.00    +0.000 A 
ATOM     22  C   UNL     1       0.809   9.459  21.660  0.00  0.00    +0.000 A 
ATOM     23  C   UNL     1       1.145   8.508  20.710  0.00  0.00    +0.000 A 
ATOM     24  F   UNL     1       1.307   7.231  21.079  0.00  0.00    +0.000 F 
ATOM     25  C   UNL     1       1.303   8.863  19.381  0.00  0.00    +0.000 A 
ATOM     26  C   UNL     1       1.068  10.184  18.989  0.00  0.00    +0.000 A 
ENDBRANCH  19  20
ENDBRANCH  11  14
TORSDOF 2
ENDMDL
