MODEL 1
REMARK VINA RESULT:      -7.4      0.000      0.000
REMARK  Name = 
REMARK  3 active torsions:
REMARK  status: ('A' for Active; 'I' for Inactive)
REMARK    1  A    between atoms: C_1  and  C_2
REMARK    2  A    between atoms: C_5  and  O_6
REMARK    3  A    between atoms: O_6  and  C_7
REMARK                            x       y       z     vdW  Elec       q    Type
REMARK                         _______ _______ _______ _____ _____    ______ ____
ROOT
ATOM      1  C   UNL     1       2.538   5.907  19.095  0.00  0.00    +0.000 C 
ATOM      2  C   UNL     1       2.243   6.966  18.016  0.00  0.00    +0.000 C 
ATOM      3  C   UNL     1       2.404   8.386  18.544  0.00  0.00    +0.000 C 
ATOM      4  N   UNL     1       1.467   8.544  19.648  0.00  0.00    +0.000 N 
ATOM      5  C   UNL     1       0.716   9.704  19.779  0.00  0.00    +0.000 A 
ATOM      6  C   UNL     1      -0.247  10.039  18.663  0.00  0.00    +0.000 A 
ATOM      7  C   UNL     1      -1.027  11.119  18.763  0.00  0.00    +0.000 A 
ATOM      8  C   UNL     1      -0.893  11.935  19.903  0.00  0.00    +0.000 A 
ATOM      9  N   UNL     1      -1.463  13.036  20.319  0.00  0.00    +0.000 NA
ATOM     10  N   UNL     1      -0.882  13.320  21.537  0.00  0.00    +0.000 NA
ATOM     11  N   UNL     1       0.024  12.407  21.869  0.00  0.00    +0.000 NA
ATOM     12  N   UNL     1       0.028  11.530  20.855  0.00  0.00    +0.000 N 
ATOM     13  N   UNL     1       0.831  10.436  20.856  0.00  0.00    +0.000 NA
ATOM     14  C   UNL     1       1.831   7.735  20.812  0.00  0.00    +0.000 C 
ATOM     15  C   UNL     1       1.792   6.253  20.407  0.00  0.00    +0.000 C 
ENDROOT
BRANCH   1  16
ATOM     16  O   UNL     1       3.961   5.692  19.208  0.00  0.00    +0.000 OA
BRANCH  16  21
ATOM     17  C   UNL     1       7.076   4.736  14.433  0.00  0.00    +0.000 C 
ATOM     18  C   UNL     1       6.584   4.601  15.878  0.00  0.00    +0.000 C 
ATOM     19  C   UNL     1       6.921   5.847  16.723  0.00  0.00    +0.000 C 
ATOM     20  C   UNL     1       6.212   5.902  18.091  0.00  0.00    +0.000 C 
ATOM     21  C   UNL     1       4.703   5.621  17.975  0.00  0.00    +0.000 C 
ATOM     22  C   UNL     1       4.585   4.218  17.341  0.00  0.00    +0.000 C 
ATOM     23  C   UNL     1       5.079   4.309  15.895  0.00  0.00    +0.000 C 
ENDBRANCH  16  21
ENDBRANCH   1  16
TORSDOF 2
ENDMDL
MODEL 2
REMARK VINA RESULT:      -7.3      1.376      1.748
REMARK  Name = 
REMARK  3 active torsions:
REMARK  status: ('A' for Active; 'I' for Inactive)
REMARK    1  A    between atoms: C_1  and  C_2
REMARK    2  A    between atoms: C_5  and  O_6
REMARK    3  A    between atoms: O_6  and  C_7
REMARK                            x       y       z     vdW  Elec       q    Type
REMARK                         _______ _______ _______ _____ _____    ______ ____
ROOT
ATOM      1  C   UNL     1       2.809   5.164  18.108  0.00  0.00    +0.000 C 
ATOM      2  C   UNL     1       2.719   6.632  17.652  0.00  0.00    +0.000 C 
ATOM      3  C   UNL     1       2.887   7.606  18.812  0.00  0.00    +0.000 C 
ATOM      4  N   UNL     1       1.823   7.327  19.767  0.00  0.00    +0.000 N 
ATOM      5  C   UNL     1       1.127   8.363  20.373  0.00  0.00    +0.000 A 
ATOM      6  C   UNL     1       0.340   9.291  19.477  0.00  0.00    +0.000 A 
ATOM      7  C   UNL     1      -0.385  10.275  20.016  0.00  0.00    +0.000 A 
ATOM      8  C   UNL     1      -0.357  10.435  21.416  0.00  0.00    +0.000 A 
ATOM      9  N   UNL     1      -0.915  11.265  22.259  0.00  0.00    +0.000 NA
ATOM     10  N   UNL     1      -0.485  10.872  23.509  0.00  0.00    +0.000 NA
ATOM     11  N   UNL     1       0.317   9.815  23.438  0.00  0.00    +0.000 NA
ATOM     12  N   UNL     1       0.406   9.528  22.131  0.00  0.00    +0.000 N 
ATOM     13  N   UNL     1       1.140   8.481  21.675  0.00  0.00    +0.000 NA
ATOM     14  C   UNL     1       1.985   6.029  20.423  0.00  0.00    +0.000 C 
ATOM     15  C   UNL     1       1.917   4.929  19.351  0.00  0.00    +0.000 C 
ENDROOT
BRANCH   1  16
ATOM     16  O   UNL     1       4.190   4.763  18.228  0.00  0.00    +0.000 OA
BRANCH  16  21
ATOM     17  C   UNL     1       7.606   5.036  13.573  0.00  0.00    +0.000 C 
ATOM     18  C   UNL     1       6.956   4.487  14.847  0.00  0.00    +0.000 C 
ATOM     19  C   UNL     1       7.379   5.282  16.100  0.00  0.00    +0.000 C 
ATOM     20  C   UNL     1       6.550   4.971  17.363  0.00  0.00    +0.000 C 
ATOM     21  C   UNL     1       5.036   5.006  17.088  0.00  0.00    +0.000 C 
ATOM     22  C   UNL     1       4.787   3.956  15.984  0.00  0.00    +0.000 C 
ATOM     23  C   UNL     1       5.431   4.464  14.691  0.00  0.00    +0.000 C 
ENDBRANCH  16  21
ENDBRANCH   1  16
TORSDOF 2
ENDMDL
MODEL 3
REMARK VINA RESULT:      -7.2      3.926      8.828
REMARK  Name = 
REMARK  3 active torsions:
REMARK  status: ('A' for Active; 'I' for Inactive)
REMARK    1  A    between atoms: C_1  and  C_2
REMARK    2  A    between atoms: C_5  and  O_6
REMARK    3  A    between atoms: O_6  and  C_7
REMARK                            x       y       z     vdW  Elec       q    Type
REMARK                         _______ _______ _______ _____ _____    ______ ____
ROOT
ATOM      1  C   UNL     1       1.292   7.565  19.782  0.00  0.00    +0.000 C 
ATOM      2  C   UNL     1       1.856   6.143  19.963  0.00  0.00    +0.000 C 
ATOM      3  C   UNL     1       3.348   6.073  19.661  0.00  0.00    +0.000 C 
ATOM      4  N   UNL     1       3.529   6.496  18.279  0.00  0.00    +0.000 N 
ATOM      5  C   UNL     1       4.397   5.813  17.438  0.00  0.00    +0.000 A 
ATOM      6  C   UNL     1       4.091   4.361  17.154  0.00  0.00    +0.000 A 
ATOM      7  C   UNL     1       4.869   3.672  16.314  0.00  0.00    +0.000 A 
ATOM      8  C   UNL     1       5.980   4.326  15.746  0.00  0.00    +0.000 A 
ATOM      9  N   UNL     1       6.931   3.977  14.919  0.00  0.00    +0.000 NA
ATOM     10  N   UNL     1       7.714   5.099  14.753  0.00  0.00    +0.000 NA
ATOM     11  N   UNL     1       7.250   6.125  15.459  0.00  0.00    +0.000 NA
ATOM     12  N   UNL     1       6.161   5.656  16.086  0.00  0.00    +0.000 N 
ATOM     13  N   UNL     1       5.407   6.442  16.897  0.00  0.00    +0.000 NA
ATOM     14  C   UNL     1       3.237   7.916  18.085  0.00  0.00    +0.000 C 
ATOM     15  C   UNL     1       1.761   8.163  18.434  0.00  0.00    +0.000 C 
ENDROOT
BRANCH   1  16
ATOM     16  O   UNL     1       1.555   8.359  20.959  0.00  0.00    +0.000 OA
BRANCH  16  21
ATOM     17  C   UNL     1      -2.118  12.463  22.713  0.00  0.00    +0.000 C 
ATOM     18  C   UNL     1      -0.816  11.671  22.561  0.00  0.00    +0.000 C 
ATOM     19  C   UNL     1      -0.895  10.291  23.246  0.00  0.00    +0.000 C 
ATOM     20  C   UNL     1       0.262   9.335  22.891  0.00  0.00    +0.000 C 
ATOM     21  C   UNL     1       0.512   9.261  21.375  0.00  0.00    +0.000 C 
ATOM     22  C   UNL     1       0.826  10.707  20.931  0.00  0.00    +0.000 C 
ATOM     23  C   UNL     1      -0.453  11.536  21.078  0.00  0.00    +0.000 C 
ENDBRANCH  16  21
ENDBRANCH   1  16
TORSDOF 2
ENDMDL
MODEL 4
REMARK VINA RESULT:      -7.2      4.079      8.679
REMARK  Name = 
REMARK  3 active torsions:
REMARK  status: ('A' for Active; 'I' for Inactive)
REMARK    1  A    between atoms: C_1  and  C_2
REMARK    2  A    between atoms: C_5  and  O_6
REMARK    3  A    between atoms: O_6  and  C_7
REMARK                            x       y       z     vdW  Elec       q    Type
REMARK                         _______ _______ _______ _____ _____    ______ ____
ROOT
ATOM      1  C   UNL     1       0.755   9.914  18.924  0.00  0.00    +0.000 C 
ATOM      2  C   UNL     1       0.525   9.106  20.215  0.00  0.00    +0.000 C 
ATOM      3  C   UNL     1       1.765   8.326  20.634  0.00  0.00    +0.000 C 
ATOM      4  N   UNL     1       2.092   7.417  19.544  0.00  0.00    +0.000 N 
ATOM      5  C   UNL     1       2.467   6.106  19.804  0.00  0.00    +0.000 A 
ATOM      6  C   UNL     1       1.458   5.219  20.495  0.00  0.00    +0.000 A 
ATOM      7  C   UNL     1       1.752   3.936  20.725  0.00  0.00    +0.000 A 
ATOM      8  C   UNL     1       3.023   3.463  20.342  0.00  0.00    +0.000 A 
ATOM      9  N   UNL     1       3.638   2.312  20.416  0.00  0.00    +0.000 NA
ATOM     10  N   UNL     1       4.877   2.513  19.845  0.00  0.00    +0.000 NA
ATOM     11  N   UNL     1       5.020   3.763  19.419  0.00  0.00    +0.000 NA
ATOM     12  N   UNL     1       3.864   4.372  19.722  0.00  0.00    +0.000 N 
ATOM     13  N   UNL     1       3.638   5.676  19.416  0.00  0.00    +0.000 NA
ATOM     14  C   UNL     1       2.555   8.121  18.348  0.00  0.00    +0.000 C 
ATOM     15  C   UNL     1       1.420   9.026  17.844  0.00  0.00    +0.000 C 
ENDROOT
BRANCH   1  16
ATOM     16  O   UNL     1       1.421  11.158  19.226  0.00  0.00    +0.000 OA
BRANCH  16  21
ATOM     17  C   UNL     1      -1.400  16.085  20.313  0.00  0.00    +0.000 C 
ATOM     18  C   UNL     1      -0.240  15.092  20.187  0.00  0.00    +0.000 C 
ATOM     19  C   UNL     1      -0.329  13.963  21.234  0.00  0.00    +0.000 C 
ATOM     20  C   UNL     1       0.633  12.783  20.985  0.00  0.00    +0.000 C 
ATOM     21  C   UNL     1       0.577  12.285  19.530  0.00  0.00    +0.000 C 
ATOM     22  C   UNL     1       0.948  13.503  18.656  0.00  0.00    +0.000 C 
ATOM     23  C   UNL     1      -0.185  14.526  18.763  0.00  0.00    +0.000 C 
ENDBRANCH  16  21
ENDBRANCH   1  16
TORSDOF 2
ENDMDL
MODEL 5
REMARK VINA RESULT:      -7.0      1.057      1.457
REMARK  Name = 
REMARK  3 active torsions:
REMARK  status: ('A' for Active; 'I' for Inactive)
REMARK    1  A    between atoms: C_1  and  C_2
REMARK    2  A    between atoms: C_5  and  O_6
REMARK    3  A    between atoms: O_6  and  C_7
REMARK                            x       y       z     vdW  Elec       q    Type
REMARK                         _______ _______ _______ _____ _____    ______ ____
ROOT
ATOM      1  C   UNL     1       2.577   6.757  18.600  0.00  0.00    +0.000 C 
ATOM      2  C   UNL     1       2.132   8.015  17.832  0.00  0.00    +0.000 C 
ATOM      3  C   UNL     1       2.130   9.257  18.714  0.00  0.00    +0.000 C 
ATOM      4  N   UNL     1       1.206   9.006  19.811  0.00  0.00    +0.000 N 
ATOM      5  C   UNL     1       0.323   9.990  20.233  0.00  0.00    +0.000 A 
ATOM      6  C   UNL     1      -0.698  10.483  19.234  0.00  0.00    +0.000 A 
ATOM      7  C   UNL     1      -1.601  11.395  19.604  0.00  0.00    +0.000 A 
ATOM      8  C   UNL     1      -1.541  11.897  20.920  0.00  0.00    +0.000 A 
ATOM      9  N   UNL     1      -2.231  12.772  21.603  0.00  0.00    +0.000 NA
ATOM     10  N   UNL     1      -1.662  12.799  22.858  0.00  0.00    +0.000 NA
ATOM     11  N   UNL     1      -0.645  11.949  22.950  0.00  0.00    +0.000 NA
ATOM     12  N   UNL     1      -0.557  11.374  21.741  0.00  0.00    +0.000 N 
ATOM     13  N   UNL     1       0.373  10.424  21.464  0.00  0.00    +0.000 NA
ATOM     14  C   UNL     1       1.692   7.973  20.727  0.00  0.00    +0.000 C 
ATOM     15  C   UNL     1       1.824   6.654  19.949  0.00  0.00    +0.000 C 
ENDROOT
BRANCH   1  16
ATOM     16  O   UNL     1       4.017   6.696  18.666  0.00  0.00    +0.000 OA
BRANCH  16  21
ATOM     17  C   UNL     1       6.275   3.775  14.218  0.00  0.00    +0.000 C 
ATOM     18  C   UNL     1       5.265   4.577  15.046  0.00  0.00    +0.000 C 
ATOM     19  C   UNL     1       4.724   3.766  16.241  0.00  0.00    +0.000 C 
ATOM     20  C   UNL     1       3.932   4.598  17.270  0.00  0.00    +0.000 C 
ATOM     21  C   UNL     1       4.676   5.882  17.678  0.00  0.00    +0.000 C 
ATOM     22  C   UNL     1       4.894   6.672  16.370  0.00  0.00    +0.000 C 
ATOM     23  C   UNL     1       5.894   5.896  15.508  0.00  0.00    +0.000 C 
ENDBRANCH  16  21
ENDBRANCH   1  16
TORSDOF 2
ENDMDL
MODEL 6
REMARK VINA RESULT:      -7.0      4.033      9.010
REMARK  Name = 
REMARK  3 active torsions:
REMARK  status: ('A' for Active; 'I' for Inactive)
REMARK    1  A    between atoms: C_1  and  C_2
REMARK    2  A    between atoms: C_5  and  O_6
REMARK    3  A    between atoms: O_6  and  C_7
REMARK                            x       y       z     vdW  Elec       q    Type
REMARK                         _______ _______ _______ _____ _____    ______ ____
ROOT
ATOM      1  C   UNL     1       0.177   9.858  19.824  0.00  0.00    +0.000 C 
ATOM      2  C   UNL     1       0.042   8.814  20.949  0.00  0.00    +0.000 C 
ATOM      3  C   UNL     1       1.361   8.110  21.242  0.00  0.00    +0.000 C 
ATOM      4  N   UNL     1       1.779   7.449  20.013  0.00  0.00    +0.000 N 
ATOM      5  C   UNL     1       2.295   6.161  20.043  0.00  0.00    +0.000 A 
ATOM      6  C   UNL     1       1.392   5.062  20.552  0.00  0.00    +0.000 A 
ATOM      7  C   UNL     1       1.824   3.798  20.556  0.00  0.00    +0.000 A 
ATOM      8  C   UNL     1       3.137   3.540  20.115  0.00  0.00    +0.000 A 
ATOM      9  N   UNL     1       3.874   2.467  19.993  0.00  0.00    +0.000 NA
ATOM     10  N   UNL     1       5.081   2.897  19.485  0.00  0.00    +0.000 NA
ATOM     11  N   UNL     1       5.086   4.212  19.289  0.00  0.00    +0.000 NA
ATOM     12  N   UNL     1       3.872   4.630  19.678  0.00  0.00    +0.000 N 
ATOM     13  N   UNL     1       3.505   5.934  19.603  0.00  0.00    +0.000 NA
ATOM     14  C   UNL     1       2.158   8.399  18.967  0.00  0.00    +0.000 C 
ATOM     15  C   UNL     1       0.929   9.252  18.614  0.00  0.00    +0.000 C 
ENDROOT
BRANCH   1  16
ATOM     16  O   UNL     1       0.705  11.093  20.351  0.00  0.00    +0.000 OA
BRANCH  16  21
ATOM     17  C   UNL     1      -3.398  14.502  22.577  0.00  0.00    +0.000 C 
ATOM     18  C   UNL     1      -2.680  13.227  22.123  0.00  0.00    +0.000 C 
ATOM     19  C   UNL     1      -2.567  13.142  20.587  0.00  0.00    +0.000 C 
ATOM     20  C   UNL     1      -1.615  12.042  20.077  0.00  0.00    +0.000 C 
ATOM     21  C   UNL     1      -0.256  12.068  20.798  0.00  0.00    +0.000 C 
ATOM     22  C   UNL     1      -0.574  11.881  22.297  0.00  0.00    +0.000 C 
ATOM     23  C   UNL     1      -1.302  13.135  22.788  0.00  0.00    +0.000 C 
ENDBRANCH  16  21
ENDBRANCH   1  16
TORSDOF 2
ENDMDL
MODEL 7
REMARK VINA RESULT:      -7.0      3.455      8.984
REMARK  Name = 
REMARK  3 active torsions:
REMARK  status: ('A' for Active; 'I' for Inactive)
REMARK    1  A    between atoms: C_1  and  C_2
REMARK    2  A    between atoms: C_5  and  O_6
REMARK    3  A    between atoms: O_6  and  C_7
REMARK                            x       y       z     vdW  Elec       q    Type
REMARK                         _______ _______ _______ _____ _____    ______ ____
ROOT
ATOM      1  C   UNL     1       0.257   9.829  19.661  0.00  0.00    +0.000 C 
ATOM      2  C   UNL     1       0.569   8.490  20.355  0.00  0.00    +0.000 C 
ATOM      3  C   UNL     1       2.006   8.042  20.123  0.00  0.00    +0.000 C 
ATOM      4  N   UNL     1       2.186   7.898  18.685  0.00  0.00    +0.000 N 
ATOM      5  C   UNL     1       2.873   6.811  18.163  0.00  0.00    +0.000 A 
ATOM      6  C   UNL     1       2.301   5.437  18.422  0.00  0.00    +0.000 A 
ATOM      7  C   UNL     1       2.898   4.361  17.902  0.00  0.00    +0.000 A 
ATOM      8  C   UNL     1       4.077   4.550  17.152  0.00  0.00    +0.000 A 
ATOM      9  N   UNL     1       4.905   3.757  16.524  0.00  0.00    +0.000 NA
ATOM     10  N   UNL     1       5.865   4.579  15.974  0.00  0.00    +0.000 NA
ATOM     11  N   UNL     1       5.628   5.857  16.251  0.00  0.00    +0.000 NA
ATOM     12  N   UNL     1       4.508   5.855  16.989  0.00  0.00    +0.000 N 
ATOM     13  N   UNL     1       3.949   7.004  17.446  0.00  0.00    +0.000 NA
ATOM     14  C   UNL     1       2.141   9.181  17.983  0.00  0.00    +0.000 C 
ATOM     15  C   UNL     1       0.752   9.804  18.195  0.00  0.00    +0.000 C 
ENDROOT
BRANCH   1  16
ATOM     16  O   UNL     1       0.718  10.931  20.472  0.00  0.00    +0.000 OA
BRANCH  16  21
ATOM     17  C   UNL     1      -3.614  13.648  23.168  0.00  0.00    +0.000 C 
ATOM     18  C   UNL     1      -2.836  12.532  22.464  0.00  0.00    +0.000 C 
ATOM     19  C   UNL     1      -2.612  12.837  20.969  0.00  0.00    +0.000 C 
ATOM     20  C   UNL     1      -1.599  11.905  20.272  0.00  0.00    +0.000 C 
ATOM     21  C   UNL     1      -0.296  11.757  21.076  0.00  0.00    +0.000 C 
ATOM     22  C   UNL     1      -0.715  11.196  22.453  0.00  0.00    +0.000 C 
ATOM     23  C   UNL     1      -1.506  12.282  23.186  0.00  0.00    +0.000 C 
ENDBRANCH  16  21
ENDBRANCH   1  16
TORSDOF 2
ENDMDL
MODEL 8
REMARK VINA RESULT:      -7.0      4.046      8.845
REMARK  Name = 
REMARK  3 active torsions:
REMARK  status: ('A' for Active; 'I' for Inactive)
REMARK    1  A    between atoms: C_1  and  C_2
REMARK    2  A    between atoms: C_5  and  O_6
REMARK    3  A    between atoms: O_6  and  C_7
REMARK                            x       y       z     vdW  Elec       q    Type
REMARK                         _______ _______ _______ _____ _____    ______ ____
ROOT
ATOM      1  C   UNL     1       0.402   9.964  19.396  0.00  0.00    +0.000 C 
ATOM      2  C   UNL     1       0.277   9.054  20.633  0.00  0.00    +0.000 C 
ATOM      3  C   UNL     1       1.578   8.326  20.946  0.00  0.00    +0.000 C 
ATOM      4  N   UNL     1       1.912   7.518  19.780  0.00  0.00    +0.000 N 
ATOM      5  C   UNL     1       2.375   6.219  19.929  0.00  0.00    +0.000 A 
ATOM      6  C   UNL     1       1.452   5.223  20.592  0.00  0.00    +0.000 A 
ATOM      7  C   UNL     1       1.832   3.948  20.716  0.00  0.00    +0.000 A 
ATOM      8  C   UNL     1       3.112   3.585  20.251  0.00  0.00    +0.000 A 
ATOM      9  N   UNL     1       3.797   2.472  20.216  0.00  0.00    +0.000 NA
ATOM     10  N   UNL     1       4.996   2.790  19.614  0.00  0.00    +0.000 NA
ATOM     11  N   UNL     1       5.045   4.074  19.275  0.00  0.00    +0.000 NA
ATOM     12  N   UNL     1       3.869   4.586  19.667  0.00  0.00    +0.000 N 
ATOM     13  N   UNL     1       3.553   5.891  19.466  0.00  0.00    +0.000 NA
ATOM     14  C   UNL     1       2.280   8.332  18.621  0.00  0.00    +0.000 C 
ATOM     15  C   UNL     1       1.072   9.198  18.229  0.00  0.00    +0.000 C 
ENDROOT
BRANCH   1  16
ATOM     16  O   UNL     1       1.005  11.223  19.762  0.00  0.00    +0.000 OA
BRANCH  16  21
ATOM     17  C   UNL     1      -2.211  14.790  22.979  0.00  0.00    +0.000 C 
ATOM     18  C   UNL     1      -1.418  14.258  21.781  0.00  0.00    +0.000 C 
ATOM     19  C   UNL     1       0.095  14.189  22.073  0.00  0.00    +0.000 C 
ATOM     20  C   UNL     1       0.912  13.402  21.028  0.00  0.00    +0.000 C 
ATOM     21  C   UNL     1       0.280  12.037  20.704  0.00  0.00    +0.000 C 
ATOM     22  C   UNL     1      -1.141  12.345  20.185  0.00  0.00    +0.000 C 
ATOM     23  C   UNL     1      -1.965  12.891  21.355  0.00  0.00    +0.000 C 
ENDBRANCH  16  21
ENDBRANCH   1  16
TORSDOF 2
ENDMDL
MODEL 9
REMARK VINA RESULT:      -7.0      7.923      9.019
REMARK  Name = 
REMARK  3 active torsions:
REMARK  status: ('A' for Active; 'I' for Inactive)
REMARK    1  A    between atoms: C_1  and  C_2
REMARK    2  A    between atoms: C_5  and  O_6
REMARK    3  A    between atoms: O_6  and  C_7
REMARK                            x       y       z     vdW  Elec       q    Type
REMARK                         _______ _______ _______ _____ _____    ______ ____
ROOT
ATOM      1  C   UNL     1       8.510  14.962  22.672  0.00  0.00    +0.000 C 
ATOM      2  C   UNL     1       8.782  14.710  24.167  0.00  0.00    +0.000 C 
ATOM      3  C   UNL     1       8.381  13.303  24.595  0.00  0.00    +0.000 C 
ATOM      4  N   UNL     1       6.957  13.160  24.329  0.00  0.00    +0.000 N 
ATOM      5  C   UNL     1       6.123  12.544  25.251  0.00  0.00    +0.000 A 
ATOM      6  C   UNL     1       5.999  13.184  26.614  0.00  0.00    +0.000 A 
ATOM      7  C   UNL     1       5.172  12.656  27.521  0.00  0.00    +0.000 A 
ATOM      8  C   UNL     1       4.467  11.485  27.180  0.00  0.00    +0.000 A 
ATOM      9  N   UNL     1       3.610  10.713  27.797  0.00  0.00    +0.000 NA
ATOM     10  N   UNL     1       3.285   9.722  26.896  0.00  0.00    +0.000 NA
ATOM     11  N   UNL     1       3.923   9.883  25.742  0.00  0.00    +0.000 NA
ATOM     12  N   UNL     1       4.668  10.987  25.904  0.00  0.00    +0.000 N 
ATOM     13  N   UNL     1       5.454  11.474  24.910  0.00  0.00    +0.000 NA
ATOM     14  C   UNL     1       6.652  13.150  22.898  0.00  0.00    +0.000 C 
ATOM     15  C   UNL     1       7.081  14.499  22.298  0.00  0.00    +0.000 C 
ENDROOT
BRANCH   1  16
ATOM     16  O   UNL     1       9.585  14.426  21.872  0.00  0.00    +0.000 OA
BRANCH  16  21
ATOM     17  C   UNL     1       8.876   9.953  18.280  0.00  0.00    +0.000 C 
ATOM     18  C   UNL     1       9.573  11.074  19.058  0.00  0.00    +0.000 C 
ATOM     19  C   UNL     1       9.151  12.472  18.562  0.00  0.00    +0.000 C 
ATOM     20  C   UNL     1       9.586  13.634  19.478  0.00  0.00    +0.000 C 
ATOM     21  C   UNL     1       9.243  13.370  20.955  0.00  0.00    +0.000 C 
ATOM     22  C   UNL     1       9.973  12.061  21.327  0.00  0.00    +0.000 C 
ATOM     23  C   UNL     1       9.310  10.913  20.559  0.00  0.00    +0.000 C 
ENDBRANCH  16  21
ENDBRANCH   1  16
TORSDOF 2
ENDMDL
