MODEL 1
REMARK VINA RESULT:      -7.9      0.000      0.000
REMARK  Name = 
REMARK  5 active torsions:
REMARK  status: ('A' for Active; 'I' for Inactive)
REMARK    1  A    between atoms: C_2  and  C_3
REMARK    2  A    between atoms: C_3  and  O_4
REMARK    3  A    between atoms: O_4  and  C_5
REMARK    4  A    between atoms: C_5  and  C_7
REMARK    5  A    between atoms: C_10  and  N_11
REMARK                            x       y       z     vdW  Elec       q    Type
REMARK                         _______ _______ _______ _____ _____    ______ ____
ROOT
ATOM      1  C   UNL     1       3.027   5.418  19.712  0.00  0.00    +0.000 C 
ENDROOT
BRANCH   1   3
ATOM      2  O   UNL     1       2.688   7.494  18.570  0.00  0.00    +0.000 OA
ATOM      3  C   UNL     1       2.520   6.860  19.609  0.00  0.00    +0.000 C 
ATOM      4  N   UNL     1       1.919   7.315  20.769  0.00  0.00    +0.000 N 
ATOM      5  C   UNL     1       1.191   8.506  20.870  0.00  0.00    +0.000 A 
ATOM      6  C   UNL     1       0.816   8.944  22.140  0.00  0.00    +0.000 A 
ATOM      7  C   UNL     1       0.060  10.115  22.263  0.00  0.00    +0.000 A 
ATOM      8  C   UNL     1      -0.312  10.808  21.118  0.00  0.00    +0.000 A 
ATOM      9 CL   UNL     1      -1.247  12.239  21.219  0.00  0.00    +0.000 Cl
ATOM     10  C   UNL     1       0.094  10.302  19.896  0.00  0.00    +0.000 A 
ATOM     11  N   UNL     1       0.828   9.172  19.758  0.00  0.00    +0.000 NA
ATOM     12  H   UNL     1       2.096   6.788  21.621  0.00  0.00    +0.000 HD
ENDBRANCH   1   3
BRANCH   1  13
ATOM     13  O   UNL     1       4.449   5.301  19.680  0.00  0.00    +0.000 OA
BRANCH  13  14
ATOM     14  C   UNL     1       4.910   4.142  19.160  0.00  0.00    +0.000 C 
ATOM     15  O   UNL     1       4.849   3.052  19.710  0.00  0.00    +0.000 OA
BRANCH  14  16
ATOM     16  C   UNL     1       5.520   4.361  17.819  0.00  0.00    +0.000 A 
ATOM     17  C   UNL     1       4.712   4.158  16.690  0.00  0.00    +0.000 A 
ATOM     18  C   UNL     1       5.237   4.309  15.403  0.00  0.00    +0.000 A 
ATOM     19  C   UNL     1       6.581   4.666  15.241  0.00  0.00    +0.000 A 
ATOM     20  C   UNL     1       7.396   4.887  16.360  0.00  0.00    +0.000 A 
ATOM     21  C   UNL     1       6.863   4.736  17.647  0.00  0.00    +0.000 A 
BRANCH  19  22
ATOM     22  N   UNL     1       7.140   4.801  13.889  0.00  0.00    +0.000 N 
ATOM     23  O   UNL     1       6.674   4.075  13.000  0.00  0.00    +0.000 OA
ATOM     24  O   UNL     1       8.044   5.630  13.719  0.00  0.00    +0.000 OA
ENDBRANCH  19  22
ENDBRANCH  14  16
ENDBRANCH  13  14
ENDBRANCH   1  13
TORSDOF 5
ENDMDL
MODEL 2
REMARK VINA RESULT:      -7.7      4.369      5.618
REMARK  Name = 
REMARK  5 active torsions:
REMARK  status: ('A' for Active; 'I' for Inactive)
REMARK    1  A    between atoms: C_2  and  C_3
REMARK    2  A    between atoms: C_3  and  O_4
REMARK    3  A    between atoms: O_4  and  C_5
REMARK    4  A    between atoms: C_5  and  C_7
REMARK    5  A    between atoms: C_10  and  N_11
REMARK                            x       y       z     vdW  Elec       q    Type
REMARK                         _______ _______ _______ _____ _____    ______ ____
ROOT
ATOM      1  C   UNL     1       7.815   4.947  18.438  0.00  0.00    +0.000 C 
ENDROOT
BRANCH   1   3
ATOM      2  O   UNL     1       5.941   5.487  19.826  0.00  0.00    +0.000 OA
ATOM      3  C   UNL     1       6.393   4.735  18.964  0.00  0.00    +0.000 C 
ATOM      4  N   UNL     1       5.753   3.649  18.395  0.00  0.00    +0.000 N 
ATOM      5  C   UNL     1       4.389   3.366  18.542  0.00  0.00    +0.000 A 
ATOM      6  C   UNL     1       3.919   2.134  18.088  0.00  0.00    +0.000 A 
ATOM      7  C   UNL     1       2.555   1.843  18.195  0.00  0.00    +0.000 A 
ATOM      8  C   UNL     1       1.697   2.791  18.738  0.00  0.00    +0.000 A 
ATOM      9 CL   UNL     1       0.018   2.483  18.877  0.00  0.00    +0.000 Cl
ATOM     10  C   UNL     1       2.242   3.991  19.156  0.00  0.00    +0.000 A 
ATOM     11  N   UNL     1       3.561   4.289  19.064  0.00  0.00    +0.000 NA
ATOM     12  H   UNL     1       6.333   2.968  17.913  0.00  0.00    +0.000 HD
ENDBRANCH   1   3
BRANCH   1  13
ATOM     13  O   UNL     1       7.976   4.619  17.058  0.00  0.00    +0.000 OA
BRANCH  13  14
ATOM     14  C   UNL     1       7.514   5.553  16.197  0.00  0.00    +0.000 C 
ATOM     15  O   UNL     1       7.575   6.761  16.370  0.00  0.00    +0.000 OA
BRANCH  14  16
ATOM     16  C   UNL     1       6.901   4.918  14.997  0.00  0.00    +0.000 A 
ATOM     17  C   UNL     1       5.656   4.290  15.153  0.00  0.00    +0.000 A 
ATOM     18  C   UNL     1       5.046   3.642  14.074  0.00  0.00    +0.000 A 
ATOM     19  C   UNL     1       5.685   3.621  12.828  0.00  0.00    +0.000 A 
ATOM     20  C   UNL     1       6.922   4.258  12.654  0.00  0.00    +0.000 A 
ATOM     21  C   UNL     1       7.526   4.906  13.739  0.00  0.00    +0.000 A 
BRANCH  19  22
ATOM     22  N   UNL     1       5.057   2.920  11.701  0.00  0.00    +0.000 N 
ATOM     23  O   UNL     1       4.085   3.461  11.156  0.00  0.00    +0.000 OA
ATOM     24  O   UNL     1       5.535   1.828  11.363  0.00  0.00    +0.000 OA
ENDBRANCH  19  22
ENDBRANCH  14  16
ENDBRANCH  13  14
ENDBRANCH   1  13
TORSDOF 5
ENDMDL
MODEL 3
REMARK VINA RESULT:      -7.6      4.306      5.610
REMARK  Name = 
REMARK  5 active torsions:
REMARK  status: ('A' for Active; 'I' for Inactive)
REMARK    1  A    between atoms: C_2  and  C_3
REMARK    2  A    between atoms: C_3  and  O_4
REMARK    3  A    between atoms: O_4  and  C_5
REMARK    4  A    between atoms: C_5  and  C_7
REMARK    5  A    between atoms: C_10  and  N_11
REMARK                            x       y       z     vdW  Elec       q    Type
REMARK                         _______ _______ _______ _____ _____    ______ ____
ROOT
ATOM      1  C   UNL     1       7.854   4.975  18.430  0.00  0.00    +0.000 C 
ENDROOT
BRANCH   1   3
ATOM      2  O   UNL     1       5.969   5.692  19.721  0.00  0.00    +0.000 OA
ATOM      3  C   UNL     1       6.429   4.832  18.971  0.00  0.00    +0.000 C 
ATOM      4  N   UNL     1       5.795   3.677  18.550  0.00  0.00    +0.000 N 
ATOM      5  C   UNL     1       4.431   3.412  18.724  0.00  0.00    +0.000 A 
ATOM      6  C   UNL     1       3.967   2.129  18.437  0.00  0.00    +0.000 A 
ATOM      7  C   UNL     1       2.603   1.850  18.573  0.00  0.00    +0.000 A 
ATOM      8  C   UNL     1       1.739   2.860  18.977  0.00  0.00    +0.000 A 
ATOM      9 CL   UNL     1       0.059   2.568  19.145  0.00  0.00    +0.000 Cl
ATOM     10  C   UNL     1       2.278   4.107  19.234  0.00  0.00    +0.000 A 
ATOM     11  N   UNL     1       3.597   4.395  19.111  0.00  0.00    +0.000 NA
ATOM     12  H   UNL     1       6.381   2.939  18.167  0.00  0.00    +0.000 HD
ENDBRANCH   1   3
BRANCH   1  13
ATOM     13  O   UNL     1       7.998   4.585  17.066  0.00  0.00    +0.000 OA
BRANCH  13  14
ATOM     14  C   UNL     1       7.500   5.466  16.170  0.00  0.00    +0.000 C 
ATOM     15  O   UNL     1       7.565   6.682  16.269  0.00  0.00    +0.000 OA
BRANCH  14  16
ATOM     16  C   UNL     1       6.842   4.761  15.034  0.00  0.00    +0.000 A 
ATOM     17  C   UNL     1       7.461   4.827  13.776  0.00  0.00    +0.000 A 
ATOM     18  C   UNL     1       6.873   4.220  12.661  0.00  0.00    +0.000 A 
ATOM     19  C   UNL     1       5.657   3.540  12.805  0.00  0.00    +0.000 A 
ATOM     20  C   UNL     1       5.036   3.454  14.058  0.00  0.00    +0.000 A 
ATOM     21  C   UNL     1       5.631   4.063  15.170  0.00  0.00    +0.000 A 
BRANCH  19  22
ATOM     22  N   UNL     1       5.027   2.923  11.630  0.00  0.00    +0.000 N 
ATOM     23  O   UNL     1       5.477   1.837  11.240  0.00  0.00    +0.000 OA
ATOM     24  O   UNL     1       4.085   3.527  11.098  0.00  0.00    +0.000 OA
ENDBRANCH  19  22
ENDBRANCH  14  16
ENDBRANCH  13  14
ENDBRANCH   1  13
TORSDOF 5
ENDMDL
MODEL 4
REMARK VINA RESULT:      -7.5      1.576      2.292
REMARK  Name = 
REMARK  5 active torsions:
REMARK  status: ('A' for Active; 'I' for Inactive)
REMARK    1  A    between atoms: C_2  and  C_3
REMARK    2  A    between atoms: C_3  and  O_4
REMARK    3  A    between atoms: O_4  and  C_5
REMARK    4  A    between atoms: C_5  and  C_7
REMARK    5  A    between atoms: C_10  and  N_11
REMARK                            x       y       z     vdW  Elec       q    Type
REMARK                         _______ _______ _______ _____ _____    ______ ____
ROOT
ATOM      1  C   UNL     1       3.635   3.777  19.878  0.00  0.00    +0.000 C 
ENDROOT
BRANCH   1   3
ATOM      2  O   UNL     1       1.935   5.025  21.011  0.00  0.00    +0.000 OA
ATOM      3  C   UNL     1       2.706   4.982  20.055  0.00  0.00    +0.000 C 
ATOM      4  N   UNL     1       2.832   5.925  19.050  0.00  0.00    +0.000 N 
ATOM      5  C   UNL     1       2.261   7.202  19.085  0.00  0.00    +0.000 A 
ATOM      6  C   UNL     1       2.294   7.971  17.922  0.00  0.00    +0.000 A 
ATOM      7  C   UNL     1       1.759   9.264  17.943  0.00  0.00    +0.000 A 
ATOM      8  C   UNL     1       1.217   9.757  19.123  0.00  0.00    +0.000 A 
ATOM      9 CL   UNL     1       0.561  11.338  19.200  0.00  0.00    +0.000 Cl
ATOM     10  C   UNL     1       1.230   8.933  20.234  0.00  0.00    +0.000 A 
ATOM     11  N   UNL     1       1.742   7.678  20.232  0.00  0.00    +0.000 NA
ATOM     12  H   UNL     1       3.298   5.632  18.195  0.00  0.00    +0.000 HD
ENDBRANCH   1   3
BRANCH   1  13
ATOM     13  O   UNL     1       4.269   3.718  18.601  0.00  0.00    +0.000 OA
BRANCH  13  14
ATOM     14  C   UNL     1       5.503   4.266  18.556  0.00  0.00    +0.000 C 
ATOM     15  O   UNL     1       6.163   4.594  19.531  0.00  0.00    +0.000 OA
BRANCH  14  16
ATOM     16  C   UNL     1       5.964   4.434  17.149  0.00  0.00    +0.000 A 
ATOM     17  C   UNL     1       5.069   4.095  16.122  0.00  0.00    +0.000 A 
ATOM     18  C   UNL     1       5.455   4.193  14.781  0.00  0.00    +0.000 A 
ATOM     19  C   UNL     1       6.746   4.634  14.463  0.00  0.00    +0.000 A 
ATOM     20  C   UNL     1       7.644   4.990  15.478  0.00  0.00    +0.000 A 
ATOM     21  C   UNL     1       7.250   4.891  16.819  0.00  0.00    +0.000 A 
BRANCH  19  22
ATOM     22  N   UNL     1       7.160   4.713  13.056  0.00  0.00    +0.000 N 
ATOM     23  O   UNL     1       7.972   5.596  12.745  0.00  0.00    +0.000 OA
ATOM     24  O   UNL     1       6.672   3.895  12.265  0.00  0.00    +0.000 OA
ENDBRANCH  19  22
ENDBRANCH  14  16
ENDBRANCH  13  14
ENDBRANCH   1  13
TORSDOF 5
ENDMDL
MODEL 5
REMARK VINA RESULT:      -7.5      4.404      4.968
REMARK  Name = 
REMARK  5 active torsions:
REMARK  status: ('A' for Active; 'I' for Inactive)
REMARK    1  A    between atoms: C_2  and  C_3
REMARK    2  A    between atoms: C_3  and  O_4
REMARK    3  A    between atoms: O_4  and  C_5
REMARK    4  A    between atoms: C_5  and  C_7
REMARK    5  A    between atoms: C_10  and  N_11
REMARK                            x       y       z     vdW  Elec       q    Type
REMARK                         _______ _______ _______ _____ _____    ______ ____
ROOT
ATOM      1  C   UNL     1       6.795   7.270  17.280  0.00  0.00    +0.000 C 
ENDROOT
BRANCH   1   3
ATOM      2  O   UNL     1       4.539   7.095  16.499  0.00  0.00    +0.000 OA
ATOM      3  C   UNL     1       5.360   6.739  17.342  0.00  0.00    +0.000 C 
ATOM      4  N   UNL     1       5.134   5.891  18.411  0.00  0.00    +0.000 N 
ATOM      5  C   UNL     1       3.983   5.111  18.576  0.00  0.00    +0.000 A 
ATOM      6  C   UNL     1       3.795   4.462  19.795  0.00  0.00    +0.000 A 
ATOM      7  C   UNL     1       2.669   3.650  19.970  0.00  0.00    +0.000 A 
ATOM      8  C   UNL     1       1.770   3.500  18.923  0.00  0.00    +0.000 A 
ATOM      9 CL   UNL     1       0.383   2.507  19.087  0.00  0.00    +0.000 Cl
ATOM     10  C   UNL     1       2.034   4.171  17.743  0.00  0.00    +0.000 A 
ATOM     11  N   UNL     1       3.117   4.963  17.556  0.00  0.00    +0.000 NA
ATOM     12  H   UNL     1       5.814   5.907  19.168  0.00  0.00    +0.000 HD
ENDBRANCH   1   3
BRANCH   1  13
ATOM     13  O   UNL     1       7.627   6.583  16.347  0.00  0.00    +0.000 OA
BRANCH  13  14
ATOM     14  C   UNL     1       7.537   5.235  16.394  0.00  0.00    +0.000 C 
ATOM     15  O   UNL     1       7.915   4.537  17.324  0.00  0.00    +0.000 OA
BRANCH  14  16
ATOM     16  C   UNL     1       6.922   4.695  15.149  0.00  0.00    +0.000 A 
ATOM     17  C   UNL     1       5.773   3.900  15.279  0.00  0.00    +0.000 A 
ATOM     18  C   UNL     1       5.171   3.331  14.152  0.00  0.00    +0.000 A 
ATOM     19  C   UNL     1       5.721   3.559  12.884  0.00  0.00    +0.000 A 
ATOM     20  C   UNL     1       6.859   4.364  12.739  0.00  0.00    +0.000 A 
ATOM     21  C   UNL     1       7.455   4.932  13.872  0.00  0.00    +0.000 A 
BRANCH  19  22
ATOM     22  N   UNL     1       5.104   2.942  11.703  0.00  0.00    +0.000 N 
ATOM     23  O   UNL     1       5.531   1.836  11.343  0.00  0.00    +0.000 OA
ATOM     24  O   UNL     1       4.195   3.564  11.135  0.00  0.00    +0.000 OA
ENDBRANCH  19  22
ENDBRANCH  14  16
ENDBRANCH  13  14
ENDBRANCH   1  13
TORSDOF 5
ENDMDL
MODEL 6
REMARK VINA RESULT:      -7.5      0.612      1.346
REMARK  Name = 
REMARK  5 active torsions:
REMARK  status: ('A' for Active; 'I' for Inactive)
REMARK    1  A    between atoms: C_2  and  C_3
REMARK    2  A    between atoms: C_3  and  O_4
REMARK    3  A    between atoms: O_4  and  C_5
REMARK    4  A    between atoms: C_5  and  C_7
REMARK    5  A    between atoms: C_10  and  N_11
REMARK                            x       y       z     vdW  Elec       q    Type
REMARK                         _______ _______ _______ _____ _____    ______ ____
ROOT
ATOM      1  C   UNL     1       3.119   5.445  19.679  0.00  0.00    +0.000 C 
ENDROOT
BRANCH   1   3
ATOM      2  O   UNL     1       2.720   7.503  18.523  0.00  0.00    +0.000 OA
ATOM      3  C   UNL     1       2.585   6.877  19.572  0.00  0.00    +0.000 C 
ATOM      4  N   UNL     1       2.000   7.333  20.739  0.00  0.00    +0.000 N 
ATOM      5  C   UNL     1       1.254   8.513  20.844  0.00  0.00    +0.000 A 
ATOM      6  C   UNL     1       0.898   8.957  22.116  0.00  0.00    +0.000 A 
ATOM      7  C   UNL     1       0.124  10.116  22.243  0.00  0.00    +0.000 A 
ATOM      8  C   UNL     1      -0.283  10.791  21.099  0.00  0.00    +0.000 A 
ATOM      9 CL   UNL     1      -1.241  12.207  21.205  0.00  0.00    +0.000 Cl
ATOM     10  C   UNL     1       0.106  10.279  19.875  0.00  0.00    +0.000 A 
ATOM     11  N   UNL     1       0.857   9.161  19.732  0.00  0.00    +0.000 NA
ATOM     12  H   UNL     1       2.204   6.819  21.592  0.00  0.00    +0.000 HD
ENDBRANCH   1   3
BRANCH   1  13
ATOM     13  O   UNL     1       3.616   4.919  18.449  0.00  0.00    +0.000 OA
BRANCH  13  14
ATOM     14  C   UNL     1       4.902   4.504  18.489  0.00  0.00    +0.000 C 
ATOM     15  O   UNL     1       5.492   4.139  19.496  0.00  0.00    +0.000 OA
BRANCH  14  16
ATOM     16  C   UNL     1       5.525   4.558  17.137  0.00  0.00    +0.000 A 
ATOM     17  C   UNL     1       6.854   4.998  17.046  0.00  0.00    +0.000 A 
ATOM     18  C   UNL     1       7.484   5.109  15.802  0.00  0.00    +0.000 A 
ATOM     19  C   UNL     1       6.779   4.775  14.638  0.00  0.00    +0.000 A 
ATOM     20  C   UNL     1       5.456   4.320  14.716  0.00  0.00    +0.000 A 
ATOM     21  C   UNL     1       4.832   4.210  15.966  0.00  0.00    +0.000 A 
BRANCH  19  22
ATOM     22  N   UNL     1       7.431   4.915  13.329  0.00  0.00    +0.000 N 
ATOM     23  O   UNL     1       8.361   5.727  13.234  0.00  0.00    +0.000 OA
ATOM     24  O   UNL     1       7.009   4.214  12.398  0.00  0.00    +0.000 OA
ENDBRANCH  19  22
ENDBRANCH  14  16
ENDBRANCH  13  14
ENDBRANCH   1  13
TORSDOF 5
ENDMDL
MODEL 7
REMARK VINA RESULT:      -7.4      0.969      1.298
REMARK  Name = 
REMARK  5 active torsions:
REMARK  status: ('A' for Active; 'I' for Inactive)
REMARK    1  A    between atoms: C_2  and  C_3
REMARK    2  A    between atoms: C_3  and  O_4
REMARK    3  A    between atoms: O_4  and  C_5
REMARK    4  A    between atoms: C_5  and  C_7
REMARK    5  A    between atoms: C_10  and  N_11
REMARK                            x       y       z     vdW  Elec       q    Type
REMARK                         _______ _______ _______ _____ _____    ______ ____
ROOT
ATOM      1  C   UNL     1       3.177   5.708  18.924  0.00  0.00    +0.000 C 
ENDROOT
BRANCH   1   3
ATOM      2  O   UNL     1       1.652   5.750  20.769  0.00  0.00    +0.000 OA
ATOM      3  C   UNL     1       2.172   6.390  19.857  0.00  0.00    +0.000 C 
ATOM      4  N   UNL     1       1.935   7.714  19.535  0.00  0.00    +0.000 N 
ATOM      5  C   UNL     1       1.231   8.614  20.345  0.00  0.00    +0.000 A 
ATOM      6  C   UNL     1       0.889   9.854  19.809  0.00  0.00    +0.000 A 
ATOM      7  C   UNL     1       0.215  10.782  20.611  0.00  0.00    +0.000 A 
ATOM      8  C   UNL     1      -0.089  10.451  21.926  0.00  0.00    +0.000 A 
ATOM      9 CL   UNL     1      -0.903  11.559  22.948  0.00  0.00    +0.000 Cl
ATOM     10  C   UNL     1       0.293   9.203  22.382  0.00  0.00    +0.000 A 
ATOM     11  N   UNL     1       0.944   8.291  21.620  0.00  0.00    +0.000 NA
ATOM     12  H   UNL     1       2.218   8.024  18.609  0.00  0.00    +0.000 HD
ENDBRANCH   1   3
BRANCH   1  13
ATOM     13  O   UNL     1       4.415   5.374  19.551  0.00  0.00    +0.000 OA
BRANCH  13  14
ATOM     14  C   UNL     1       4.998   4.246  19.089  0.00  0.00    +0.000 C 
ATOM     15  O   UNL     1       5.051   3.184  19.691  0.00  0.00    +0.000 OA
BRANCH  14  16
ATOM     16  C   UNL     1       5.587   4.462  17.737  0.00  0.00    +0.000 A 
ATOM     17  C   UNL     1       4.977   3.823  16.647  0.00  0.00    +0.000 A 
ATOM     18  C   UNL     1       5.505   3.954  15.359  0.00  0.00    +0.000 A 
ATOM     19  C   UNL     1       6.653   4.731  15.158  0.00  0.00    +0.000 A 
ATOM     20  C   UNL     1       7.263   5.388  16.235  0.00  0.00    +0.000 A 
ATOM     21  C   UNL     1       6.727   5.253  17.522  0.00  0.00    +0.000 A 
BRANCH  19  22
ATOM     22  N   UNL     1       7.222   4.849  13.809  0.00  0.00    +0.000 N 
ATOM     23  O   UNL     1       6.763   4.113  12.924  0.00  0.00    +0.000 OA
ATOM     24  O   UNL     1       8.130   5.675  13.637  0.00  0.00    +0.000 OA
ENDBRANCH  19  22
ENDBRANCH  14  16
ENDBRANCH  13  14
ENDBRANCH   1  13
TORSDOF 5
ENDMDL
MODEL 8
REMARK VINA RESULT:      -7.4      2.988      4.035
REMARK  Name = 
REMARK  5 active torsions:
REMARK  status: ('A' for Active; 'I' for Inactive)
REMARK    1  A    between atoms: C_2  and  C_3
REMARK    2  A    between atoms: C_3  and  O_4
REMARK    3  A    between atoms: O_4  and  C_5
REMARK    4  A    between atoms: C_5  and  C_7
REMARK    5  A    between atoms: C_10  and  N_11
REMARK                            x       y       z     vdW  Elec       q    Type
REMARK                         _______ _______ _______ _____ _____    ______ ____
ROOT
ATOM      1  C   UNL     1       2.126   9.531  18.087  0.00  0.00    +0.000 C 
ENDROOT
BRANCH   1   3
ATOM      2  O   UNL     1       0.628  10.451  19.711  0.00  0.00    +0.000 OA
ATOM      3  C   UNL     1       0.752   9.998  18.575  0.00  0.00    +0.000 C 
ATOM      4  N   UNL     1      -0.251   9.825  17.638  0.00  0.00    +0.000 N 
ATOM      5  C   UNL     1      -1.542  10.357  17.750  0.00  0.00    +0.000 A 
ATOM      6  C   UNL     1      -2.510   9.936  16.840  0.00  0.00    +0.000 A 
ATOM      7  C   UNL     1      -3.797  10.479  16.913  0.00  0.00    +0.000 A 
ATOM      8  C   UNL     1      -4.079  11.434  17.881  0.00  0.00    +0.000 A 
ATOM      9 CL   UNL     1      -5.637  12.136  17.999  0.00  0.00    +0.000 Cl
ATOM     10  C   UNL     1      -3.060  11.803  18.740  0.00  0.00    +0.000 A 
ATOM     11  N   UNL     1      -1.809  11.287  18.687  0.00  0.00    +0.000 NA
ATOM     12  H   UNL     1      -0.059   9.195  16.863  0.00  0.00    +0.000 HD
ENDBRANCH   1   3
BRANCH   1  13
ATOM     13  O   UNL     1       2.138   8.198  17.579  0.00  0.00    +0.000 OA
BRANCH  13  14
ATOM     14  C   UNL     1       2.604   7.268  18.441  0.00  0.00    +0.000 C 
ATOM     15  O   UNL     1       2.082   6.972  19.506  0.00  0.00    +0.000 OA
BRANCH  14  16
ATOM     16  C   UNL     1       3.859   6.645  17.932  0.00  0.00    +0.000 A 
ATOM     17  C   UNL     1       4.254   6.947  16.621  0.00  0.00    +0.000 A 
ATOM     18  C   UNL     1       5.400   6.364  16.071  0.00  0.00    +0.000 A 
ATOM     19  C   UNL     1       6.159   5.472  16.839  0.00  0.00    +0.000 A 
ATOM     20  C   UNL     1       5.784   5.173  18.156  0.00  0.00    +0.000 A 
ATOM     21  C   UNL     1       4.635   5.762  18.701  0.00  0.00    +0.000 A 
BRANCH  19  22
ATOM     22  N   UNL     1       7.349   4.840  16.254  0.00  0.00    +0.000 N 
ATOM     23  O   UNL     1       8.059   4.151  17.000  0.00  0.00    +0.000 OA
ATOM     24  O   UNL     1       7.574   5.036  15.052  0.00  0.00    +0.000 OA
ENDBRANCH  19  22
ENDBRANCH  14  16
ENDBRANCH  13  14
ENDBRANCH   1  13
TORSDOF 5
ENDMDL
MODEL 9
REMARK VINA RESULT:      -7.3      1.047      1.605
REMARK  Name = 
REMARK  5 active torsions:
REMARK  status: ('A' for Active; 'I' for Inactive)
REMARK    1  A    between atoms: C_2  and  C_3
REMARK    2  A    between atoms: C_3  and  O_4
REMARK    3  A    between atoms: O_4  and  C_5
REMARK    4  A    between atoms: C_5  and  C_7
REMARK    5  A    between atoms: C_10  and  N_11
REMARK                            x       y       z     vdW  Elec       q    Type
REMARK                         _______ _______ _______ _____ _____    ______ ____
ROOT
ATOM      1  C   UNL     1       2.728   6.852  18.353  0.00  0.00    +0.000 C 
ENDROOT
BRANCH   1   3
ATOM      2  O   UNL     1       1.870   9.075  18.129  0.00  0.00    +0.000 OA
ATOM      3  C   UNL     1       2.051   8.120  18.881  0.00  0.00    +0.000 C 
ATOM      4  N   UNL     1       1.723   8.049  20.223  0.00  0.00    +0.000 N 
ATOM      5  C   UNL     1       0.915   8.976  20.892  0.00  0.00    +0.000 A 
ATOM      6  C   UNL     1       0.835   8.899  22.282  0.00  0.00    +0.000 A 
ATOM      7  C   UNL     1       0.008   9.794  22.969  0.00  0.00    +0.000 A 
ATOM      8  C   UNL     1      -0.724  10.731  22.252  0.00  0.00    +0.000 A 
ATOM      9 CL   UNL     1      -1.759  11.840  23.049  0.00  0.00    +0.000 Cl
ATOM     10  C   UNL     1      -0.594  10.736  20.875  0.00  0.00    +0.000 A 
ATOM     11  N   UNL     1       0.203   9.879  20.193  0.00  0.00    +0.000 NA
ATOM     12  H   UNL     1       2.173   7.322  20.773  0.00  0.00    +0.000 HD
ENDBRANCH   1   3
BRANCH   1  13
ATOM     13  O   UNL     1       3.658   6.269  19.265  0.00  0.00    +0.000 OA
BRANCH  13  14
ATOM     14  C   UNL     1       3.994   4.989  18.990  0.00  0.00    +0.000 C 
ATOM     15  O   UNL     1       3.702   4.022  19.677  0.00  0.00    +0.000 OA
BRANCH  14  16
ATOM     16  C   UNL     1       4.788   4.903  17.732  0.00  0.00    +0.000 A 
ATOM     17  C   UNL     1       5.906   5.741  17.604  0.00  0.00    +0.000 A 
ATOM     18  C   UNL     1       6.669   5.735  16.432  0.00  0.00    +0.000 A 
ATOM     19  C   UNL     1       6.313   4.885  15.379  0.00  0.00    +0.000 A 
ATOM     20  C   UNL     1       5.207   4.031  15.498  0.00  0.00    +0.000 A 
ATOM     21  C   UNL     1       4.449   4.041  16.676  0.00  0.00    +0.000 A 
BRANCH  19  22
ATOM     22  N   UNL     1       7.099   4.896  14.138  0.00  0.00    +0.000 N 
ATOM     23  O   UNL     1       8.099   5.626  14.098  0.00  0.00    +0.000 OA
ATOM     24  O   UNL     1       6.713   4.178  13.205  0.00  0.00    +0.000 OA
ENDBRANCH  19  22
ENDBRANCH  14  16
ENDBRANCH  13  14
ENDBRANCH   1  13
TORSDOF 5
ENDMDL
