MODEL 1
REMARK VINA RESULT:      -7.7      0.000      0.000
REMARK  Name = 
REMARK  3 active torsions:
REMARK  status: ('A' for Active; 'I' for Inactive)
REMARK    1  A    between atoms: C_2  and  C_15
REMARK    2  A    between atoms: N_3  and  C_4
REMARK    3  A    between atoms: C_7  and  C_8
REMARK                            x       y       z     vdW  Elec       q    Type
REMARK                         _______ _______ _______ _____ _____    ______ ____
ROOT
ATOM      1  O   UNL     1       1.725   9.375  22.158  0.00  0.00    +0.000 OA
ATOM      2  C   UNL     1       0.921   9.658  21.275  0.00  0.00    +0.000 C 
ATOM      3  N   UNL     1       0.911   9.170  19.980  0.00  0.00    +0.000 N 
ATOM      4  H   UNL     1       0.243   9.567  19.329  0.00  0.00    +0.000 HD
ENDROOT
BRANCH   2   5
ATOM      5  C   UNL     1      -0.153  10.614  21.638  0.00  0.00    +0.000 A 
ATOM      6  C   UNL     1      -0.544  11.558  20.674  0.00  0.00    +0.000 A 
ATOM      7  C   UNL     1      -1.570  12.462  20.952  0.00  0.00    +0.000 A 
ATOM      8  C   UNL     1      -2.211  12.419  22.189  0.00  0.00    +0.000 A 
ATOM      9 CL   UNL     1      -3.482  13.522  22.528  0.00  0.00    +0.000 Cl
ATOM     10  C   UNL     1      -1.830  11.486  23.152  0.00  0.00    +0.000 A 
ATOM     11  C   UNL     1      -0.800  10.593  22.872  0.00  0.00    +0.000 A 
ATOM     12  F   UNL     1      -0.450   9.706  23.816  0.00  0.00    +0.000 F 
ENDBRANCH   2   5
BRANCH   3  13
ATOM     13  C   UNL     1       1.792   8.204  19.452  0.00  0.00    +0.000 A 
ATOM     14  C   UNL     1       2.090   7.017  20.112  0.00  0.00    +0.000 A 
ATOM     15  C   UNL     1       2.973   6.096  19.557  0.00  0.00    +0.000 A 
ATOM     16  C   UNL     1       3.561   6.317  18.309  0.00  0.00    +0.000 A 
ATOM     17  C   UNL     1       3.261   7.513  17.642  0.00  0.00    +0.000 A 
ATOM     18  C   UNL     1       2.383   8.448  18.209  0.00  0.00    +0.000 A 
BRANCH  16  19
ATOM     19  C   UNL     1       4.485   5.288  17.684  0.00  0.00    +0.000 C 
ATOM     20  C   UNL     1       3.752   4.014  17.264  0.00  0.00    +0.000 C 
ATOM     21  C   UNL     1       3.951   3.057  18.423  0.00  0.00    +0.000 C 
ATOM     22  N   UNL     1       5.274   3.369  18.971  0.00  0.00    +0.000 NA
ATOM     23  C   UNL     1       5.570   4.776  18.642  0.00  0.00    +0.000 C 
ATOM     24  H   UNL     1       5.968   2.775  18.517  0.00  0.00    +0.000 HD
ENDBRANCH  16  19
ENDBRANCH   3  13
TORSDOF 3
ENDMDL
MODEL 2
REMARK VINA RESULT:      -7.5      0.585      1.176
REMARK  Name = 
REMARK  3 active torsions:
REMARK  status: ('A' for Active; 'I' for Inactive)
REMARK    1  A    between atoms: C_2  and  C_15
REMARK    2  A    between atoms: N_3  and  C_4
REMARK    3  A    between atoms: C_7  and  C_8
REMARK                            x       y       z     vdW  Elec       q    Type
REMARK                         _______ _______ _______ _____ _____    ______ ____
ROOT
ATOM      1  O   UNL     1       1.846   9.073  22.199  0.00  0.00    +0.000 OA
ATOM      2  C   UNL     1       1.041   9.355  21.317  0.00  0.00    +0.000 C 
ATOM      3  N   UNL     1       1.013   8.844  20.031  0.00  0.00    +0.000 N 
ATOM      4  H   UNL     1       0.348   9.241  19.378  0.00  0.00    +0.000 HD
ENDROOT
BRANCH   2   5
ATOM      5  C   UNL     1      -0.011  10.338  21.669  0.00  0.00    +0.000 A 
ATOM      6  C   UNL     1      -0.416  11.249  20.680  0.00  0.00    +0.000 A 
ATOM      7  C   UNL     1      -1.423  12.177  20.948  0.00  0.00    +0.000 A 
ATOM      8  C   UNL     1      -2.032  12.189  22.202  0.00  0.00    +0.000 A 
ATOM      9 CL   UNL     1      -3.281  13.322  22.530  0.00  0.00    +0.000 Cl
ATOM     10  C   UNL     1      -1.638  11.290  23.191  0.00  0.00    +0.000 A 
ATOM     11  C   UNL     1      -0.626  10.374  22.920  0.00  0.00    +0.000 A 
ATOM     12  F   UNL     1      -0.262   9.519  23.889  0.00  0.00    +0.000 F 
ENDBRANCH   2   5
BRANCH   3  13
ATOM     13  C   UNL     1       1.871   7.850  19.516  0.00  0.00    +0.000 A 
ATOM     14  C   UNL     1       2.566   8.002  18.322  0.00  0.00    +0.000 A 
ATOM     15  C   UNL     1       3.395   6.989  17.847  0.00  0.00    +0.000 A 
ATOM     16  C   UNL     1       3.580   5.806  18.567  0.00  0.00    +0.000 A 
ATOM     17  C   UNL     1       2.879   5.652  19.772  0.00  0.00    +0.000 A 
ATOM     18  C   UNL     1       2.033   6.667  20.242  0.00  0.00    +0.000 A 
BRANCH  16  19
ATOM     19  C   UNL     1       4.523   4.725  18.072  0.00  0.00    +0.000 C 
ATOM     20  C   UNL     1       3.887   3.829  17.010  0.00  0.00    +0.000 C 
ATOM     21  C   UNL     1       3.380   2.624  17.777  0.00  0.00    +0.000 C 
ATOM     22  N   UNL     1       4.326   2.430  18.879  0.00  0.00    +0.000 NA
ATOM     23  C   UNL     1       4.948   3.735  19.166  0.00  0.00    +0.000 C 
ATOM     24  H   UNL     1       5.054   1.780  18.578  0.00  0.00    +0.000 HD
ENDBRANCH  16  19
ENDBRANCH   3  13
TORSDOF 3
ENDMDL
MODEL 3
REMARK VINA RESULT:      -7.4      1.048      1.464
REMARK  Name = 
REMARK  3 active torsions:
REMARK  status: ('A' for Active; 'I' for Inactive)
REMARK    1  A    between atoms: C_2  and  C_15
REMARK    2  A    between atoms: N_3  and  C_4
REMARK    3  A    between atoms: C_7  and  C_8
REMARK                            x       y       z     vdW  Elec       q    Type
REMARK                         _______ _______ _______ _____ _____    ______ ____
ROOT
ATOM      1  O   UNL     1       1.766   9.597  22.160  0.00  0.00    +0.000 OA
ATOM      2  C   UNL     1       0.914   9.828  21.307  0.00  0.00    +0.000 C 
ATOM      3  N   UNL     1       0.849   9.280  20.037  0.00  0.00    +0.000 N 
ATOM      4  H   UNL     1       0.143   9.636  19.403  0.00  0.00    +0.000 HD
ENDROOT
BRANCH   2   5
ATOM      5  C   UNL     1      -0.156  10.784  21.679  0.00  0.00    +0.000 A 
ATOM      6  C   UNL     1      -0.850  10.557  22.879  0.00  0.00    +0.000 A 
ATOM      7  C   UNL     1      -1.847  11.442  23.291  0.00  0.00    +0.000 A 
ATOM      8  C   UNL     1      -2.144  12.558  22.512  0.00  0.00    +0.000 A 
ATOM      9 CL   UNL     1      -3.361  13.656  23.025  0.00  0.00    +0.000 Cl
ATOM     10  C   UNL     1      -1.461  12.793  21.319  0.00  0.00    +0.000 A 
ATOM     11  C   UNL     1      -0.475  11.901  20.908  0.00  0.00    +0.000 A 
ATOM     12  F   UNL     1       0.168  12.147  19.755  0.00  0.00    +0.000 F 
ENDBRANCH   2   5
BRANCH   3  13
ATOM     13  C   UNL     1       1.718   8.303  19.511  0.00  0.00    +0.000 A 
ATOM     14  C   UNL     1       1.993   7.108  20.166  0.00  0.00    +0.000 A 
ATOM     15  C   UNL     1       2.866   6.176  19.612  0.00  0.00    +0.000 A 
ATOM     16  C   UNL     1       3.467   6.395  18.370  0.00  0.00    +0.000 A 
ATOM     17  C   UNL     1       3.190   7.599  17.707  0.00  0.00    +0.000 A 
ATOM     18  C   UNL     1       2.322   8.544  18.273  0.00  0.00    +0.000 A 
BRANCH  16  19
ATOM     19  C   UNL     1       4.379   5.355  17.745  0.00  0.00    +0.000 C 
ATOM     20  C   UNL     1       3.664   4.034  17.466  0.00  0.00    +0.000 C 
ATOM     21  C   UNL     1       3.982   3.164  18.667  0.00  0.00    +0.000 C 
ATOM     22  N   UNL     1       5.329   3.554  19.092  0.00  0.00    +0.000 NA
ATOM     23  C   UNL     1       5.549   4.944  18.651  0.00  0.00    +0.000 C 
ATOM     24  H   UNL     1       6.010   2.953  18.628  0.00  0.00    +0.000 HD
ENDBRANCH  16  19
ENDBRANCH   3  13
TORSDOF 3
ENDMDL
MODEL 4
REMARK VINA RESULT:      -7.4      1.995      2.348
REMARK  Name = 
REMARK  3 active torsions:
REMARK  status: ('A' for Active; 'I' for Inactive)
REMARK    1  A    between atoms: C_2  and  C_15
REMARK    2  A    between atoms: N_3  and  C_4
REMARK    3  A    between atoms: C_7  and  C_8
REMARK                            x       y       z     vdW  Elec       q    Type
REMARK                         _______ _______ _______ _____ _____    ______ ____
ROOT
ATOM      1  O   UNL     1       0.816   9.476  18.114  0.00  0.00    +0.000 OA
ATOM      2  C   UNL     1       1.091   9.191  19.276  0.00  0.00    +0.000 C 
ATOM      3  N   UNL     1       1.910   8.159  19.701  0.00  0.00    +0.000 N 
ATOM      4  H   UNL     1       1.970   7.982  20.697  0.00  0.00    +0.000 HD
ENDROOT
BRANCH   2   5
ATOM      5  C   UNL     1       0.491  10.045  20.328  0.00  0.00    +0.000 A 
ATOM      6  C   UNL     1       0.599  11.438  20.183  0.00  0.00    +0.000 A 
ATOM      7  C   UNL     1       0.027  12.289  21.129  0.00  0.00    +0.000 A 
ATOM      8  C   UNL     1      -0.661  11.751  22.215  0.00  0.00    +0.000 A 
ATOM      9 CL   UNL     1      -1.378  12.797  23.373  0.00  0.00    +0.000 Cl
ATOM     10  C   UNL     1      -0.775  10.370  22.368  0.00  0.00    +0.000 A 
ATOM     11  C   UNL     1      -0.194   9.526  21.427  0.00  0.00    +0.000 A 
ATOM     12  F   UNL     1      -0.314   8.200  21.596  0.00  0.00    +0.000 F 
ENDBRANCH   2   5
BRANCH   3  13
ATOM     13  C   UNL     1       2.633   7.279  18.870  0.00  0.00    +0.000 A 
ATOM     14  C   UNL     1       2.504   5.897  18.943  0.00  0.00    +0.000 A 
ATOM     15  C   UNL     1       3.247   5.067  18.108  0.00  0.00    +0.000 A 
ATOM     16  C   UNL     1       4.117   5.594  17.150  0.00  0.00    +0.000 A 
ATOM     17  C   UNL     1       4.247   6.988  17.074  0.00  0.00    +0.000 A 
ATOM     18  C   UNL     1       3.510   7.823  17.926  0.00  0.00    +0.000 A 
BRANCH  16  19
ATOM     19  C   UNL     1       4.887   4.688  16.207  0.00  0.00    +0.000 C 
ATOM     20  C   UNL     1       5.933   3.838  16.928  0.00  0.00    +0.000 C 
ATOM     21  C   UNL     1       7.229   4.611  16.773  0.00  0.00    +0.000 C 
ATOM     22  N   UNL     1       7.139   5.276  15.470  0.00  0.00    +0.000 NA
ATOM     23  C   UNL     1       5.709   5.452  15.159  0.00  0.00    +0.000 C 
ATOM     24  H   UNL     1       7.555   4.671  14.761  0.00  0.00    +0.000 HD
ENDBRANCH  16  19
ENDBRANCH   3  13
TORSDOF 3
ENDMDL
MODEL 5
REMARK VINA RESULT:      -7.4      1.054      1.790
REMARK  Name = 
REMARK  3 active torsions:
REMARK  status: ('A' for Active; 'I' for Inactive)
REMARK    1  A    between atoms: C_2  and  C_15
REMARK    2  A    between atoms: N_3  and  C_4
REMARK    3  A    between atoms: C_7  and  C_8
REMARK                            x       y       z     vdW  Elec       q    Type
REMARK                         _______ _______ _______ _____ _____    ______ ____
ROOT
ATOM      1  O   UNL     1       1.867   9.691  21.986  0.00  0.00    +0.000 OA
ATOM      2  C   UNL     1       0.949   9.838  21.186  0.00  0.00    +0.000 C 
ATOM      3  N   UNL     1       0.837   9.243  19.940  0.00  0.00    +0.000 N 
ATOM      4  H   UNL     1       0.069   9.532  19.345  0.00  0.00    +0.000 HD
ENDROOT
BRANCH   2   5
ATOM      5  C   UNL     1      -0.155  10.736  21.600  0.00  0.00    +0.000 A 
ATOM      6  C   UNL     1      -0.783  10.481  22.829  0.00  0.00    +0.000 A 
ATOM      7  C   UNL     1      -1.808  11.312  23.281  0.00  0.00    +0.000 A 
ATOM      8  C   UNL     1      -2.200  12.405  22.510  0.00  0.00    +0.000 A 
ATOM      9 CL   UNL     1      -3.452  13.438  23.071  0.00  0.00    +0.000 Cl
ATOM     10  C   UNL     1      -1.583  12.669  21.288  0.00  0.00    +0.000 A 
ATOM     11  C   UNL     1      -0.568  11.830  20.839  0.00  0.00    +0.000 A 
ATOM     12  F   UNL     1       0.010  12.102  19.658  0.00  0.00    +0.000 F 
ENDBRANCH   2   5
BRANCH   3  13
ATOM     13  C   UNL     1       1.732   8.306  19.387  0.00  0.00    +0.000 A 
ATOM     14  C   UNL     1       2.377   8.506  18.172  0.00  0.00    +0.000 A 
ATOM     15  C   UNL     1       3.246   7.547  17.659  0.00  0.00    +0.000 A 
ATOM     16  C   UNL     1       3.522   6.371  18.361  0.00  0.00    +0.000 A 
ATOM     17  C   UNL     1       2.873   6.167  19.587  0.00  0.00    +0.000 A 
ATOM     18  C   UNL     1       1.986   7.127  20.096  0.00  0.00    +0.000 A 
BRANCH  16  19
ATOM     19  C   UNL     1       4.508   5.350  17.823  0.00  0.00    +0.000 C 
ATOM     20  C   UNL     1       3.830   4.059  17.365  0.00  0.00    +0.000 C 
ATOM     21  C   UNL     1       3.952   3.120  18.549  0.00  0.00    +0.000 C 
ATOM     22  N   UNL     1       5.223   3.461  19.194  0.00  0.00    +0.000 NA
ATOM     23  C   UNL     1       5.522   4.868  18.871  0.00  0.00    +0.000 C 
ATOM     24  H   UNL     1       5.960   2.872  18.805  0.00  0.00    +0.000 HD
ENDBRANCH  16  19
ENDBRANCH   3  13
TORSDOF 3
ENDMDL
MODEL 6
REMARK VINA RESULT:      -7.4      1.284      1.615
REMARK  Name = 
REMARK  3 active torsions:
REMARK  status: ('A' for Active; 'I' for Inactive)
REMARK    1  A    between atoms: C_2  and  C_15
REMARK    2  A    between atoms: N_3  and  C_4
REMARK    3  A    between atoms: C_7  and  C_8
REMARK                            x       y       z     vdW  Elec       q    Type
REMARK                         _______ _______ _______ _____ _____    ______ ____
ROOT
ATOM      1  O   UNL     1       1.656  10.090  21.975  0.00  0.00    +0.000 OA
ATOM      2  C   UNL     1       0.698  10.174  21.213  0.00  0.00    +0.000 C 
ATOM      3  N   UNL     1       0.561   9.546  19.987  0.00  0.00    +0.000 N 
ATOM      4  H   UNL     1      -0.244   9.784  19.420  0.00  0.00    +0.000 HD
ENDROOT
BRANCH   2   5
ATOM      5  C   UNL     1      -0.428  11.030  21.656  0.00  0.00    +0.000 A 
ATOM      6  C   UNL     1      -0.891  12.016  20.769  0.00  0.00    +0.000 A 
ATOM      7  C   UNL     1      -1.967  12.831  21.124  0.00  0.00    +0.000 A 
ATOM      8  C   UNL     1      -2.588  12.653  22.359  0.00  0.00    +0.000 A 
ATOM      9 CL   UNL     1      -3.922  13.645  22.791  0.00  0.00    +0.000 Cl
ATOM     10  C   UNL     1      -2.138  11.677  23.246  0.00  0.00    +0.000 A 
ATOM     11  C   UNL     1      -1.058  10.875  22.890  0.00  0.00    +0.000 A 
ATOM     12  F   UNL     1      -0.640   9.943  23.762  0.00  0.00    +0.000 F 
ENDBRANCH   2   5
BRANCH   3  13
ATOM     13  C   UNL     1       1.475   8.638  19.415  0.00  0.00    +0.000 A 
ATOM     14  C   UNL     1       1.848   7.452  20.037  0.00  0.00    +0.000 A 
ATOM     15  C   UNL     1       2.762   6.590  19.438  0.00  0.00    +0.000 A 
ATOM     16  C   UNL     1       3.309   6.871  18.184  0.00  0.00    +0.000 A 
ATOM     17  C   UNL     1       2.933   8.066  17.555  0.00  0.00    +0.000 A 
ATOM     18  C   UNL     1       2.023   8.942  18.165  0.00  0.00    +0.000 A 
BRANCH  16  19
ATOM     19  C   UNL     1       4.267   5.905  17.511  0.00  0.00    +0.000 C 
ATOM     20  C   UNL     1       5.442   5.518  18.408  0.00  0.00    +0.000 C 
ATOM     21  C   UNL     1       6.562   6.454  17.999  0.00  0.00    +0.000 C 
ATOM     22  N   UNL     1       6.375   6.691  16.565  0.00  0.00    +0.000 NA
ATOM     23  C   UNL     1       4.947   6.487  16.263  0.00  0.00    +0.000 C 
ATOM     24  H   UNL     1       6.921   6.005  16.042  0.00  0.00    +0.000 HD
ENDBRANCH  16  19
ENDBRANCH   3  13
TORSDOF 3
ENDMDL
MODEL 7
REMARK VINA RESULT:      -7.3      1.524      1.982
REMARK  Name = 
REMARK  3 active torsions:
REMARK  status: ('A' for Active; 'I' for Inactive)
REMARK    1  A    between atoms: C_2  and  C_15
REMARK    2  A    between atoms: N_3  and  C_4
REMARK    3  A    between atoms: C_7  and  C_8
REMARK                            x       y       z     vdW  Elec       q    Type
REMARK                         _______ _______ _______ _____ _____    ______ ____
ROOT
ATOM      1  O   UNL     1       0.780   9.626  19.062  0.00  0.00    +0.000 OA
ATOM      2  C   UNL     1       0.781   9.385  20.265  0.00  0.00    +0.000 C 
ATOM      3  N   UNL     1       1.280   8.249  20.878  0.00  0.00    +0.000 N 
ATOM      4  H   UNL     1       1.127   8.142  21.874  0.00  0.00    +0.000 HD
ENDROOT
BRANCH   2   5
ATOM      5  C   UNL     1       0.196  10.421  21.149  0.00  0.00    +0.000 A 
ATOM      6  C   UNL     1       0.436  11.767  20.832  0.00  0.00    +0.000 A 
ATOM      7  C   UNL     1      -0.115  12.783  21.614  0.00  0.00    +0.000 A 
ATOM      8  C   UNL     1      -0.914  12.455  22.707  0.00  0.00    +0.000 A 
ATOM      9 CL   UNL     1      -1.605  13.703  23.663  0.00  0.00    +0.000 Cl
ATOM     10  C   UNL     1      -1.160  11.121  23.031  0.00  0.00    +0.000 A 
ATOM     11  C   UNL     1      -0.599  10.113  22.253  0.00  0.00    +0.000 A 
ATOM     12  F   UNL     1      -0.848   8.836  22.585  0.00  0.00    +0.000 F 
ENDBRANCH   2   5
BRANCH   3  13
ATOM     13  C   UNL     1       1.940   7.182  20.235  0.00  0.00    +0.000 A 
ATOM     14  C   UNL     1       2.670   7.345  19.063  0.00  0.00    +0.000 A 
ATOM     15  C   UNL     1       3.297   6.260  18.458  0.00  0.00    +0.000 A 
ATOM     16  C   UNL     1       3.241   4.983  19.022  0.00  0.00    +0.000 A 
ATOM     17  C   UNL     1       2.506   4.817  20.204  0.00  0.00    +0.000 A 
ATOM     18  C   UNL     1       1.862   5.908  20.806  0.00  0.00    +0.000 A 
BRANCH  16  19
ATOM     19  C   UNL     1       3.967   3.812  18.386  0.00  0.00    +0.000 C 
ATOM     20  C   UNL     1       3.313   3.347  17.086  0.00  0.00    +0.000 C 
ATOM     21  C   UNL     1       2.421   2.192  17.497  0.00  0.00    +0.000 C 
ATOM     22  N   UNL     1       3.110   1.538  18.613  0.00  0.00    +0.000 NA
ATOM     23  C   UNL     1       3.969   2.547  19.258  0.00  0.00    +0.000 C 
ATOM     24  H   UNL     1       3.702   0.792  18.245  0.00  0.00    +0.000 HD
ENDBRANCH  16  19
ENDBRANCH   3  13
TORSDOF 3
ENDMDL
MODEL 8
REMARK VINA RESULT:      -7.3      1.349      1.692
REMARK  Name = 
REMARK  3 active torsions:
REMARK  status: ('A' for Active; 'I' for Inactive)
REMARK    1  A    between atoms: C_2  and  C_15
REMARK    2  A    between atoms: N_3  and  C_4
REMARK    3  A    between atoms: C_7  and  C_8
REMARK                            x       y       z     vdW  Elec       q    Type
REMARK                         _______ _______ _______ _____ _____    ______ ____
ROOT
ATOM      1  O   UNL     1       1.778   9.340  22.528  0.00  0.00    +0.000 OA
ATOM      2  C   UNL     1       0.984   9.658  21.648  0.00  0.00    +0.000 C 
ATOM      3  N   UNL     1       0.863   9.079  20.396  0.00  0.00    +0.000 N 
ATOM      4  H   UNL     1       0.227   9.508  19.735  0.00  0.00    +0.000 HD
ENDROOT
BRANCH   2   5
ATOM      5  C   UNL     1       0.056  10.771  21.962  0.00  0.00    +0.000 A 
ATOM      6  C   UNL     1      -0.977  10.524  22.881  0.00  0.00    +0.000 A 
ATOM      7  C   UNL     1      -1.861  11.544  23.235  0.00  0.00    +0.000 A 
ATOM      8  C   UNL     1      -1.708  12.812  22.679  0.00  0.00    +0.000 A 
ATOM      9 CL   UNL     1      -2.787  14.073  23.124  0.00  0.00    +0.000 Cl
ATOM     10  C   UNL     1      -0.686  13.069  21.766  0.00  0.00    +0.000 A 
ATOM     11  C   UNL     1       0.187  12.045  21.410  0.00  0.00    +0.000 A 
ATOM     12  F   UNL     1       1.162  12.314  20.528  0.00  0.00    +0.000 F 
ENDBRANCH   2   5
BRANCH   3  13
ATOM     13  C   UNL     1       1.592   7.968  19.924  0.00  0.00    +0.000 A 
ATOM     14  C   UNL     1       1.698   6.779  20.636  0.00  0.00    +0.000 A 
ATOM     15  C   UNL     1       2.438   5.712  20.134  0.00  0.00    +0.000 A 
ATOM     16  C   UNL     1       3.067   5.788  18.889  0.00  0.00    +0.000 A 
ATOM     17  C   UNL     1       2.960   6.986  18.169  0.00  0.00    +0.000 A 
ATOM     18  C   UNL     1       2.228   8.067  18.682  0.00  0.00    +0.000 A 
BRANCH  16  19
ATOM     19  C   UNL     1       3.830   4.605  18.322  0.00  0.00    +0.000 C 
ATOM     20  C   UNL     1       3.046   3.859  17.243  0.00  0.00    +0.000 C 
ATOM     21  C   UNL     1       2.386   2.707  17.976  0.00  0.00    +0.000 C 
ATOM     22  N   UNL     1       3.320   2.328  19.040  0.00  0.00    +0.000 NA
ATOM     23  C   UNL     1       4.132   3.516  19.362  0.00  0.00    +0.000 C 
ATOM     24  H   UNL     1       3.939   1.595  18.691  0.00  0.00    +0.000 HD
ENDBRANCH  16  19
ENDBRANCH   3  13
TORSDOF 3
ENDMDL
MODEL 9
REMARK VINA RESULT:      -7.3      1.348      1.736
REMARK  Name = 
REMARK  3 active torsions:
REMARK  status: ('A' for Active; 'I' for Inactive)
REMARK    1  A    between atoms: C_2  and  C_15
REMARK    2  A    between atoms: N_3  and  C_4
REMARK    3  A    between atoms: C_7  and  C_8
REMARK                            x       y       z     vdW  Elec       q    Type
REMARK                         _______ _______ _______ _____ _____    ______ ____
ROOT
ATOM      1  O   UNL     1      -0.658   9.675  19.399  0.00  0.00    +0.000 OA
ATOM      2  C   UNL     1       0.054   9.865  20.381  0.00  0.00    +0.000 C 
ATOM      3  N   UNL     1       1.146   9.107  20.766  0.00  0.00    +0.000 N 
ATOM      4  H   UNL     1       1.583   9.324  21.654  0.00  0.00    +0.000 HD
ENDROOT
BRANCH   2   5
ATOM      5  C   UNL     1      -0.288  11.029  21.233  0.00  0.00    +0.000 A 
ATOM      6  C   UNL     1      -0.012  12.312  20.733  0.00  0.00    +0.000 A 
ATOM      7  C   UNL     1      -0.339  13.443  21.481  0.00  0.00    +0.000 A 
ATOM      8  C   UNL     1      -0.951  13.294  22.724  0.00  0.00    +0.000 A 
ATOM      9 CL   UNL     1      -1.368  14.685  23.641  0.00  0.00    +0.000 Cl
ATOM     10  C   UNL     1      -1.231  12.025  23.230  0.00  0.00    +0.000 A 
ATOM     11  C   UNL     1      -0.892  10.901  22.483  0.00  0.00    +0.000 A 
ATOM     12  F   UNL     1      -1.169   9.689  22.991  0.00  0.00    +0.000 F 
ENDBRANCH   2   5
BRANCH   3  13
ATOM     13  C   UNL     1       1.682   8.009  20.063  0.00  0.00    +0.000 A 
ATOM     14  C   UNL     1       2.234   8.126  18.792  0.00  0.00    +0.000 A 
ATOM     15  C   UNL     1       2.743   7.011  18.132  0.00  0.00    +0.000 A 
ATOM     16  C   UNL     1       2.747   5.750  18.734  0.00  0.00    +0.000 A 
ATOM     17  C   UNL     1       2.191   5.632  20.016  0.00  0.00    +0.000 A 
ATOM     18  C   UNL     1       1.665   6.752  20.675  0.00  0.00    +0.000 A 
BRANCH  16  19
ATOM     19  C   UNL     1       3.348   4.547  18.032  0.00  0.00    +0.000 C 
ATOM     20  C   UNL     1       2.960   3.224  18.692  0.00  0.00    +0.000 C 
ATOM     21  C   UNL     1       4.120   2.898  19.612  0.00  0.00    +0.000 C 
ATOM     22  N   UNL     1       5.314   3.422  18.943  0.00  0.00    +0.000 NA
ATOM     23  C   UNL     1       4.883   4.524  18.063  0.00  0.00    +0.000 C 
ATOM     24  H   UNL     1       5.721   2.684  18.366  0.00  0.00    +0.000 HD
ENDBRANCH  16  19
ENDBRANCH   3  13
TORSDOF 3
ENDMDL
