MODEL 1
REMARK VINA RESULT:      -7.8      0.000      0.000
REMARK  Name = 
REMARK  6 active torsions:
REMARK  status: ('A' for Active; 'I' for Inactive)
REMARK    1  A    between atoms: C_1  and  C_2
REMARK    2  A    between atoms: N_4  and  C_5
REMARK    3  A    between atoms: C_5  and  C_6
REMARK    4  A    between atoms: C_5  and  C_7
REMARK    5  A    between atoms: C_10  and  O_11
REMARK    6  A    between atoms: O_11  and  C_12
REMARK                            x       y       z     vdW  Elec       q    Type
REMARK                         _______ _______ _______ _____ _____    ______ ____
ROOT
ATOM      1  O   UNL     1       5.484   4.366  18.411  0.00  0.00    +0.000 OA
ENDROOT
BRANCH   1   2
ATOM      2  C   UNL     1       5.005   5.634  18.939  0.00  0.00    +0.000 C 
ATOM      3  C   UNL     1       4.195   6.553  17.996  0.00  0.00    +0.000 C 
ATOM      4  N   UNL     1       3.126   6.537  18.938  0.00  0.00    +0.000 N 
ATOM      5  C   UNL     1       2.335   7.542  19.364  0.00  0.00    +0.000 A 
ATOM      6  N   UNL     1       1.725   7.621  20.532  0.00  0.00    +0.000 NA
ATOM      7  C   UNL     1       0.976   8.760  20.440  0.00  0.00    +0.000 A 
ATOM      8  C   UNL     1       0.079   9.330  21.352  0.00  0.00    +0.000 A 
ATOM      9  C   UNL     1      -0.598  10.499  20.971  0.00  0.00    +0.000 A 
ATOM     10  C   UNL     1      -0.369  11.085  19.722  0.00  0.00    +0.000 A 
ATOM     11  C   UNL     1       0.544  10.535  18.805  0.00  0.00    +0.000 A 
ATOM     12  C   UNL     1       1.181   9.364  19.210  0.00  0.00    +0.000 A 
ATOM     13  O   UNL     1       2.074   8.591  18.515  0.00  0.00    +0.000 OA
ATOM     14  C   UNL     1       3.746   5.595  19.816  0.00  0.00    +0.000 C 
ENDBRANCH   1   2
BRANCH   1  18
ATOM     15  C   UNL     1       6.305   4.082  14.286  0.00  0.00    +0.000 A 
ATOM     16  C   UNL     1       5.102   3.619  14.839  0.00  0.00    +0.000 A 
ATOM     17  C   UNL     1       4.856   3.734  16.219  0.00  0.00    +0.000 A 
ATOM     18  C   UNL     1       5.808   4.302  17.071  0.00  0.00    +0.000 A 
ATOM     19  C   UNL     1       6.987   4.799  16.523  0.00  0.00    +0.000 A 
ATOM     20  C   UNL     1       7.240   4.685  15.150  0.00  0.00    +0.000 A 
BRANCH  15  21
ATOM     21  C   UNL     1       6.604   3.916  12.798  0.00  0.00    +0.000 C 
ATOM     22  C   UNL     1       7.577   5.007  12.329  0.00  0.00    +0.000 C 
BRANCH  21  26
ATOM     23  C   UNL     1       3.587   3.036  10.660  0.00  0.00    +0.000 C 
ATOM     24  C   UNL     1       4.891   2.811  11.378  0.00  0.00    +0.000 C 
ATOM     25  O   UNL     1       5.460   1.725  11.368  0.00  0.00    +0.000 OA
ATOM     26  N   UNL     1       5.365   3.931  12.027  0.00  0.00    +0.000 N 
ATOM     27  H   UNL     1       4.707   4.674  12.219  0.00  0.00    +0.000 HD
ENDBRANCH  21  26
ENDBRANCH  15  21
ENDBRANCH   1  18
TORSDOF 4
ENDMDL
MODEL 2
REMARK VINA RESULT:      -7.8      1.461      2.206
REMARK  Name = 
REMARK  6 active torsions:
REMARK  status: ('A' for Active; 'I' for Inactive)
REMARK    1  A    between atoms: C_1  and  C_2
REMARK    2  A    between atoms: N_4  and  C_5
REMARK    3  A    between atoms: C_5  and  C_6
REMARK    4  A    between atoms: C_5  and  C_7
REMARK    5  A    between atoms: C_10  and  O_11
REMARK    6  A    between atoms: O_11  and  C_12
REMARK                            x       y       z     vdW  Elec       q    Type
REMARK                         _______ _______ _______ _____ _____    ______ ____
ROOT
ATOM      1  O   UNL     1       3.591   4.206  19.501  0.00  0.00    +0.000 OA
ENDROOT
BRANCH   1   2
ATOM      2  C   UNL     1       2.441   5.090  19.615  0.00  0.00    +0.000 C 
ATOM      3  C   UNL     1       2.069   5.617  21.021  0.00  0.00    +0.000 C 
ATOM      4  N   UNL     1       2.182   6.948  20.525  0.00  0.00    +0.000 N 
ATOM      5  C   UNL     1       1.395   8.021  20.741  0.00  0.00    +0.000 A 
ATOM      6  N   UNL     1       1.226   9.048  19.930  0.00  0.00    +0.000 NA
ATOM      7  C   UNL     1       0.428   9.902  20.637  0.00  0.00    +0.000 A 
ATOM      8  C   UNL     1      -0.044  11.180  20.310  0.00  0.00    +0.000 A 
ATOM      9  C   UNL     1      -0.823  11.860  21.260  0.00  0.00    +0.000 A 
ATOM     10  C   UNL     1      -1.132  11.269  22.489  0.00  0.00    +0.000 A 
ATOM     11  C   UNL     1      -0.682   9.980  22.822  0.00  0.00    +0.000 A 
ATOM     12  C   UNL     1       0.104   9.344  21.863  0.00  0.00    +0.000 A 
ATOM     13  O   UNL     1       0.712   8.117  21.931  0.00  0.00    +0.000 OA
ATOM     14  C   UNL     1       2.649   6.561  19.231  0.00  0.00    +0.000 C 
ENDBRANCH   1   2
BRANCH   1  18
ATOM     15  C   UNL     1       5.511   4.049  15.751  0.00  0.00    +0.000 A 
ATOM     16  C   UNL     1       4.173   3.662  15.919  0.00  0.00    +0.000 A 
ATOM     17  C   UNL     1       3.559   3.732  17.182  0.00  0.00    +0.000 A 
ATOM     18  C   UNL     1       4.271   4.178  18.300  0.00  0.00    +0.000 A 
ATOM     19  C   UNL     1       5.587   4.601  18.133  0.00  0.00    +0.000 A 
ATOM     20  C   UNL     1       6.205   4.531  16.878  0.00  0.00    +0.000 A 
BRANCH  15  21
ATOM     21  C   UNL     1       6.201   3.929  14.395  0.00  0.00    +0.000 C 
ATOM     22  C   UNL     1       7.207   5.075  14.210  0.00  0.00    +0.000 C 
BRANCH  21  26
ATOM     23  C   UNL     1       4.263   3.283  11.190  0.00  0.00    +0.000 C 
ATOM     24  C   UNL     1       5.417   3.199  12.154  0.00  0.00    +0.000 C 
ATOM     25  O   UNL     1       6.432   2.562  11.899  0.00  0.00    +0.000 OA
ATOM     26  N   UNL     1       5.213   3.901  13.322  0.00  0.00    +0.000 N 
ATOM     27  H   UNL     1       4.261   4.146  13.561  0.00  0.00    +0.000 HD
ENDBRANCH  21  26
ENDBRANCH  15  21
ENDBRANCH   1  18
TORSDOF 4
ENDMDL
MODEL 3
REMARK VINA RESULT:      -7.6      4.031     11.520
REMARK  Name = 
REMARK  6 active torsions:
REMARK  status: ('A' for Active; 'I' for Inactive)
REMARK    1  A    between atoms: C_1  and  C_2
REMARK    2  A    between atoms: N_4  and  C_5
REMARK    3  A    between atoms: C_5  and  C_6
REMARK    4  A    between atoms: C_5  and  C_7
REMARK    5  A    between atoms: C_10  and  O_11
REMARK    6  A    between atoms: O_11  and  C_12
REMARK                            x       y       z     vdW  Elec       q    Type
REMARK                         _______ _______ _______ _____ _____    ______ ____
ROOT
ATOM      1  O   UNL     1       0.686  10.620  20.830  0.00  0.00    +0.000 OA
ENDROOT
BRANCH   1   2
ATOM      2  C   UNL     1       0.607   9.279  20.271  0.00  0.00    +0.000 C 
ATOM      3  C   UNL     1       1.616   8.894  19.165  0.00  0.00    +0.000 C 
ATOM      4  N   UNL     1       2.041   7.796  19.968  0.00  0.00    +0.000 N 
ATOM      5  C   UNL     1       2.322   6.526  19.617  0.00  0.00    +0.000 A 
ATOM      6  N   UNL     1       2.229   5.458  20.386  0.00  0.00    +0.000 NA
ATOM      7  C   UNL     1       2.715   4.445  19.611  0.00  0.00    +0.000 A 
ATOM      8  C   UNL     1       2.912   3.090  19.909  0.00  0.00    +0.000 A 
ATOM      9  C   UNL     1       3.480   2.271  18.920  0.00  0.00    +0.000 A 
ATOM     10  C   UNL     1       3.823   2.791  17.668  0.00  0.00    +0.000 A 
ATOM     11  C   UNL     1       3.612   4.144  17.349  0.00  0.00    +0.000 A 
ATOM     12  C   UNL     1       3.066   4.930  18.361  0.00  0.00    +0.000 A 
ATOM     13  O   UNL     1       2.797   6.274  18.351  0.00  0.00    +0.000 OA
ATOM     14  C   UNL     1       1.230   8.142  21.093  0.00  0.00    +0.000 C 
ENDBRANCH   1   2
BRANCH   1  18
ATOM     15  C   UNL     1      -2.810  12.298  22.485  0.00  0.00    +0.000 A 
ATOM     16  C   UNL     1      -2.469  12.469  21.135  0.00  0.00    +0.000 A 
ATOM     17  C   UNL     1      -1.298  11.891  20.612  0.00  0.00    +0.000 A 
ATOM     18  C   UNL     1      -0.443  11.142  21.427  0.00  0.00    +0.000 A 
ATOM     19  C   UNL     1      -0.795  10.935  22.758  0.00  0.00    +0.000 A 
ATOM     20  C   UNL     1      -1.959  11.510  23.286  0.00  0.00    +0.000 A 
BRANCH  15  21
ATOM     21  C   UNL     1      -4.050  12.962  23.075  0.00  0.00    +0.000 C 
ATOM     22  C   UNL     1      -4.130  12.689  24.584  0.00  0.00    +0.000 C 
BRANCH  21  26
ATOM     23  C   UNL     1      -7.335  12.706  21.181  0.00  0.00    +0.000 C 
ATOM     24  C   UNL     1      -6.188  13.383  21.882  0.00  0.00    +0.000 C 
ATOM     25  O   UNL     1      -6.120  14.602  21.988  0.00  0.00    +0.000 OA
ATOM     26  N   UNL     1      -5.249  12.506  22.380  0.00  0.00    +0.000 N 
ATOM     27  H   UNL     1      -5.239  11.567  22.003  0.00  0.00    +0.000 HD
ENDBRANCH  21  26
ENDBRANCH  15  21
ENDBRANCH   1  18
TORSDOF 4
ENDMDL
MODEL 4
REMARK VINA RESULT:      -7.6      4.271      7.290
REMARK  Name = 
REMARK  6 active torsions:
REMARK  status: ('A' for Active; 'I' for Inactive)
REMARK    1  A    between atoms: C_1  and  C_2
REMARK    2  A    between atoms: N_4  and  C_5
REMARK    3  A    between atoms: C_5  and  C_6
REMARK    4  A    between atoms: C_5  and  C_7
REMARK    5  A    between atoms: C_10  and  O_11
REMARK    6  A    between atoms: O_11  and  C_12
REMARK                            x       y       z     vdW  Elec       q    Type
REMARK                         _______ _______ _______ _____ _____    ______ ____
ROOT
ATOM      1  O   UNL     1       0.869  10.290  19.156  0.00  0.00    +0.000 OA
ENDROOT
BRANCH   1   2
ATOM      2  C   UNL     1      -0.572  10.252  19.355  0.00  0.00    +0.000 C 
ATOM      3  C   UNL     1      -1.234  11.437  20.095  0.00  0.00    +0.000 C 
ATOM      4  N   UNL     1      -2.082  11.636  18.968  0.00  0.00    +0.000 N 
ATOM      5  C   UNL     1      -3.400  11.912  18.916  0.00  0.00    +0.000 A 
ATOM      6  N   UNL     1      -4.229  11.612  17.934  0.00  0.00    +0.000 NA
ATOM      7  C   UNL     1      -5.410  12.188  18.307  0.00  0.00    +0.000 A 
ATOM      8  C   UNL     1      -6.639  12.249  17.638  0.00  0.00    +0.000 A 
ATOM      9  C   UNL     1      -7.688  12.956  18.245  0.00  0.00    +0.000 A 
ATOM     10  C   UNL     1      -7.514  13.567  19.491  0.00  0.00    +0.000 A 
ATOM     11  C   UNL     1      -6.293  13.497  20.183  0.00  0.00    +0.000 A 
ATOM     12  C   UNL     1      -5.269  12.804  19.540  0.00  0.00    +0.000 A 
ATOM     13  O   UNL     1      -3.974  12.614  19.950  0.00  0.00    +0.000 OA
ATOM     14  C   UNL     1      -1.453  10.638  18.160  0.00  0.00    +0.000 C 
ENDBRANCH   1   2
BRANCH   1  18
ATOM     15  C   UNL     1       2.971   6.676  18.618  0.00  0.00    +0.000 A 
ATOM     16  C   UNL     1       2.924   7.665  17.624  0.00  0.00    +0.000 A 
ATOM     17  C   UNL     1       2.218   8.862  17.837  0.00  0.00    +0.000 A 
ATOM     18  C   UNL     1       1.540   9.090  19.038  0.00  0.00    +0.000 A 
ATOM     19  C   UNL     1       1.616   8.131  20.044  0.00  0.00    +0.000 A 
ATOM     20  C   UNL     1       2.315   6.934  19.838  0.00  0.00    +0.000 A 
BRANCH  15  21
ATOM     21  C   UNL     1       3.691   5.352  18.378  0.00  0.00    +0.000 C 
ATOM     22  C   UNL     1       4.426   5.384  17.031  0.00  0.00    +0.000 C 
BRANCH  21  26
ATOM     23  C   UNL     1       1.913   2.075  19.114  0.00  0.00    +0.000 C 
ATOM     24  C   UNL     1       3.029   3.084  19.146  0.00  0.00    +0.000 C 
ATOM     25  O   UNL     1       4.081   2.872  19.739  0.00  0.00    +0.000 OA
ATOM     26  N   UNL     1       2.749   4.241  18.452  0.00  0.00    +0.000 N 
ATOM     27  H   UNL     1       1.778   4.441  18.248  0.00  0.00    +0.000 HD
ENDBRANCH  21  26
ENDBRANCH  15  21
ENDBRANCH   1  18
TORSDOF 4
ENDMDL
MODEL 5
REMARK VINA RESULT:      -7.5      7.332      8.381
REMARK  Name = 
REMARK  6 active torsions:
REMARK  status: ('A' for Active; 'I' for Inactive)
REMARK    1  A    between atoms: C_1  and  C_2
REMARK    2  A    between atoms: N_4  and  C_5
REMARK    3  A    between atoms: C_5  and  C_6
REMARK    4  A    between atoms: C_5  and  C_7
REMARK    5  A    between atoms: C_10  and  O_11
REMARK    6  A    between atoms: O_11  and  C_12
REMARK                            x       y       z     vdW  Elec       q    Type
REMARK                         _______ _______ _______ _____ _____    ______ ____
ROOT
ATOM      1  O   UNL     1       8.999   8.601  19.105  0.00  0.00    +0.000 OA
ENDROOT
BRANCH   1   2
ATOM      2  C   UNL     1       8.787  10.012  18.824  0.00  0.00    +0.000 C 
ATOM      3  C   UNL     1       9.300  11.042  19.857  0.00  0.00    +0.000 C 
ATOM      4  N   UNL     1      10.071  11.654  18.827  0.00  0.00    +0.000 N 
ATOM      5  C   UNL     1      10.267  12.959  18.552  0.00  0.00    +0.000 A 
ATOM      6  N   UNL     1      10.548  13.482  17.374  0.00  0.00    +0.000 NA
ATOM      7  C   UNL     1      10.749  14.807  17.636  0.00  0.00    +0.000 A 
ATOM      8  C   UNL     1      11.128  15.852  16.783  0.00  0.00    +0.000 A 
ATOM      9  C   UNL     1      11.309  17.127  17.341  0.00  0.00    +0.000 A 
ATOM     10  C   UNL     1      11.100  17.350  18.706  0.00  0.00    +0.000 A 
ATOM     11  C   UNL     1      10.701  16.315  19.569  0.00  0.00    +0.000 A 
ATOM     12  C   UNL     1      10.551  15.059  18.984  0.00  0.00    +0.000 A 
ATOM     13  O   UNL     1      10.220  13.870  19.581  0.00  0.00    +0.000 OA
ATOM     14  C   UNL     1       9.749  10.679  17.832  0.00  0.00    +0.000 C 
ENDBRANCH   1   2
BRANCH   1  18
ATOM     15  C   UNL     1       6.577   5.663  17.294  0.00  0.00    +0.000 A 
ATOM     16  C   UNL     1       7.382   5.381  18.408  0.00  0.00    +0.000 A 
ATOM     17  C   UNL     1       8.174   6.386  18.993  0.00  0.00    +0.000 A 
ATOM     18  C   UNL     1       8.186   7.683  18.472  0.00  0.00    +0.000 A 
ATOM     19  C   UNL     1       7.360   7.980  17.391  0.00  0.00    +0.000 A 
ATOM     20  C   UNL     1       6.570   6.983  16.801  0.00  0.00    +0.000 A 
BRANCH  15  21
ATOM     21  C   UNL     1       5.753   4.569  16.620  0.00  0.00    +0.000 C 
ATOM     22  C   UNL     1       6.111   4.479  15.130  0.00  0.00    +0.000 C 
BRANCH  21  26
ATOM     23  C   UNL     1       2.170   4.629  17.885  0.00  0.00    +0.000 C 
ATOM     24  C   UNL     1       3.620   4.227  17.846  0.00  0.00    +0.000 C 
ATOM     25  O   UNL     1       4.101   3.447  18.661  0.00  0.00    +0.000 OA
ATOM     26  N   UNL     1       4.328   4.812  16.819  0.00  0.00    +0.000 N 
ATOM     27  H   UNL     1       3.934   5.639  16.390  0.00  0.00    +0.000 HD
ENDBRANCH  21  26
ENDBRANCH  15  21
ENDBRANCH   1  18
TORSDOF 4
ENDMDL
MODEL 6
REMARK VINA RESULT:      -7.5      4.230      7.340
REMARK  Name = 
REMARK  6 active torsions:
REMARK  status: ('A' for Active; 'I' for Inactive)
REMARK    1  A    between atoms: C_1  and  C_2
REMARK    2  A    between atoms: N_4  and  C_5
REMARK    3  A    between atoms: C_5  and  C_6
REMARK    4  A    between atoms: C_5  and  C_7
REMARK    5  A    between atoms: C_10  and  O_11
REMARK    6  A    between atoms: O_11  and  C_12
REMARK                            x       y       z     vdW  Elec       q    Type
REMARK                         _______ _______ _______ _____ _____    ______ ____
ROOT
ATOM      1  O   UNL     1       0.848  10.377  19.395  0.00  0.00    +0.000 OA
ENDROOT
BRANCH   1   2
ATOM      2  C   UNL     1      -0.598  10.322  19.544  0.00  0.00    +0.000 C 
ATOM      3  C   UNL     1      -1.298  11.497  20.265  0.00  0.00    +0.000 C 
ATOM      4  N   UNL     1      -2.109  11.692  19.110  0.00  0.00    +0.000 N 
ATOM      5  C   UNL     1      -3.427  11.954  19.013  0.00  0.00    +0.000 A 
ATOM      6  N   UNL     1      -4.218  11.649  18.002  0.00  0.00    +0.000 NA
ATOM      7  C   UNL     1      -5.417  12.210  18.336  0.00  0.00    +0.000 A 
ATOM      8  C   UNL     1      -6.623  12.261  17.624  0.00  0.00    +0.000 A 
ATOM      9  C   UNL     1      -7.701  12.954  18.197  0.00  0.00    +0.000 A 
ATOM     10  C   UNL     1      -7.577  13.560  19.451  0.00  0.00    +0.000 A 
ATOM     11  C   UNL     1      -6.380  13.500  20.185  0.00  0.00    +0.000 A 
ATOM     12  C   UNL     1      -5.327  12.822  19.576  0.00  0.00    +0.000 A 
ATOM     13  O   UNL     1      -4.045  12.644  20.029  0.00  0.00    +0.000 OA
ATOM     14  C   UNL     1      -1.441  10.704  18.320  0.00  0.00    +0.000 C 
ENDBRANCH   1   2
BRANCH   1  18
ATOM     15  C   UNL     1       2.932   6.861  18.361  0.00  0.00    +0.000 A 
ATOM     16  C   UNL     1       2.813   7.943  17.477  0.00  0.00    +0.000 A 
ATOM     17  C   UNL     1       2.117   9.105  17.855  0.00  0.00    +0.000 A 
ATOM     18  C   UNL     1       1.517   9.203  19.114  0.00  0.00    +0.000 A 
ATOM     19  C   UNL     1       1.665   8.149  20.011  0.00  0.00    +0.000 A 
ATOM     20  C   UNL     1       2.355   6.987  19.641  0.00  0.00    +0.000 A 
BRANCH  15  21
ATOM     21  C   UNL     1       3.642   5.576  17.943  0.00  0.00    +0.000 C 
ATOM     22  C   UNL     1       2.756   4.359  18.247  0.00  0.00    +0.000 C 
BRANCH  21  26
ATOM     23  C   UNL     1       7.324   5.750  18.868  0.00  0.00    +0.000 C 
ATOM     24  C   UNL     1       6.100   5.926  18.009  0.00  0.00    +0.000 C 
ATOM     25  O   UNL     1       6.157   6.424  16.891  0.00  0.00    +0.000 OA
ATOM     26  N   UNL     1       4.940   5.477  18.602  0.00  0.00    +0.000 N 
ATOM     27  H   UNL     1       4.943   5.356  19.606  0.00  0.00    +0.000 HD
ENDBRANCH  21  26
ENDBRANCH  15  21
ENDBRANCH   1  18
TORSDOF 4
ENDMDL
MODEL 7
REMARK VINA RESULT:      -7.5      4.254      7.319
REMARK  Name = 
REMARK  6 active torsions:
REMARK  status: ('A' for Active; 'I' for Inactive)
REMARK    1  A    between atoms: C_1  and  C_2
REMARK    2  A    between atoms: N_4  and  C_5
REMARK    3  A    between atoms: C_5  and  C_6
REMARK    4  A    between atoms: C_5  and  C_7
REMARK    5  A    between atoms: C_10  and  O_11
REMARK    6  A    between atoms: O_11  and  C_12
REMARK                            x       y       z     vdW  Elec       q    Type
REMARK                         _______ _______ _______ _____ _____    ______ ____
ROOT
ATOM      1  O   UNL     1       0.838  10.252  18.712  0.00  0.00    +0.000 OA
ENDROOT
BRANCH   1   2
ATOM      2  C   UNL     1      -0.581  10.226  19.031  0.00  0.00    +0.000 C 
ATOM      3  C   UNL     1      -1.176  11.434  19.792  0.00  0.00    +0.000 C 
ATOM      4  N   UNL     1      -2.114  11.607  18.734  0.00  0.00    +0.000 N 
ATOM      5  C   UNL     1      -3.431  11.888  18.785  0.00  0.00    +0.000 A 
ATOM      6  N   UNL     1      -4.340  11.566  17.884  0.00  0.00    +0.000 NA
ATOM      7  C   UNL     1      -5.484  12.157  18.338  0.00  0.00    +0.000 A 
ATOM      8  C   UNL     1      -6.765  12.206  17.772  0.00  0.00    +0.000 A 
ATOM      9  C   UNL     1      -7.758  12.935  18.445  0.00  0.00    +0.000 A 
ATOM     10  C   UNL     1      -7.479  13.578  19.655  0.00  0.00    +0.000 A 
ATOM     11  C   UNL     1      -6.204  13.520  20.245  0.00  0.00    +0.000 A 
ATOM     12  C   UNL     1      -5.240  12.805  19.538  0.00  0.00    +0.000 A 
ATOM     13  O   UNL     1      -3.916  12.620  19.843  0.00  0.00    +0.000 OA
ATOM     14  C   UNL     1      -1.558  10.585  17.904  0.00  0.00    +0.000 C 
ENDBRANCH   1   2
BRANCH   1  18
ATOM     15  C   UNL     1       2.931   6.621  19.162  0.00  0.00    +0.000 A 
ATOM     16  C   UNL     1       2.106   7.134  20.173  0.00  0.00    +0.000 A 
ATOM     17  C   UNL     1       1.416   8.346  19.989  0.00  0.00    +0.000 A 
ATOM     18  C   UNL     1       1.546   9.071  18.800  0.00  0.00    +0.000 A 
ATOM     19  C   UNL     1       2.332   8.547  17.777  0.00  0.00    +0.000 A 
ATOM     20  C   UNL     1       3.024   7.341  17.954  0.00  0.00    +0.000 A 
BRANCH  15  21
ATOM     21  C   UNL     1       3.724   5.333  19.369  0.00  0.00    +0.000 C 
ATOM     22  C   UNL     1       5.219   5.586  19.127  0.00  0.00    +0.000 C 
BRANCH  21  26
ATOM     23  C   UNL     1       2.586   2.031  17.872  0.00  0.00    +0.000 C 
ATOM     24  C   UNL     1       3.176   2.956  18.903  0.00  0.00    +0.000 C 
ATOM     25  O   UNL     1       3.585   2.548  19.984  0.00  0.00    +0.000 OA
ATOM     26  N   UNL     1       3.209   4.275  18.507  0.00  0.00    +0.000 N 
ATOM     27  H   UNL     1       2.603   4.551  17.745  0.00  0.00    +0.000 HD
ENDBRANCH  21  26
ENDBRANCH  15  21
ENDBRANCH   1  18
TORSDOF 4
ENDMDL
MODEL 8
REMARK VINA RESULT:      -7.5      3.549      6.373
REMARK  Name = 
REMARK  6 active torsions:
REMARK  status: ('A' for Active; 'I' for Inactive)
REMARK    1  A    between atoms: C_1  and  C_2
REMARK    2  A    between atoms: N_4  and  C_5
REMARK    3  A    between atoms: C_5  and  C_6
REMARK    4  A    between atoms: C_5  and  C_7
REMARK    5  A    between atoms: C_10  and  O_11
REMARK    6  A    between atoms: O_11  and  C_12
REMARK                            x       y       z     vdW  Elec       q    Type
REMARK                         _______ _______ _______ _____ _____    ______ ____
ROOT
ATOM      1  O   UNL     1       1.510   8.180  21.532  0.00  0.00    +0.000 OA
ENDROOT
BRANCH   1   2
ATOM      2  C   UNL     1       0.224   8.855  21.450  0.00  0.00    +0.000 C 
ATOM      3  C   UNL     1      -0.474   9.249  22.772  0.00  0.00    +0.000 C 
ATOM      4  N   UNL     1      -0.506  10.601  22.324  0.00  0.00    +0.000 N 
ATOM      5  C   UNL     1      -1.490  11.518  22.409  0.00  0.00    +0.000 A 
ATOM      6  N   UNL     1      -1.687  12.539  21.596  0.00  0.00    +0.000 NA
ATOM      7  C   UNL     1      -2.731  13.216  22.158  0.00  0.00    +0.000 A 
ATOM      8  C   UNL     1      -3.350  14.411  21.770  0.00  0.00    +0.000 A 
ATOM      9  C   UNL     1      -4.388  14.909  22.573  0.00  0.00    +0.000 A 
ATOM     10  C   UNL     1      -4.803  14.221  23.717  0.00  0.00    +0.000 A 
ATOM     11  C   UNL     1      -4.205  13.010  24.107  0.00  0.00    +0.000 A 
ATOM     12  C   UNL     1      -3.165  12.557  23.298  0.00  0.00    +0.000 A 
ATOM     13  O   UNL     1      -2.377  11.446  23.457  0.00  0.00    +0.000 OA
ATOM     14  C   UNL     1       0.241  10.355  21.130  0.00  0.00    +0.000 C 
ENDBRANCH   1   2
BRANCH   1  18
ATOM     15  C   UNL     1       2.604   5.495  18.471  0.00  0.00    +0.000 A 
ATOM     16  C   UNL     1       2.224   5.054  19.747  0.00  0.00    +0.000 A 
ATOM     17  C   UNL     1       1.859   5.976  20.745  0.00  0.00    +0.000 A 
ATOM     18  C   UNL     1       1.876   7.351  20.492  0.00  0.00    +0.000 A 
ATOM     19  C   UNL     1       2.213   7.794  19.215  0.00  0.00    +0.000 A 
ATOM     20  C   UNL     1       2.581   6.881  18.217  0.00  0.00    +0.000 A 
BRANCH  15  21
ATOM     21  C   UNL     1       3.051   4.508  17.396  0.00  0.00    +0.000 C 
ATOM     22  C   UNL     1       2.256   3.200  17.515  0.00  0.00    +0.000 C 
BRANCH  21  26
ATOM     23  C   UNL     1       6.826   4.577  16.963  0.00  0.00    +0.000 C 
ATOM     24  C   UNL     1       5.392   4.949  16.694  0.00  0.00    +0.000 C 
ATOM     25  O   UNL     1       5.084   5.775  15.842  0.00  0.00    +0.000 OA
ATOM     26  N   UNL     1       4.488   4.276  17.486  0.00  0.00    +0.000 N 
ATOM     27  H   UNL     1       4.837   3.846  18.333  0.00  0.00    +0.000 HD
ENDBRANCH  21  26
ENDBRANCH  15  21
ENDBRANCH   1  18
TORSDOF 4
ENDMDL
MODEL 9
REMARK VINA RESULT:      -7.5      1.423      2.251
REMARK  Name = 
REMARK  6 active torsions:
REMARK  status: ('A' for Active; 'I' for Inactive)
REMARK    1  A    between atoms: C_1  and  C_2
REMARK    2  A    between atoms: N_4  and  C_5
REMARK    3  A    between atoms: C_5  and  C_6
REMARK    4  A    between atoms: C_5  and  C_7
REMARK    5  A    between atoms: C_10  and  O_11
REMARK    6  A    between atoms: O_11  and  C_12
REMARK                            x       y       z     vdW  Elec       q    Type
REMARK                         _______ _______ _______ _____ _____    ______ ____
ROOT
ATOM      1  O   UNL     1       4.159   5.645  18.749  0.00  0.00    +0.000 OA
ENDROOT
BRANCH   1   2
ATOM      2  C   UNL     1       2.838   6.253  18.803  0.00  0.00    +0.000 C 
ATOM      3  C   UNL     1       2.472   7.083  20.055  0.00  0.00    +0.000 C 
ATOM      4  N   UNL     1       2.201   8.196  19.209  0.00  0.00    +0.000 N 
ATOM      5  C   UNL     1       1.191   9.087  19.250  0.00  0.00    +0.000 A 
ATOM      6  N   UNL     1       0.696   9.764  18.230  0.00  0.00    +0.000 NA
ATOM      7  C   UNL     1      -0.225  10.596  18.798  0.00  0.00    +0.000 A 
ATOM      8  C   UNL     1      -1.032  11.585  18.219  0.00  0.00    +0.000 A 
ATOM      9  C   UNL     1      -1.869  12.333  19.062  0.00  0.00    +0.000 A 
ATOM     10  C   UNL     1      -1.908  12.085  20.438  0.00  0.00    +0.000 A 
ATOM     11  C   UNL     1      -1.119  11.083  21.029  0.00  0.00    +0.000 A 
ATOM     12  C   UNL     1      -0.286  10.375  20.165  0.00  0.00    +0.000 A 
ATOM     13  O   UNL     1       0.615   9.386  20.462  0.00  0.00    +0.000 OA
ATOM     14  C   UNL     1       2.633   7.550  18.009  0.00  0.00    +0.000 C 
ENDBRANCH   1   2
BRANCH   1  18
ATOM     15  C   UNL     1       5.650   4.353  15.023  0.00  0.00    +0.000 A 
ATOM     16  C   UNL     1       6.137   5.504  15.661  0.00  0.00    +0.000 A 
ATOM     17  C   UNL     1       5.622   5.904  16.907  0.00  0.00    +0.000 A 
ATOM     18  C   UNL     1       4.608   5.173  17.533  0.00  0.00    +0.000 A 
ATOM     19  C   UNL     1       4.147   4.008  16.924  0.00  0.00    +0.000 A 
ATOM     20  C   UNL     1       4.654   3.604  15.681  0.00  0.00    +0.000 A 
BRANCH  15  21
ATOM     21  C   UNL     1       6.165   3.937  13.648  0.00  0.00    +0.000 C 
ATOM     22  C   UNL     1       7.310   4.861  13.209  0.00  0.00    +0.000 C 
BRANCH  21  26
ATOM     23  C   UNL     1       3.730   3.105  10.851  0.00  0.00    +0.000 C 
ATOM     24  C   UNL     1       4.933   2.932  11.739  0.00  0.00    +0.000 C 
ATOM     25  O   UNL     1       5.701   1.985  11.616  0.00  0.00    +0.000 OA
ATOM     26  N   UNL     1       5.075   3.931  12.678  0.00  0.00    +0.000 N 
ATOM     27  H   UNL     1       4.261   4.493  12.891  0.00  0.00    +0.000 HD
ENDBRANCH  21  26
ENDBRANCH  15  21
ENDBRANCH   1  18
TORSDOF 4
ENDMDL
