MODEL 1
REMARK VINA RESULT:      -7.4      0.000      0.000
REMARK  Name = 
REMARK  4 active torsions:
REMARK  status: ('A' for Active; 'I' for Inactive)
REMARK    1  A    between atoms: C_1  and  O_2
REMARK    2  A    between atoms: O_2  and  C_3
REMARK    3  A    between atoms: C_6  and  C_7
REMARK    4  A    between atoms: C_15  and  C_16
REMARK                            x       y       z     vdW  Elec       q    Type
REMARK                         _______ _______ _______ _____ _____    ______ ____
ROOT
ATOM      1  C   UNL     1      -1.298  10.793  19.854  0.00  0.00    +0.000 C 
ATOM      2  S   UNL     1      -1.829  12.319  20.700  0.00  0.00    +0.000 S 
ATOM      3  C   UNL     1      -0.337  12.376  21.705  0.00  0.00    +0.000 C 
ATOM      4  C   UNL     1       0.676  11.459  21.051  0.00  0.00    +0.000 C 
ATOM      5  O   UNL     1       1.832  11.388  21.460  0.00  0.00    +0.000 OA
ATOM      6  N   UNL     1       0.137  10.783  19.960  0.00  0.00    +0.000 N 
ATOM      7  C   UNL     1       0.971   9.900  19.321  0.00  0.00    +0.000 A 
ATOM      8  N   UNL     1       1.080   8.595  19.487  0.00  0.00    +0.000 NA
ATOM      9  C   UNL     1       2.057   8.086  18.607  0.00  0.00    +0.000 A 
ATOM     10  C   UNL     1       2.571   9.038  17.739  0.00  0.00    +0.000 A 
ATOM     11  S   UNL     1       1.888  10.573  18.045  0.00  0.00    +0.000 S 
ENDROOT
BRANCH   9  12
ATOM     12  C   UNL     1       2.399   6.606  18.663  0.00  0.00    +0.000 C 
ATOM     13  C   UNL     1       1.440   5.805  17.746  0.00  0.00    +0.000 C 
ATOM     14  C   UNL     1       1.741   4.301  17.796  0.00  0.00    +0.000 C 
ATOM     15  C   UNL     1       3.185   4.055  17.331  0.00  0.00    +0.000 C 
ATOM     16  C   UNL     1       4.165   4.804  18.247  0.00  0.00    +0.000 C 
ATOM     17  C   UNL     1       4.001   4.305  19.690  0.00  0.00    +0.000 C 
ATOM     18  C   UNL     1       2.563   4.549  20.164  0.00  0.00    +0.000 C 
ATOM     19  C   UNL     1       1.586   3.803  19.243  0.00  0.00    +0.000 C 
ATOM     20  C   UNL     1       2.246   6.058  20.110  0.00  0.00    +0.000 C 
ATOM     21  C   UNL     1       3.856   6.310  18.199  0.00  0.00    +0.000 C 
ENDBRANCH   9  12
BRANCH   1  25
ATOM     22  C   UNL     1      -2.910  10.634  15.828  0.00  0.00    +0.000 A 
ATOM     23  C   UNL     1      -2.296  11.797  16.291  0.00  0.00    +0.000 A 
ATOM     24  C   UNL     1      -1.757  11.851  17.577  0.00  0.00    +0.000 A 
ATOM     25  C   UNL     1      -1.838  10.743  18.437  0.00  0.00    +0.000 A 
ATOM     26  C   UNL     1      -2.467   9.581  17.962  0.00  0.00    +0.000 A 
ATOM     27  C   UNL     1      -3.005   9.529  16.670  0.00  0.00    +0.000 A 
BRANCH  22  29
ATOM     28  C   UNL     1      -3.000   9.700  13.657  0.00  0.00    +0.000 C 
ATOM     29  O   UNL     1      -3.411  10.716  14.558  0.00  0.00    +0.000 OA
ENDBRANCH  22  29
ENDBRANCH   1  25
TORSDOF 3
ENDMDL
MODEL 2
REMARK VINA RESULT:      -7.3      0.105      1.390
REMARK  Name = 
REMARK  4 active torsions:
REMARK  status: ('A' for Active; 'I' for Inactive)
REMARK    1  A    between atoms: C_1  and  O_2
REMARK    2  A    between atoms: O_2  and  C_3
REMARK    3  A    between atoms: C_6  and  C_7
REMARK    4  A    between atoms: C_15  and  C_16
REMARK                            x       y       z     vdW  Elec       q    Type
REMARK                         _______ _______ _______ _____ _____    ______ ____
ROOT
ATOM      1  C   UNL     1      -1.266  10.783  19.847  0.00  0.00    +0.000 C 
ATOM      2  S   UNL     1      -1.807  12.302  20.701  0.00  0.00    +0.000 S 
ATOM      3  C   UNL     1      -0.313  12.366  21.702  0.00  0.00    +0.000 C 
ATOM      4  C   UNL     1       0.705  11.459  21.041  0.00  0.00    +0.000 C 
ATOM      5  O   UNL     1       1.863  11.395  21.447  0.00  0.00    +0.000 OA
ATOM      6  N   UNL     1       0.168  10.783  19.950  0.00  0.00    +0.000 N 
ATOM      7  C   UNL     1       1.007   9.908  19.305  0.00  0.00    +0.000 A 
ATOM      8  N   UNL     1       1.126   8.603  19.466  0.00  0.00    +0.000 NA
ATOM      9  C   UNL     1       2.105   8.106  18.581  0.00  0.00    +0.000 A 
ATOM     10  C   UNL     1       2.609   9.064  17.716  0.00  0.00    +0.000 A 
ATOM     11  S   UNL     1       1.916  10.593  18.030  0.00  0.00    +0.000 S 
ENDROOT
BRANCH   9  12
ATOM     12  C   UNL     1       2.457   6.627  18.631  0.00  0.00    +0.000 C 
ATOM     13  C   UNL     1       3.901   6.409  18.113  0.00  0.00    +0.000 C 
ATOM     14  C   UNL     1       4.284   4.922  18.127  0.00  0.00    +0.000 C 
ATOM     15  C   UNL     1       4.192   4.388  19.566  0.00  0.00    +0.000 C 
ATOM     16  C   UNL     1       2.759   4.553  20.096  0.00  0.00    +0.000 C 
ATOM     17  C   UNL     1       1.787   3.774  19.197  0.00  0.00    +0.000 C 
ATOM     18  C   UNL     1       1.870   4.302  17.761  0.00  0.00    +0.000 C 
ATOM     19  C   UNL     1       3.305   4.140  17.236  0.00  0.00    +0.000 C 
ATOM     20  C   UNL     1       1.496   5.798  17.734  0.00  0.00    +0.000 C 
ATOM     21  C   UNL     1       2.377   6.042  20.073  0.00  0.00    +0.000 C 
ENDBRANCH   9  12
BRANCH   1  25
ATOM     22  C   UNL     1      -2.887  10.625  15.825  0.00  0.00    +0.000 A 
ATOM     23  C   UNL     1      -2.326  11.806  16.307  0.00  0.00    +0.000 A 
ATOM     24  C   UNL     1      -1.784  11.861  17.592  0.00  0.00    +0.000 A 
ATOM     25  C   UNL     1      -1.810  10.734  18.432  0.00  0.00    +0.000 A 
ATOM     26  C   UNL     1      -2.388   9.554  17.938  0.00  0.00    +0.000 A 
ATOM     27  C   UNL     1      -2.929   9.501  16.647  0.00  0.00    +0.000 A 
BRANCH  22  29
ATOM     28  C   UNL     1      -3.033   9.663  13.669  0.00  0.00    +0.000 C 
ATOM     29  O   UNL     1      -3.398  10.707  14.559  0.00  0.00    +0.000 OA
ENDBRANCH  22  29
ENDBRANCH   1  25
TORSDOF 3
ENDMDL
MODEL 3
REMARK VINA RESULT:      -7.2      0.209      1.416
REMARK  Name = 
REMARK  4 active torsions:
REMARK  status: ('A' for Active; 'I' for Inactive)
REMARK    1  A    between atoms: C_1  and  O_2
REMARK    2  A    between atoms: O_2  and  C_3
REMARK    3  A    between atoms: C_6  and  C_7
REMARK    4  A    between atoms: C_15  and  C_16
REMARK                            x       y       z     vdW  Elec       q    Type
REMARK                         _______ _______ _______ _____ _____    ______ ____
ROOT
ATOM      1  C   UNL     1      -1.315  10.758  19.861  0.00  0.00    +0.000 C 
ATOM      2  S   UNL     1      -1.860  12.264  20.735  0.00  0.00    +0.000 S 
ATOM      3  C   UNL     1      -0.387  12.293  21.769  0.00  0.00    +0.000 C 
ATOM      4  C   UNL     1       0.637  11.390  21.111  0.00  0.00    +0.000 C 
ATOM      5  O   UNL     1       1.784  11.306  21.540  0.00  0.00    +0.000 OA
ATOM      6  N   UNL     1       0.117  10.742  19.994  0.00  0.00    +0.000 N 
ATOM      7  C   UNL     1       0.961   9.873  19.350  0.00  0.00    +0.000 A 
ATOM      8  N   UNL     1       1.064   8.564  19.485  0.00  0.00    +0.000 NA
ATOM      9  C   UNL     1       2.057   8.075  18.610  0.00  0.00    +0.000 A 
ATOM     10  C   UNL     1       2.589   9.046  17.777  0.00  0.00    +0.000 A 
ATOM     11  S   UNL     1       1.903  10.576  18.108  0.00  0.00    +0.000 S 
ENDROOT
BRANCH   9  12
ATOM     12  C   UNL     1       2.394   6.593  18.637  0.00  0.00    +0.000 C 
ATOM     13  C   UNL     1       2.263   6.045  20.081  0.00  0.00    +0.000 C 
ATOM     14  C   UNL     1       2.620   4.554  20.150  0.00  0.00    +0.000 C 
ATOM     15  C   UNL     1       1.671   3.761  19.236  0.00  0.00    +0.000 C 
ATOM     16  C   UNL     1       1.806   4.254  17.788  0.00  0.00    +0.000 C 
ATOM     17  C   UNL     1       3.255   4.059  17.314  0.00  0.00    +0.000 C 
ATOM     18  C   UNL     1       4.208   4.849  18.217  0.00  0.00    +0.000 C 
ATOM     19  C   UNL     1       4.066   4.358  19.667  0.00  0.00    +0.000 C 
ATOM     20  C   UNL     1       3.854   6.349  18.163  0.00  0.00    +0.000 C 
ATOM     21  C   UNL     1       1.455   5.750  17.723  0.00  0.00    +0.000 C 
ENDBRANCH   9  12
BRANCH   1  25
ATOM     22  C   UNL     1      -2.852  10.704  15.803  0.00  0.00    +0.000 A 
ATOM     23  C   UNL     1      -2.231  11.849  16.302  0.00  0.00    +0.000 A 
ATOM     24  C   UNL     1      -1.716  11.869  17.598  0.00  0.00    +0.000 A 
ATOM     25  C   UNL     1      -1.829  10.745  18.434  0.00  0.00    +0.000 A 
ATOM     26  C   UNL     1      -2.465   9.602  17.924  0.00  0.00    +0.000 A 
ATOM     27  C   UNL     1      -2.980   9.583  16.621  0.00  0.00    +0.000 A 
BRANCH  22  29
ATOM     28  C   UNL     1      -3.996   9.681  14.004  0.00  0.00    +0.000 C 
ATOM     29  O   UNL     1      -3.328  10.819  14.526  0.00  0.00    +0.000 OA
ENDBRANCH  22  29
ENDBRANCH   1  25
TORSDOF 3
ENDMDL
MODEL 4
REMARK VINA RESULT:      -7.2      0.554      1.067
REMARK  Name = 
REMARK  4 active torsions:
REMARK  status: ('A' for Active; 'I' for Inactive)
REMARK    1  A    between atoms: C_1  and  O_2
REMARK    2  A    between atoms: O_2  and  C_3
REMARK    3  A    between atoms: C_6  and  C_7
REMARK    4  A    between atoms: C_15  and  C_16
REMARK                            x       y       z     vdW  Elec       q    Type
REMARK                         _______ _______ _______ _____ _____    ______ ____
ROOT
ATOM      1  C   UNL     1      -1.168  11.078  20.029  0.00  0.00    +0.000 C 
ATOM      2  S   UNL     1      -1.540  12.737  20.690  0.00  0.00    +0.000 S 
ATOM      3  C   UNL     1       0.056  12.853  21.515  0.00  0.00    +0.000 C 
ATOM      4  C   UNL     1       0.951  11.796  20.902  0.00  0.00    +0.000 C 
ATOM      5  O   UNL     1       2.142  11.719  21.195  0.00  0.00    +0.000 OA
ATOM      6  N   UNL     1       0.267  11.002  19.986  0.00  0.00    +0.000 N 
ATOM      7  C   UNL     1       0.989   9.991  19.403  0.00  0.00    +0.000 A 
ATOM      8  N   UNL     1       1.062   8.719  19.748  0.00  0.00    +0.000 NA
ATOM      9  C   UNL     1       1.914   8.035  18.856  0.00  0.00    +0.000 A 
ATOM     10  C   UNL     1       2.367   8.822  17.808  0.00  0.00    +0.000 A 
ATOM     11  S   UNL     1       1.785  10.422  17.952  0.00  0.00    +0.000 S 
ENDROOT
BRANCH   9  12
ATOM     12  C   UNL     1       2.199   6.561  19.097  0.00  0.00    +0.000 C 
ATOM     13  C   UNL     1       1.612   5.712  17.941  0.00  0.00    +0.000 C 
ATOM     14  C   UNL     1       1.860   4.213  18.162  0.00  0.00    +0.000 C 
ATOM     15  C   UNL     1       3.374   3.956  18.240  0.00  0.00    +0.000 C 
ATOM     16  C   UNL     1       3.982   4.753  19.404  0.00  0.00    +0.000 C 
ATOM     17  C   UNL     1       3.320   4.322  20.722  0.00  0.00    +0.000 C 
ATOM     18  C   UNL     1       1.811   4.578  20.654  0.00  0.00    +0.000 C 
ATOM     19  C   UNL     1       1.207   3.784  19.486  0.00  0.00    +0.000 C 
ATOM     20  C   UNL     1       1.548   6.081  20.423  0.00  0.00    +0.000 C 
ATOM     21  C   UNL     1       3.724   6.253  19.182  0.00  0.00    +0.000 C 
ENDBRANCH   9  12
BRANCH   1  25
ATOM     22  C   UNL     1      -3.094  10.452  16.191  0.00  0.00    +0.000 A 
ATOM     23  C   UNL     1      -3.188   9.482  17.188  0.00  0.00    +0.000 A 
ATOM     24  C   UNL     1      -2.589   9.682  18.432  0.00  0.00    +0.000 A 
ATOM     25  C   UNL     1      -1.864  10.856  18.699  0.00  0.00    +0.000 A 
ATOM     26  C   UNL     1      -1.768  11.821  17.684  0.00  0.00    +0.000 A 
ATOM     27  C   UNL     1      -2.373  11.618  16.436  0.00  0.00    +0.000 A 
BRANCH  22  29
ATOM     28  C   UNL     1      -2.854   9.894  13.905  0.00  0.00    +0.000 C 
ATOM     29  O   UNL     1      -3.710  10.127  15.014  0.00  0.00    +0.000 OA
ENDBRANCH  22  29
ENDBRANCH   1  25
TORSDOF 3
ENDMDL
MODEL 5
REMARK VINA RESULT:      -6.8      9.781     11.469
REMARK  Name = 
REMARK  4 active torsions:
REMARK  status: ('A' for Active; 'I' for Inactive)
REMARK    1  A    between atoms: C_1  and  O_2
REMARK    2  A    between atoms: O_2  and  C_3
REMARK    3  A    between atoms: C_6  and  C_7
REMARK    4  A    between atoms: C_15  and  C_16
REMARK                            x       y       z     vdW  Elec       q    Type
REMARK                         _______ _______ _______ _____ _____    ______ ____
ROOT
ATOM      1  C   UNL     1       8.708  14.409  25.807  0.00  0.00    +0.000 C 
ATOM      2  S   UNL     1       8.670  15.478  27.285  0.00  0.00    +0.000 S 
ATOM      3  C   UNL     1       9.325  16.889  26.379  0.00  0.00    +0.000 C 
ATOM      4  C   UNL     1       9.151  16.591  24.904  0.00  0.00    +0.000 C 
ATOM      5  O   UNL     1       9.409  17.433  24.047  0.00  0.00    +0.000 OA
ATOM      6  N   UNL     1       8.649  15.311  24.688  0.00  0.00    +0.000 N 
ATOM      7  C   UNL     1       8.489  14.935  23.378  0.00  0.00    +0.000 A 
ATOM      8  N   UNL     1       9.307  14.242  22.608  0.00  0.00    +0.000 NA
ATOM      9  C   UNL     1       8.730  14.077  21.332  0.00  0.00    +0.000 A 
ATOM     10  C   UNL     1       7.441  14.579  21.237  0.00  0.00    +0.000 A 
ATOM     11  S   UNL     1       6.960  15.304  22.707  0.00  0.00    +0.000 S 
ENDROOT
BRANCH   9  12
ATOM     12  C   UNL     1       9.524  13.358  20.253  0.00  0.00    +0.000 C 
ATOM     13  C   UNL     1       9.687  11.862  20.624  0.00  0.00    +0.000 C 
ATOM     14  C   UNL     1      10.506  11.107  19.567  0.00  0.00    +0.000 C 
ATOM     15  C   UNL     1       9.793  11.203  18.208  0.00  0.00    +0.000 C 
ATOM     16  C   UNL     1       9.652  12.675  17.793  0.00  0.00    +0.000 C 
ATOM     17  C   UNL     1      11.045  13.312  17.685  0.00  0.00    +0.000 C 
ATOM     18  C   UNL     1      11.763  13.225  19.037  0.00  0.00    +0.000 C 
ATOM     19  C   UNL     1      11.897  11.752  19.452  0.00  0.00    +0.000 C 
ATOM     20  C   UNL     1      10.945  13.972  20.110  0.00  0.00    +0.000 C 
ATOM     21  C   UNL     1       8.837  13.429  18.857  0.00  0.00    +0.000 C 
ENDBRANCH   9  12
BRANCH   1  25
ATOM     22  C   UNL     1       5.492  11.498  25.927  0.00  0.00    +0.000 A 
ATOM     23  C   UNL     1       6.653  11.229  25.203  0.00  0.00    +0.000 A 
ATOM     24  C   UNL     1       7.701  12.150  25.175  0.00  0.00    +0.000 A 
ATOM     25  C   UNL     1       7.600  13.374  25.858  0.00  0.00    +0.000 A 
ATOM     26  C   UNL     1       6.422  13.638  26.575  0.00  0.00    +0.000 A 
ATOM     27  C   UNL     1       5.372  12.710  26.604  0.00  0.00    +0.000 A 
BRANCH  22  29
ATOM     28  C   UNL     1       3.978  10.109  27.098  0.00  0.00    +0.000 C 
ATOM     29  O   UNL     1       4.535  10.523  25.860  0.00  0.00    +0.000 OA
ENDBRANCH  22  29
ENDBRANCH   1  25
TORSDOF 3
ENDMDL
MODEL 6
REMARK VINA RESULT:      -6.8     10.005     11.569
REMARK  Name = 
REMARK  4 active torsions:
REMARK  status: ('A' for Active; 'I' for Inactive)
REMARK    1  A    between atoms: C_1  and  O_2
REMARK    2  A    between atoms: O_2  and  C_3
REMARK    3  A    between atoms: C_6  and  C_7
REMARK    4  A    between atoms: C_15  and  C_16
REMARK                            x       y       z     vdW  Elec       q    Type
REMARK                         _______ _______ _______ _____ _____    ______ ____
ROOT
ATOM      1  C   UNL     1       8.776  14.688  25.573  0.00  0.00    +0.000 C 
ATOM      2  S   UNL     1       8.645  15.789  27.022  0.00  0.00    +0.000 S 
ATOM      3  C   UNL     1       9.309  17.194  26.114  0.00  0.00    +0.000 C 
ATOM      4  C   UNL     1       9.210  16.859  24.640  0.00  0.00    +0.000 C 
ATOM      5  O   UNL     1       9.488  17.687  23.777  0.00  0.00    +0.000 OA
ATOM      6  N   UNL     1       8.748  15.562  24.431  0.00  0.00    +0.000 N 
ATOM      7  C   UNL     1       8.657  15.154  23.125  0.00  0.00    +0.000 A 
ATOM      8  N   UNL     1       9.525  14.463  22.410  0.00  0.00    +0.000 NA
ATOM      9  C   UNL     1       9.011  14.256  21.113  0.00  0.00    +0.000 A 
ATOM     10  C   UNL     1       7.717  14.724  20.947  0.00  0.00    +0.000 A 
ATOM     11  S   UNL     1       7.152  15.471  22.377  0.00  0.00    +0.000 S 
ENDROOT
BRANCH   9  12
ATOM     12  C   UNL     1       9.871  13.532  20.089  0.00  0.00    +0.000 C 
ATOM     13  C   UNL     1       9.214  13.619  18.688  0.00  0.00    +0.000 C 
ATOM     14  C   UNL     1      10.044  12.876  17.631  0.00  0.00    +0.000 C 
ATOM     15  C   UNL     1      11.446  13.502  17.556  0.00  0.00    +0.000 C 
ATOM     16  C   UNL     1      12.142  13.395  18.921  0.00  0.00    +0.000 C 
ATOM     17  C   UNL     1      12.262  11.917  19.321  0.00  0.00    +0.000 C 
ATOM     18  C   UNL     1      10.867  11.286  19.402  0.00  0.00    +0.000 C 
ATOM     19  C   UNL     1      10.172  11.399  18.037  0.00  0.00    +0.000 C 
ATOM     20  C   UNL     1      10.020  12.029  20.456  0.00  0.00    +0.000 C 
ATOM     21  C   UNL     1      11.304  14.134  19.978  0.00  0.00    +0.000 C 
ENDBRANCH   9  12
BRANCH   1  25
ATOM     22  C   UNL     1       5.714  11.614  25.687  0.00  0.00    +0.000 A 
ATOM     23  C   UNL     1       5.436  12.898  26.154  0.00  0.00    +0.000 A 
ATOM     24  C   UNL     1       6.407  13.898  26.103  0.00  0.00    +0.000 A 
ATOM     25  C   UNL     1       7.690  13.628  25.598  0.00  0.00    +0.000 A 
ATOM     26  C   UNL     1       7.962  12.329  25.140  0.00  0.00    +0.000 A 
ATOM     27  C   UNL     1       6.984  11.327  25.190  0.00  0.00    +0.000 A 
BRANCH  22  29
ATOM     28  C   UNL     1       4.271  10.422  27.132  0.00  0.00    +0.000 C 
ATOM     29  O   UNL     1       4.684  10.723  25.808  0.00  0.00    +0.000 OA
ENDBRANCH  22  29
ENDBRANCH   1  25
TORSDOF 3
ENDMDL
MODEL 7
REMARK VINA RESULT:      -6.6      7.350      8.940
REMARK  Name = 
REMARK  4 active torsions:
REMARK  status: ('A' for Active; 'I' for Inactive)
REMARK    1  A    between atoms: C_1  and  O_2
REMARK    2  A    between atoms: O_2  and  C_3
REMARK    3  A    between atoms: C_6  and  C_7
REMARK    4  A    between atoms: C_15  and  C_16
REMARK                            x       y       z     vdW  Elec       q    Type
REMARK                         _______ _______ _______ _____ _____    ______ ____
ROOT
ATOM      1  C   UNL     1       4.763  16.150  21.742  0.00  0.00    +0.000 C 
ATOM      2  S   UNL     1       4.015  17.559  22.628  0.00  0.00    +0.000 S 
ATOM      3  C   UNL     1       5.582  18.439  22.716  0.00  0.00    +0.000 C 
ATOM      4  C   UNL     1       6.509  17.799  21.703  0.00  0.00    +0.000 C 
ATOM      5  O   UNL     1       7.618  18.271  21.464  0.00  0.00    +0.000 OA
ATOM      6  N   UNL     1       5.930  16.688  21.097  0.00  0.00    +0.000 N 
ATOM      7  C   UNL     1       6.709  16.019  20.187  0.00  0.00    +0.000 A 
ATOM      8  N   UNL     1       7.462  14.949  20.367  0.00  0.00    +0.000 NA
ATOM      9  C   UNL     1       8.078  14.594  19.149  0.00  0.00    +0.000 A 
ATOM     10  C   UNL     1       7.671  15.369  18.074  0.00  0.00    +0.000 A 
ATOM     11  S   UNL     1       6.568  16.574  18.576  0.00  0.00    +0.000 S 
ENDROOT
BRANCH   9  12
ATOM     12  C   UNL     1       9.045  13.420  19.130  0.00  0.00    +0.000 C 
ATOM     13  C   UNL     1       8.958  12.640  20.467  0.00  0.00    +0.000 C 
ATOM     14  C   UNL     1       9.939  11.460  20.493  0.00  0.00    +0.000 C 
ATOM     15  C   UNL     1       9.608  10.498  19.340  0.00  0.00    +0.000 C 
ATOM     16  C   UNL     1       9.725  11.232  17.996  0.00  0.00    +0.000 C 
ATOM     17  C   UNL     1      11.156  11.763  17.824  0.00  0.00    +0.000 C 
ATOM     18  C   UNL     1      11.494  12.726  18.968  0.00  0.00    +0.000 C 
ATOM     19  C   UNL     1      11.371  11.990  20.311  0.00  0.00    +0.000 C 
ATOM     20  C   UNL     1      10.509  13.912  18.958  0.00  0.00    +0.000 C 
ATOM     21  C   UNL     1       8.746  12.418  17.976  0.00  0.00    +0.000 C 
ENDBRANCH   9  12
BRANCH   1  25
ATOM     22  C   UNL     1       1.922  14.313  19.024  0.00  0.00    +0.000 A 
ATOM     23  C   UNL     1       2.593  13.535  19.966  0.00  0.00    +0.000 A 
ATOM     24  C   UNL     1       3.493  14.120  20.858  0.00  0.00    +0.000 A 
ATOM     25  C   UNL     1       3.756  15.499  20.812  0.00  0.00    +0.000 A 
ATOM     26  C   UNL     1       3.082  16.270  19.852  0.00  0.00    +0.000 A 
ATOM     27  C   UNL     1       2.177  15.681  18.959  0.00  0.00    +0.000 A 
BRANCH  22  29
ATOM     28  C   UNL     1      -0.266  13.504  18.633  0.00  0.00    +0.000 C 
ATOM     29  O   UNL     1       1.081  13.617  18.200  0.00  0.00    +0.000 OA
ENDBRANCH  22  29
ENDBRANCH   1  25
TORSDOF 3
ENDMDL
MODEL 8
REMARK VINA RESULT:      -6.5      7.411      9.024
REMARK  Name = 
REMARK  4 active torsions:
REMARK  status: ('A' for Active; 'I' for Inactive)
REMARK    1  A    between atoms: C_1  and  O_2
REMARK    2  A    between atoms: O_2  and  C_3
REMARK    3  A    between atoms: C_6  and  C_7
REMARK    4  A    between atoms: C_15  and  C_16
REMARK                            x       y       z     vdW  Elec       q    Type
REMARK                         _______ _______ _______ _____ _____    ______ ____
ROOT
ATOM      1  C   UNL     1       4.841  16.165  21.990  0.00  0.00    +0.000 C 
ATOM      2  S   UNL     1       4.116  17.551  22.930  0.00  0.00    +0.000 S 
ATOM      3  C   UNL     1       5.696  18.406  23.042  0.00  0.00    +0.000 C 
ATOM      4  C   UNL     1       6.610  17.791  22.003  0.00  0.00    +0.000 C 
ATOM      5  O   UNL     1       7.724  18.256  21.776  0.00  0.00    +0.000 OA
ATOM      6  N   UNL     1       6.013  16.710  21.359  0.00  0.00    +0.000 N 
ATOM      7  C   UNL     1       6.779  16.064  20.422  0.00  0.00    +0.000 A 
ATOM      8  N   UNL     1       7.517  14.978  20.560  0.00  0.00    +0.000 NA
ATOM      9  C   UNL     1       8.123  14.658  19.327  0.00  0.00    +0.000 A 
ATOM     10  C   UNL     1       7.723  15.477  18.283  0.00  0.00    +0.000 A 
ATOM     11  S   UNL     1       6.639  16.678  18.833  0.00  0.00    +0.000 S 
ENDROOT
BRANCH   9  12
ATOM     12  C   UNL     1       9.074  13.473  19.262  0.00  0.00    +0.000 C 
ATOM     13  C   UNL     1      10.522  13.969  19.018  0.00  0.00    +0.000 C 
ATOM     14  C   UNL     1      11.508  12.796  18.922  0.00  0.00    +0.000 C 
ATOM     15  C   UNL     1      11.476  11.997  20.235  0.00  0.00    +0.000 C 
ATOM     16  C   UNL     1      10.060  11.457  20.486  0.00  0.00    +0.000 C 
ATOM     17  C   UNL     1       9.646  10.544  19.321  0.00  0.00    +0.000 C 
ATOM     18  C   UNL     1       9.671  11.334  18.008  0.00  0.00    +0.000 C 
ATOM     19  C   UNL     1      11.088  11.877  17.763  0.00  0.00    +0.000 C 
ATOM     20  C   UNL     1       8.691  12.521  18.095  0.00  0.00    +0.000 C 
ATOM     21  C   UNL     1       9.074  12.634  20.574  0.00  0.00    +0.000 C 
ENDBRANCH   9  12
BRANCH   1  25
ATOM     22  C   UNL     1       1.890  14.410  19.335  0.00  0.00    +0.000 A 
ATOM     23  C   UNL     1       2.091  15.789  19.345  0.00  0.00    +0.000 A 
ATOM     24  C   UNL     1       3.052  16.361  20.180  0.00  0.00    +0.000 A 
ATOM     25  C   UNL     1       3.822  15.562  21.042  0.00  0.00    +0.000 A 
ATOM     26  C   UNL     1       3.603  14.175  21.031  0.00  0.00    +0.000 A 
ATOM     27  C   UNL     1       2.639  13.603  20.190  0.00  0.00    +0.000 A 
BRANCH  22  29
ATOM     28  C   UNL     1       0.184  12.831  18.901  0.00  0.00    +0.000 C 
ATOM     29  O   UNL     1       0.910  13.978  18.486  0.00  0.00    +0.000 OA
ENDBRANCH  22  29
ENDBRANCH   1  25
TORSDOF 3
ENDMDL
MODEL 9
REMARK VINA RESULT:      -6.5      7.524      9.078
REMARK  Name = 
REMARK  4 active torsions:
REMARK  status: ('A' for Active; 'I' for Inactive)
REMARK    1  A    between atoms: C_1  and  O_2
REMARK    2  A    between atoms: O_2  and  C_3
REMARK    3  A    between atoms: C_6  and  C_7
REMARK    4  A    between atoms: C_15  and  C_16
REMARK                            x       y       z     vdW  Elec       q    Type
REMARK                         _______ _______ _______ _____ _____    ______ ____
ROOT
ATOM      1  C   UNL     1       5.134  16.344  22.164  0.00  0.00    +0.000 C 
ATOM      2  S   UNL     1       4.483  17.775  23.088  0.00  0.00    +0.000 S 
ATOM      3  C   UNL     1       6.066  18.629  23.038  0.00  0.00    +0.000 C 
ATOM      4  C   UNL     1       6.898  17.962  21.962  0.00  0.00    +0.000 C 
ATOM      5  O   UNL     1       7.991  18.413  21.629  0.00  0.00    +0.000 OA
ATOM      6  N   UNL     1       6.255  16.854  21.420  0.00  0.00    +0.000 N 
ATOM      7  C   UNL     1       6.947  16.161  20.459  0.00  0.00    +0.000 A 
ATOM      8  N   UNL     1       7.694  15.081  20.592  0.00  0.00    +0.000 NA
ATOM      9  C   UNL     1       8.204  14.701  19.333  0.00  0.00    +0.000 A 
ATOM     10  C   UNL     1       7.724  15.469  18.285  0.00  0.00    +0.000 A 
ATOM     11  S   UNL     1       6.685  16.699  18.857  0.00  0.00    +0.000 S 
ENDROOT
BRANCH   9  12
ATOM     12  C   UNL     1       9.148  13.511  19.252  0.00  0.00    +0.000 C 
ATOM     13  C   UNL     1       8.701  12.557  18.116  0.00  0.00    +0.000 C 
ATOM     14  C   UNL     1       9.619  11.330  18.020  0.00  0.00    +0.000 C 
ATOM     15  C   UNL     1      11.057  11.792  17.735  0.00  0.00    +0.000 C 
ATOM     16  C   UNL     1      11.545  12.710  18.866  0.00  0.00    +0.000 C 
ATOM     17  C   UNL     1      11.507  11.946  20.198  0.00  0.00    +0.000 C 
ATOM     18  C   UNL     1      10.076  11.484  20.492  0.00  0.00    +0.000 C 
ATOM     19  C   UNL     1       9.588  10.571  19.356  0.00  0.00    +0.000 C 
ATOM     20  C   UNL     1       9.142  12.708  20.583  0.00  0.00    +0.000 C 
ATOM     21  C   UNL     1      10.619  13.934  18.964  0.00  0.00    +0.000 C 
ENDBRANCH   9  12
BRANCH   1  25
ATOM     22  C   UNL     1       1.989  14.473  19.831  0.00  0.00    +0.000 A 
ATOM     23  C   UNL     1       2.215  15.845  19.729  0.00  0.00    +0.000 A 
ATOM     24  C   UNL     1       3.237  16.452  20.459  0.00  0.00    +0.000 A 
ATOM     25  C   UNL     1       4.046  15.698  21.327  0.00  0.00    +0.000 A 
ATOM     26  C   UNL     1       3.802  14.319  21.429  0.00  0.00    +0.000 A 
ATOM     27  C   UNL     1       2.777  13.712  20.692  0.00  0.00    +0.000 A 
BRANCH  22  29
ATOM     28  C   UNL     1       1.059  12.663  18.627  0.00  0.00    +0.000 C 
ATOM     29  O   UNL     1       0.949  14.005  19.077  0.00  0.00    +0.000 OA
ENDBRANCH  22  29
ENDBRANCH   1  25
TORSDOF 3
ENDMDL
