MODEL 1
REMARK VINA RESULT:      -8.5      0.000      0.000
REMARK  Name = 
REMARK  8 active torsions:
REMARK  status: ('A' for Active; 'I' for Inactive)
REMARK    1  A    between atoms: C_2  and  C_12
REMARK    2  A    between atoms: N_3  and  C_4
REMARK    3  A    between atoms: C_4  and  C_5
REMARK    4  A    between atoms: N_14  and  C_15
REMARK    5  A    between atoms: C_15  and  C_16
REMARK    6  A    between atoms: C_16  and  C_17
REMARK    7  A    between atoms: C_16  and  S_22
REMARK    8  A    between atoms: S_22  and  C_25
REMARK                            x       y       z     vdW  Elec       q    Type
REMARK                         _______ _______ _______ _____ _____    ______ ____
ROOT
ATOM      1  C   UNL     1       2.113   8.549  18.291  0.00  0.00    +0.000 C 
ATOM      2  O   UNL     1       2.573   8.836  17.195  0.00  0.00    +0.000 OA
ATOM      3  N   UNL     1       2.433   7.428  19.026  0.00  0.00    +0.000 N 
ATOM      4  H   UNL     1       1.934   7.298  19.903  0.00  0.00    +0.000 HD
ENDROOT
BRANCH   1   6
ATOM      5  O   UNL     1       1.092   9.567  20.202  0.00  0.00    +0.000 OA
ATOM      6  C   UNL     1       1.108   9.491  18.983  0.00  0.00    +0.000 C 
ATOM      7  N   UNL     1       0.298  10.185  18.113  0.00  0.00    +0.000 N 
ATOM      8  H   UNL     1       0.300   9.879  17.144  0.00  0.00    +0.000 HD
BRANCH   7   9
ATOM      9  C   UNL     1      -0.755  11.051  18.597  0.00  0.00    +0.000 C 
BRANCH   9  10
ATOM     10  C   UNL     1      -2.044  10.949  17.820  0.00  0.00    +0.000 A 
ATOM     11  C   UNL     1      -2.090  10.312  16.563  0.00  0.00    +0.000 A 
ATOM     12  C   UNL     1      -3.272  10.262  15.819  0.00  0.00    +0.000 A 
ATOM     13  C   UNL     1      -4.431  10.863  16.304  0.00  0.00    +0.000 A 
ATOM     14  C   UNL     1      -4.403  11.524  17.528  0.00  0.00    +0.000 A 
ATOM     15  C   UNL     1      -3.222  11.579  18.277  0.00  0.00    +0.000 A 
ATOM     16 CL   UNL     1      -3.265  12.469  19.756  0.00  0.00    +0.000 Cl
ENDBRANCH   9  10
ENDBRANCH   7   9
ENDBRANCH   1   6
BRANCH   3  17
ATOM     17  C   UNL     1       3.402   6.443  18.570  0.00  0.00    +0.000 C 
BRANCH  17  18
ATOM     18  C   UNL     1       3.734   5.366  19.612  0.00  0.00    +0.000 C 
BRANCH  18  19
ATOM     19  C   UNL     1       2.632   4.336  19.788  0.00  0.00    +0.000 A 
ATOM     20  C   UNL     1       1.884   3.755  18.777  0.00  0.00    +0.000 A 
ATOM     21  C   UNL     1       0.992   2.755  19.257  0.00  0.00    +0.000 A 
ATOM     22  C   UNL     1       1.070   2.612  20.623  0.00  0.00    +0.000 A 
ATOM     23  S   UNL     1       2.211   3.681  21.316  0.00  0.00    +0.000 S 
ENDBRANCH  18  19
BRANCH  18  24
ATOM     24  S   UNL     1       5.299   4.572  19.232  0.00  0.00    +0.000 S 
ATOM     25  O   UNL     1       6.414   5.365  19.712  0.00  0.00    +0.000 OA
ATOM     26  O   UNL     1       5.211   3.146  19.488  0.00  0.00    +0.000 OA
BRANCH  24  27
ATOM     27  C   UNL     1       5.413   4.671  17.443  0.00  0.00    +0.000 A 
ATOM     28  C   UNL     1       4.790   3.953  16.438  0.00  0.00    +0.000 A 
ATOM     29  C   UNL     1       5.164   4.401  15.137  0.00  0.00    +0.000 A 
ATOM     30  C   UNL     1       6.067   5.439  15.191  0.00  0.00    +0.000 A 
ATOM     31  S   UNL     1       6.468   5.856  16.800  0.00  0.00    +0.000 S 
ENDBRANCH  24  27
ENDBRANCH  18  24
ENDBRANCH  17  18
ENDBRANCH   3  17
TORSDOF 8
ENDMDL
MODEL 2
REMARK VINA RESULT:      -8.2      0.914      1.137
REMARK  Name = 
REMARK  8 active torsions:
REMARK  status: ('A' for Active; 'I' for Inactive)
REMARK    1  A    between atoms: C_2  and  C_12
REMARK    2  A    between atoms: N_3  and  C_4
REMARK    3  A    between atoms: C_4  and  C_5
REMARK    4  A    between atoms: N_14  and  C_15
REMARK    5  A    between atoms: C_15  and  C_16
REMARK    6  A    between atoms: C_16  and  C_17
REMARK    7  A    between atoms: C_16  and  S_22
REMARK    8  A    between atoms: S_22  and  C_25
REMARK                            x       y       z     vdW  Elec       q    Type
REMARK                         _______ _______ _______ _____ _____    ______ ____
ROOT
ATOM      1  C   UNL     1       1.911   8.687  18.301  0.00  0.00    +0.000 C 
ATOM      2  O   UNL     1       2.324   8.973  17.186  0.00  0.00    +0.000 OA
ATOM      3  N   UNL     1       2.270   7.573  19.027  0.00  0.00    +0.000 N 
ATOM      4  H   UNL     1       1.808   7.442  19.924  0.00  0.00    +0.000 HD
ENDROOT
BRANCH   1   6
ATOM      5  O   UNL     1       0.706   9.461  20.220  0.00  0.00    +0.000 OA
ATOM      6  C   UNL     1       0.926   9.624  19.029  0.00  0.00    +0.000 C 
ATOM      7  N   UNL     1       0.376  10.595  18.224  0.00  0.00    +0.000 N 
ATOM      8  H   UNL     1       0.509  10.489  17.222  0.00  0.00    +0.000 HD
BRANCH   7   9
ATOM      9  C   UNL     1      -0.629  11.506  18.728  0.00  0.00    +0.000 C 
BRANCH   9  10
ATOM     10  C   UNL     1      -2.003  11.297  18.140  0.00  0.00    +0.000 A 
ATOM     11  C   UNL     1      -2.173  10.674  16.888  0.00  0.00    +0.000 A 
ATOM     12  C   UNL     1      -3.440  10.525  16.317  0.00  0.00    +0.000 A 
ATOM     13  C   UNL     1      -4.566  11.014  16.978  0.00  0.00    +0.000 A 
ATOM     14  C   UNL     1      -4.420  11.660  18.200  0.00  0.00    +0.000 A 
ATOM     15  C   UNL     1      -3.153  11.813  18.775  0.00  0.00    +0.000 A 
ATOM     16 CL   UNL     1      -3.061  12.679  20.266  0.00  0.00    +0.000 Cl
ENDBRANCH   9  10
ENDBRANCH   7   9
ENDBRANCH   1   6
BRANCH   3  17
ATOM     17  C   UNL     1       3.228   6.594  18.536  0.00  0.00    +0.000 C 
BRANCH  17  18
ATOM     18  C   UNL     1       3.662   5.564  19.588  0.00  0.00    +0.000 C 
BRANCH  18  19
ATOM     19  C   UNL     1       2.629   4.478  19.831  0.00  0.00    +0.000 A 
ATOM     20  C   UNL     1       2.238   3.979  21.063  0.00  0.00    +0.000 A 
ATOM     21  C   UNL     1       1.181   3.031  20.964  0.00  0.00    +0.000 A 
ATOM     22  C   UNL     1       0.805   2.818  19.658  0.00  0.00    +0.000 A 
ATOM     23  S   UNL     1       1.727   3.756  18.564  0.00  0.00    +0.000 S 
ENDBRANCH  18  19
BRANCH  18  24
ATOM     24  S   UNL     1       5.254   4.852  19.165  0.00  0.00    +0.000 S 
ATOM     25  O   UNL     1       6.341   5.666  19.675  0.00  0.00    +0.000 OA
ATOM     26  O   UNL     1       5.225   3.413  19.355  0.00  0.00    +0.000 OA
BRANCH  24  27
ATOM     27  C   UNL     1       5.353   5.037  17.382  0.00  0.00    +0.000 A 
ATOM     28  C   UNL     1       5.690   6.116  16.583  0.00  0.00    +0.000 A 
ATOM     29  C   UNL     1       5.664   5.795  15.195  0.00  0.00    +0.000 A 
ATOM     30  C   UNL     1       5.299   4.485  14.977  0.00  0.00    +0.000 A 
ATOM     31  S   UNL     1       4.977   3.658  16.439  0.00  0.00    +0.000 S 
ENDBRANCH  24  27
ENDBRANCH  18  24
ENDBRANCH  17  18
ENDBRANCH   3  17
TORSDOF 8
ENDMDL
MODEL 3
REMARK VINA RESULT:      -8.2      1.325      1.643
REMARK  Name = 
REMARK  8 active torsions:
REMARK  status: ('A' for Active; 'I' for Inactive)
REMARK    1  A    between atoms: C_2  and  C_12
REMARK    2  A    between atoms: N_3  and  C_4
REMARK    3  A    between atoms: C_4  and  C_5
REMARK    4  A    between atoms: N_14  and  C_15
REMARK    5  A    between atoms: C_15  and  C_16
REMARK    6  A    between atoms: C_16  and  C_17
REMARK    7  A    between atoms: C_16  and  S_22
REMARK    8  A    between atoms: S_22  and  C_25
REMARK                            x       y       z     vdW  Elec       q    Type
REMARK                         _______ _______ _______ _____ _____    ______ ____
ROOT
ATOM      1  C   UNL     1       1.947   8.646  18.205  0.00  0.00    +0.000 C 
ATOM      2  O   UNL     1       2.397   9.037  17.138  0.00  0.00    +0.000 OA
ATOM      3  N   UNL     1       2.246   7.444  18.809  0.00  0.00    +0.000 N 
ATOM      4  H   UNL     1       1.758   7.233  19.677  0.00  0.00    +0.000 HD
ENDROOT
BRANCH   1   6
ATOM      5  O   UNL     1       0.904   9.395  20.226  0.00  0.00    +0.000 OA
ATOM      6  C   UNL     1       0.981   9.534  19.014  0.00  0.00    +0.000 C 
ATOM      7  N   UNL     1       0.277  10.437  18.251  0.00  0.00    +0.000 N 
ATOM      8  H   UNL     1       0.308  10.307  17.244  0.00  0.00    +0.000 HD
BRANCH   7   9
ATOM      9  C   UNL     1      -0.732  11.291  18.840  0.00  0.00    +0.000 C 
BRANCH   9  10
ATOM     10  C   UNL     1      -2.088  11.188  18.187  0.00  0.00    +0.000 A 
ATOM     11  C   UNL     1      -2.244  10.584  16.923  0.00  0.00    +0.000 A 
ATOM     12  C   UNL     1      -3.491  10.533  16.293  0.00  0.00    +0.000 A 
ATOM     13  C   UNL     1      -4.607  11.101  16.904  0.00  0.00    +0.000 A 
ATOM     14  C   UNL     1      -4.472  11.729  18.137  0.00  0.00    +0.000 A 
ATOM     15  C   UNL     1      -3.225  11.785  18.771  0.00  0.00    +0.000 A 
ATOM     16 CL   UNL     1      -3.141  12.634  20.272  0.00  0.00    +0.000 Cl
ENDBRANCH   9  10
ENDBRANCH   7   9
ENDBRANCH   1   6
BRANCH   3  17
ATOM     17  C   UNL     1       3.178   6.488  18.231  0.00  0.00    +0.000 C 
BRANCH  17  18
ATOM     18  C   UNL     1       3.632   5.392  19.204  0.00  0.00    +0.000 C 
BRANCH  18  19
ATOM     19  C   UNL     1       2.512   4.456  19.624  0.00  0.00    +0.000 A 
ATOM     20  C   UNL     1       1.623   3.811  18.780  0.00  0.00    +0.000 A 
ATOM     21  C   UNL     1       0.749   2.927  19.473  0.00  0.00    +0.000 A 
ATOM     22  C   UNL     1       0.982   2.933  20.828  0.00  0.00    +0.000 A 
ATOM     23  S   UNL     1       2.245   4.003  21.257  0.00  0.00    +0.000 S 
ENDBRANCH  18  19
BRANCH  18  24
ATOM     24  S   UNL     1       5.017   4.471  18.528  0.00  0.00    +0.000 S 
ATOM     25  O   UNL     1       5.521   3.509  19.490  0.00  0.00    +0.000 OA
ATOM     26  O   UNL     1       4.748   4.103  17.150  0.00  0.00    +0.000 OA
BRANCH  24  27
ATOM     27  C   UNL     1       6.324   5.694  18.388  0.00  0.00    +0.000 A 
ATOM     28  C   UNL     1       7.463   5.917  19.140  0.00  0.00    +0.000 A 
ATOM     29  C   UNL     1       8.245   6.998  18.637  0.00  0.00    +0.000 A 
ATOM     30  C   UNL     1       7.673   7.572  17.524  0.00  0.00    +0.000 A 
ATOM     31  S   UNL     1       6.197   6.817  17.101  0.00  0.00    +0.000 S 
ENDBRANCH  24  27
ENDBRANCH  18  24
ENDBRANCH  17  18
ENDBRANCH   3  17
TORSDOF 8
ENDMDL
MODEL 4
REMARK VINA RESULT:      -8.1      1.601      3.890
REMARK  Name = 
REMARK  8 active torsions:
REMARK  status: ('A' for Active; 'I' for Inactive)
REMARK    1  A    between atoms: C_2  and  C_12
REMARK    2  A    between atoms: N_3  and  C_4
REMARK    3  A    between atoms: C_4  and  C_5
REMARK    4  A    between atoms: N_14  and  C_15
REMARK    5  A    between atoms: C_15  and  C_16
REMARK    6  A    between atoms: C_16  and  C_17
REMARK    7  A    between atoms: C_16  and  S_22
REMARK    8  A    between atoms: S_22  and  C_25
REMARK                            x       y       z     vdW  Elec       q    Type
REMARK                         _______ _______ _______ _____ _____    ______ ____
ROOT
ATOM      1  C   UNL     1       2.268   8.031  19.039  0.00  0.00    +0.000 C 
ATOM      2  O   UNL     1       2.852   8.410  18.034  0.00  0.00    +0.000 OA
ATOM      3  N   UNL     1       2.521   6.860  19.719  0.00  0.00    +0.000 N 
ATOM      4  H   UNL     1       1.922   6.654  20.516  0.00  0.00    +0.000 HD
ENDROOT
BRANCH   1   6
ATOM      5  O   UNL     1       0.979   8.858  20.879  0.00  0.00    +0.000 OA
ATOM      6  C   UNL     1       1.165   8.902  19.672  0.00  0.00    +0.000 C 
ATOM      7  N   UNL     1       0.476   9.679  18.769  0.00  0.00    +0.000 N 
ATOM      8  H   UNL     1       0.616   9.469  17.785  0.00  0.00    +0.000 HD
BRANCH   7   9
ATOM      9  C   UNL     1      -0.645  10.495  19.184  0.00  0.00    +0.000 C 
BRANCH   9  10
ATOM     10  C   UNL     1      -1.772  10.551  18.182  0.00  0.00    +0.000 A 
ATOM     11  C   UNL     1      -1.712   9.824  16.976  0.00  0.00    +0.000 A 
ATOM     12  C   UNL     1      -2.731   9.915  16.023  0.00  0.00    +0.000 A 
ATOM     13  C   UNL     1      -3.824  10.750  16.246  0.00  0.00    +0.000 A 
ATOM     14  C   UNL     1      -3.890  11.501  17.414  0.00  0.00    +0.000 A 
ATOM     15  C   UNL     1      -2.872  11.415  18.371  0.00  0.00    +0.000 A 
ATOM     16 CL   UNL     1      -3.010  12.425  19.765  0.00  0.00    +0.000 Cl
ENDBRANCH   9  10
ENDBRANCH   7   9
ENDBRANCH   1   6
BRANCH   3  17
ATOM     17  C   UNL     1       3.561   5.927  19.312  0.00  0.00    +0.000 C 
BRANCH  17  18
ATOM     18  C   UNL     1       3.448   5.466  17.852  0.00  0.00    +0.000 C 
BRANCH  18  19
ATOM     19  C   UNL     1       4.793   5.235  17.186  0.00  0.00    +0.000 A 
ATOM     20  C   UNL     1       5.128   5.556  15.881  0.00  0.00    +0.000 A 
ATOM     21  C   UNL     1       6.496   5.300  15.584  0.00  0.00    +0.000 A 
ATOM     22  C   UNL     1       7.165   4.774  16.665  0.00  0.00    +0.000 A 
ATOM     23  S   UNL     1       6.143   4.589  18.024  0.00  0.00    +0.000 S 
ENDBRANCH  18  19
BRANCH  18  24
ATOM     24  S   UNL     1       2.409   4.008  17.721  0.00  0.00    +0.000 S 
ATOM     25  O   UNL     1       1.038   4.372  17.418  0.00  0.00    +0.000 OA
ATOM     26  O   UNL     1       3.102   2.964  16.988  0.00  0.00    +0.000 OA
BRANCH  24  27
ATOM     27  C   UNL     1       2.344   3.369  19.398  0.00  0.00    +0.000 A 
ATOM     28  C   UNL     1       3.299   2.756  20.189  0.00  0.00    +0.000 A 
ATOM     29  C   UNL     1       2.807   2.437  21.489  0.00  0.00    +0.000 A 
ATOM     30  C   UNL     1       1.490   2.810  21.645  0.00  0.00    +0.000 A 
ATOM     31  S   UNL     1       0.853   3.523  20.227  0.00  0.00    +0.000 S 
ENDBRANCH  24  27
ENDBRANCH  18  24
ENDBRANCH  17  18
ENDBRANCH   3  17
TORSDOF 8
ENDMDL
MODEL 5
REMARK VINA RESULT:      -8.1      1.910      3.963
REMARK  Name = 
REMARK  8 active torsions:
REMARK  status: ('A' for Active; 'I' for Inactive)
REMARK    1  A    between atoms: C_2  and  C_12
REMARK    2  A    between atoms: N_3  and  C_4
REMARK    3  A    between atoms: C_4  and  C_5
REMARK    4  A    between atoms: N_14  and  C_15
REMARK    5  A    between atoms: C_15  and  C_16
REMARK    6  A    between atoms: C_16  and  C_17
REMARK    7  A    between atoms: C_16  and  S_22
REMARK    8  A    between atoms: S_22  and  C_25
REMARK                            x       y       z     vdW  Elec       q    Type
REMARK                         _______ _______ _______ _____ _____    ______ ____
ROOT
ATOM      1  C   UNL     1       1.433   8.198  20.585  0.00  0.00    +0.000 C 
ATOM      2  O   UNL     1       1.505   7.735  21.714  0.00  0.00    +0.000 OA
ATOM      3  N   UNL     1       1.995   7.644  19.455  0.00  0.00    +0.000 N 
ATOM      4  H   UNL     1       1.892   8.168  18.588  0.00  0.00    +0.000 HD
ENDROOT
BRANCH   1   6
ATOM      5  O   UNL     1      -0.125   9.915  21.179  0.00  0.00    +0.000 OA
ATOM      6  C   UNL     1       0.637   9.493  20.323  0.00  0.00    +0.000 C 
ATOM      7  N   UNL     1       0.885  10.066  19.097  0.00  0.00    +0.000 N 
ATOM      8  H   UNL     1       1.396   9.502  18.424  0.00  0.00    +0.000 HD
BRANCH   7   9
ATOM      9  C   UNL     1       0.162  11.239  18.658  0.00  0.00    +0.000 C 
BRANCH   9  10
ATOM     10  C   UNL     1      -1.277  10.976  18.288  0.00  0.00    +0.000 A 
ATOM     11  C   UNL     1      -1.614  10.022  17.307  0.00  0.00    +0.000 A 
ATOM     12  C   UNL     1      -2.942   9.812  16.925  0.00  0.00    +0.000 A 
ATOM     13  C   UNL     1      -3.963  10.565  17.502  0.00  0.00    +0.000 A 
ATOM     14  C   UNL     1      -3.652  11.534  18.449  0.00  0.00    +0.000 A 
ATOM     15  C   UNL     1      -2.323  11.749  18.834  0.00  0.00    +0.000 A 
ATOM     16 CL   UNL     1      -2.026  13.011  19.975  0.00  0.00    +0.000 Cl
ENDBRANCH   9  10
ENDBRANCH   7   9
ENDBRANCH   1   6
BRANCH   3  17
ATOM     17  C   UNL     1       2.741   6.395  19.484  0.00  0.00    +0.000 C 
BRANCH  17  18
ATOM     18  C   UNL     1       3.138   5.874  18.096  0.00  0.00    +0.000 C 
BRANCH  18  19
ATOM     19  C   UNL     1       4.636   5.887  17.851  0.00  0.00    +0.000 A 
ATOM     20  C   UNL     1       5.282   6.405  16.741  0.00  0.00    +0.000 A 
ATOM     21  C   UNL     1       6.700   6.350  16.852  0.00  0.00    +0.000 A 
ATOM     22  C   UNL     1       7.099   5.776  18.036  0.00  0.00    +0.000 A 
ATOM     23  S   UNL     1       5.768   5.305  19.002  0.00  0.00    +0.000 S 
ENDBRANCH  18  19
BRANCH  18  24
ATOM     24  S   UNL     1       2.455   4.238  17.809  0.00  0.00    +0.000 S 
ATOM     25  O   UNL     1       1.129   4.322  17.230  0.00  0.00    +0.000 OA
ATOM     26  O   UNL     1       3.474   3.361  17.261  0.00  0.00    +0.000 OA
BRANCH  24  27
ATOM     27  C   UNL     1       2.185   3.585  19.460  0.00  0.00    +0.000 A 
ATOM     28  C   UNL     1       1.092   3.642  20.307  0.00  0.00    +0.000 A 
ATOM     29  C   UNL     1       1.315   2.946  21.530  0.00  0.00    +0.000 A 
ATOM     30  C   UNL     1       2.574   2.388  21.583  0.00  0.00    +0.000 A 
ATOM     31  S   UNL     1       3.480   2.719  20.170  0.00  0.00    +0.000 S 
ENDBRANCH  24  27
ENDBRANCH  18  24
ENDBRANCH  17  18
ENDBRANCH   3  17
TORSDOF 8
ENDMDL
MODEL 6
REMARK VINA RESULT:      -8.0      1.605      3.872
REMARK  Name = 
REMARK  8 active torsions:
REMARK  status: ('A' for Active; 'I' for Inactive)
REMARK    1  A    between atoms: C_2  and  C_12
REMARK    2  A    between atoms: N_3  and  C_4
REMARK    3  A    between atoms: C_4  and  C_5
REMARK    4  A    between atoms: N_14  and  C_15
REMARK    5  A    between atoms: C_15  and  C_16
REMARK    6  A    between atoms: C_16  and  C_17
REMARK    7  A    between atoms: C_16  and  S_22
REMARK    8  A    between atoms: S_22  and  C_25
REMARK                            x       y       z     vdW  Elec       q    Type
REMARK                         _______ _______ _______ _____ _____    ______ ____
ROOT
ATOM      1  C   UNL     1       2.381   8.390  18.160  0.00  0.00    +0.000 C 
ATOM      2  O   UNL     1       3.055   8.213  17.154  0.00  0.00    +0.000 OA
ATOM      3  N   UNL     1       2.292   7.523  19.227  0.00  0.00    +0.000 N 
ATOM      4  H   UNL     1       1.654   7.783  19.976  0.00  0.00    +0.000 HD
ENDROOT
BRANCH   1   6
ATOM      5  O   UNL     1       2.089  10.765  18.119  0.00  0.00    +0.000 OA
ATOM      6  C   UNL     1       1.560   9.684  18.328  0.00  0.00    +0.000 C 
ATOM      7  N   UNL     1       0.255   9.475  18.708  0.00  0.00    +0.000 N 
ATOM      8  H   UNL     1       0.014   8.540  19.024  0.00  0.00    +0.000 HD
BRANCH   7   9
ATOM      9  C   UNL     1      -0.631  10.584  18.990  0.00  0.00    +0.000 C 
BRANCH   9  10
ATOM     10  C   UNL     1      -1.852  10.639  18.105  0.00  0.00    +0.000 A 
ATOM     11  C   UNL     1      -1.906   9.924  16.891  0.00  0.00    +0.000 A 
ATOM     12  C   UNL     1      -3.015  10.014  16.046  0.00  0.00    +0.000 A 
ATOM     13  C   UNL     1      -4.089  10.835  16.384  0.00  0.00    +0.000 A 
ATOM     14  C   UNL     1      -4.045  11.574  17.562  0.00  0.00    +0.000 A 
ATOM     15  C   UNL     1      -2.936  11.489  18.411  0.00  0.00    +0.000 A 
ATOM     16 CL   UNL     1      -2.944  12.485  19.823  0.00  0.00    +0.000 Cl
ENDBRANCH   9  10
ENDBRANCH   7   9
ENDBRANCH   1   6
BRANCH   3  17
ATOM     17  C   UNL     1       3.033   6.272  19.284  0.00  0.00    +0.000 C 
BRANCH  17  18
ATOM     18  C   UNL     1       3.295   5.640  17.910  0.00  0.00    +0.000 C 
BRANCH  18  19
ATOM     19  C   UNL     1       4.770   5.448  17.605  0.00  0.00    +0.000 A 
ATOM     20  C   UNL     1       5.755   5.092  18.511  0.00  0.00    +0.000 A 
ATOM     21  C   UNL     1       7.025   4.900  17.897  0.00  0.00    +0.000 A 
ATOM     22  C   UNL     1       6.979   5.132  16.542  0.00  0.00    +0.000 A 
ATOM     23  S   UNL     1       5.414   5.581  16.020  0.00  0.00    +0.000 S 
ENDBRANCH  18  19
BRANCH  18  24
ATOM     24  S   UNL     1       2.399   4.094  17.738  0.00  0.00    +0.000 S 
ATOM     25  O   UNL     1       1.055   4.324  17.244  0.00  0.00    +0.000 OA
ATOM     26  O   UNL     1       3.261   3.078  17.161  0.00  0.00    +0.000 OA
BRANCH  24  27
ATOM     27  C   UNL     1       2.168   3.535  19.429  0.00  0.00    +0.000 A 
ATOM     28  C   UNL     1       1.096   3.641  20.297  0.00  0.00    +0.000 A 
ATOM     29  C   UNL     1       1.348   3.014  21.552  0.00  0.00    +0.000 A 
ATOM     30  C   UNL     1       2.607   2.458  21.605  0.00  0.00    +0.000 A 
ATOM     31  S   UNL     1       3.478   2.706  20.155  0.00  0.00    +0.000 S 
ENDBRANCH  24  27
ENDBRANCH  18  24
ENDBRANCH  17  18
ENDBRANCH   3  17
TORSDOF 8
ENDMDL
MODEL 7
REMARK VINA RESULT:      -7.9      1.502      1.815
REMARK  Name = 
REMARK  8 active torsions:
REMARK  status: ('A' for Active; 'I' for Inactive)
REMARK    1  A    between atoms: C_2  and  C_12
REMARK    2  A    between atoms: N_3  and  C_4
REMARK    3  A    between atoms: C_4  and  C_5
REMARK    4  A    between atoms: N_14  and  C_15
REMARK    5  A    between atoms: C_15  and  C_16
REMARK    6  A    between atoms: C_16  and  C_17
REMARK    7  A    between atoms: C_16  and  S_22
REMARK    8  A    between atoms: S_22  and  C_25
REMARK                            x       y       z     vdW  Elec       q    Type
REMARK                         _______ _______ _______ _____ _____    ______ ____
ROOT
ATOM      1  C   UNL     1       2.208   8.391  18.282  0.00  0.00    +0.000 C 
ATOM      2  O   UNL     1       3.139   8.862  17.645  0.00  0.00    +0.000 OA
ATOM      3  N   UNL     1       1.960   7.048  18.465  0.00  0.00    +0.000 N 
ATOM      4  H   UNL     1       1.118   6.804  18.982  0.00  0.00    +0.000 HD
ENDROOT
BRANCH   1   6
ATOM      5  O   UNL     1       1.262   9.454  20.208  0.00  0.00    +0.000 OA
ATOM      6  C   UNL     1       1.204   9.320  18.995  0.00  0.00    +0.000 C 
ATOM      7  N   UNL     1       0.310   9.934  18.148  0.00  0.00    +0.000 N 
ATOM      8  H   UNL     1       0.265   9.582  17.197  0.00  0.00    +0.000 HD
BRANCH   7   9
ATOM      9  C   UNL     1      -0.751  10.775  18.661  0.00  0.00    +0.000 C 
BRANCH   9  10
ATOM     10  C   UNL     1      -1.992  10.794  17.803  0.00  0.00    +0.000 A 
ATOM     11  C   UNL     1      -2.017  10.167  16.541  0.00  0.00    +0.000 A 
ATOM     12  C   UNL     1      -3.148  10.228  15.723  0.00  0.00    +0.000 A 
ATOM     13  C   UNL     1      -4.276  10.932  16.140  0.00  0.00    +0.000 A 
ATOM     14  C   UNL     1      -4.264  11.585  17.368  0.00  0.00    +0.000 A 
ATOM     15  C   UNL     1      -3.133  11.529  18.190  0.00  0.00    +0.000 A 
ATOM     16 CL   UNL     1      -3.189  12.416  19.671  0.00  0.00    +0.000 Cl
ENDBRANCH   9  10
ENDBRANCH   7   9
ENDBRANCH   1   6
BRANCH   3  17
ATOM     17  C   UNL     1       2.821   6.012  17.917  0.00  0.00    +0.000 C 
BRANCH  17  18
ATOM     18  C   UNL     1       3.642   5.260  18.974  0.00  0.00    +0.000 C 
BRANCH  18  19
ATOM     19  C   UNL     1       2.833   4.241  19.756  0.00  0.00    +0.000 A 
ATOM     20  C   UNL     1       2.491   4.318  21.096  0.00  0.00    +0.000 A 
ATOM     21  C   UNL     1       1.646   3.251  21.511  0.00  0.00    +0.000 A 
ATOM     22  C   UNL     1       1.379   2.378  20.482  0.00  0.00    +0.000 A 
ATOM     23  S   UNL     1       2.148   2.846  19.028  0.00  0.00    +0.000 S 
ENDBRANCH  18  19
BRANCH  18  24
ATOM     24  S   UNL     1       5.090   4.499  18.235  0.00  0.00    +0.000 S 
ATOM     25  O   UNL     1       5.731   3.588  19.165  0.00  0.00    +0.000 OA
ATOM     26  O   UNL     1       4.808   4.115  16.863  0.00  0.00    +0.000 OA
BRANCH  24  27
ATOM     27  C   UNL     1       6.253   5.855  18.060  0.00  0.00    +0.000 A 
ATOM     28  C   UNL     1       6.262   6.962  17.229  0.00  0.00    +0.000 A 
ATOM     29  C   UNL     1       7.386   7.807  17.460  0.00  0.00    +0.000 A 
ATOM     30  C   UNL     1       8.204   7.315  18.452  0.00  0.00    +0.000 A 
ATOM     31  S   UNL     1       7.624   5.836  19.086  0.00  0.00    +0.000 S 
ENDBRANCH  24  27
ENDBRANCH  18  24
ENDBRANCH  17  18
ENDBRANCH   3  17
TORSDOF 8
ENDMDL
MODEL 8
REMARK VINA RESULT:      -7.9      0.936      1.059
REMARK  Name = 
REMARK  8 active torsions:
REMARK  status: ('A' for Active; 'I' for Inactive)
REMARK    1  A    between atoms: C_2  and  C_12
REMARK    2  A    between atoms: N_3  and  C_4
REMARK    3  A    between atoms: C_4  and  C_5
REMARK    4  A    between atoms: N_14  and  C_15
REMARK    5  A    between atoms: C_15  and  C_16
REMARK    6  A    between atoms: C_16  and  C_17
REMARK    7  A    between atoms: C_16  and  S_22
REMARK    8  A    between atoms: S_22  and  C_25
REMARK                            x       y       z     vdW  Elec       q    Type
REMARK                         _______ _______ _______ _____ _____    ______ ____
ROOT
ATOM      1  C   UNL     1       2.591   8.436  17.656  0.00  0.00    +0.000 C 
ATOM      2  O   UNL     1       3.342   8.563  16.699  0.00  0.00    +0.000 OA
ATOM      3  N   UNL     1       2.438   7.291  18.407  0.00  0.00    +0.000 N 
ATOM      4  H   UNL     1       1.740   7.318  19.147  0.00  0.00    +0.000 HD
ENDROOT
BRANCH   1   6
ATOM      5  O   UNL     1       2.228  10.741  18.189  0.00  0.00    +0.000 OA
ATOM      6  C   UNL     1       1.735   9.624  18.136  0.00  0.00    +0.000 C 
ATOM      7  N   UNL     1       0.442   9.287  18.466  0.00  0.00    +0.000 N 
ATOM      8  H   UNL     1       0.235   8.296  18.551  0.00  0.00    +0.000 HD
BRANCH   7   9
ATOM      9  C   UNL     1      -0.472  10.267  19.013  0.00  0.00    +0.000 C 
BRANCH   9  10
ATOM     10  C   UNL     1      -1.722  10.471  18.192  0.00  0.00    +0.000 A 
ATOM     11  C   UNL     1      -1.899   9.815  16.958  0.00  0.00    +0.000 A 
ATOM     12  C   UNL     1      -3.032  10.041  16.172  0.00  0.00    +0.000 A 
ATOM     13  C   UNL     1      -4.007  10.943  16.594  0.00  0.00    +0.000 A 
ATOM     14  C   UNL     1      -3.840  11.625  17.793  0.00  0.00    +0.000 A 
ATOM     15  C   UNL     1      -2.706  11.404  18.583  0.00  0.00    +0.000 A 
ATOM     16 CL   UNL     1      -2.555  12.337  20.029  0.00  0.00    +0.000 Cl
ENDBRANCH   9  10
ENDBRANCH   7   9
ENDBRANCH   1   6
BRANCH   3  17
ATOM     17  C   UNL     1       3.196   6.077  18.147  0.00  0.00    +0.000 C 
BRANCH  17  18
ATOM     18  C   UNL     1       3.637   5.333  19.415  0.00  0.00    +0.000 C 
BRANCH  18  19
ATOM     19  C   UNL     1       2.661   4.254  19.852  0.00  0.00    +0.000 A 
ATOM     20  C   UNL     1       2.232   4.013  21.147  0.00  0.00    +0.000 A 
ATOM     21  C   UNL     1       1.243   2.992  21.218  0.00  0.00    +0.000 A 
ATOM     22  C   UNL     1       0.956   2.469  19.979  0.00  0.00    +0.000 A 
ATOM     23  S   UNL     1       1.879   3.206  18.742  0.00  0.00    +0.000 S 
ENDBRANCH  18  19
BRANCH  18  24
ATOM     24  S   UNL     1       5.290   4.660  19.219  0.00  0.00    +0.000 S 
ATOM     25  O   UNL     1       6.291   5.592  19.700  0.00  0.00    +0.000 OA
ATOM     26  O   UNL     1       5.308   3.258  19.597  0.00  0.00    +0.000 OA
BRANCH  24  27
ATOM     27  C   UNL     1       5.532   4.617  17.440  0.00  0.00    +0.000 A 
ATOM     28  C   UNL     1       4.936   3.862  16.446  0.00  0.00    +0.000 A 
ATOM     29  C   UNL     1       5.425   4.188  15.147  0.00  0.00    +0.000 A 
ATOM     30  C   UNL     1       6.385   5.175  15.192  0.00  0.00    +0.000 A 
ATOM     31  S   UNL     1       6.701   5.689  16.793  0.00  0.00    +0.000 S 
ENDBRANCH  24  27
ENDBRANCH  18  24
ENDBRANCH  17  18
ENDBRANCH   3  17
TORSDOF 8
ENDMDL
MODEL 9
REMARK VINA RESULT:      -7.8      1.773      2.803
REMARK  Name = 
REMARK  8 active torsions:
REMARK  status: ('A' for Active; 'I' for Inactive)
REMARK    1  A    between atoms: C_2  and  C_12
REMARK    2  A    between atoms: N_3  and  C_4
REMARK    3  A    between atoms: C_4  and  C_5
REMARK    4  A    between atoms: N_14  and  C_15
REMARK    5  A    between atoms: C_15  and  C_16
REMARK    6  A    between atoms: C_16  and  C_17
REMARK    7  A    between atoms: C_16  and  S_22
REMARK    8  A    between atoms: S_22  and  C_25
REMARK                            x       y       z     vdW  Elec       q    Type
REMARK                         _______ _______ _______ _____ _____    ______ ____
ROOT
ATOM      1  C   UNL     1       2.109   8.496  18.278  0.00  0.00    +0.000 C 
ATOM      2  O   UNL     1       2.543   8.759  17.165  0.00  0.00    +0.000 OA
ATOM      3  N   UNL     1       2.461   7.401  19.037  0.00  0.00    +0.000 N 
ATOM      4  H   UNL     1       1.982   7.289  19.928  0.00  0.00    +0.000 HD
ENDROOT
BRANCH   1   6
ATOM      5  O   UNL     1       0.910   9.347  20.167  0.00  0.00    +0.000 OA
ATOM      6  C   UNL     1       1.104   9.442  18.965  0.00  0.00    +0.000 C 
ATOM      7  N   UNL     1       0.507  10.341  18.111  0.00  0.00    +0.000 N 
ATOM      8  H   UNL     1       0.627  10.176  17.116  0.00  0.00    +0.000 HD
BRANCH   7   9
ATOM      9  C   UNL     1      -0.521  11.247  18.576  0.00  0.00    +0.000 C 
BRANCH   9  10
ATOM     10  C   UNL     1       0.009  12.500  19.229  0.00  0.00    +0.000 A 
ATOM     11  C   UNL     1       0.844  13.392  18.526  0.00  0.00    +0.000 A 
ATOM     12  C   UNL     1       1.378  14.526  19.144  0.00  0.00    +0.000 A 
ATOM     13  C   UNL     1       1.104  14.785  20.486  0.00  0.00    +0.000 A 
ATOM     14  C   UNL     1       0.307  13.904  21.208  0.00  0.00    +0.000 A 
ATOM     15  C   UNL     1      -0.228  12.766  20.595  0.00  0.00    +0.000 A 
ATOM     16 CL   UNL     1      -1.159  11.699  21.584  0.00  0.00    +0.000 Cl
ENDBRANCH   9  10
ENDBRANCH   7   9
ENDBRANCH   1   6
BRANCH   3  17
ATOM     17  C   UNL     1       3.435   6.418  18.589  0.00  0.00    +0.000 C 
BRANCH  17  18
ATOM     18  C   UNL     1       3.789   5.363  19.646  0.00  0.00    +0.000 C 
BRANCH  18  19
ATOM     19  C   UNL     1       2.697   4.329  19.856  0.00  0.00    +0.000 A 
ATOM     20  C   UNL     1       2.269   3.823  21.072  0.00  0.00    +0.000 A 
ATOM     21  C   UNL     1       1.163   2.937  20.942  0.00  0.00    +0.000 A 
ATOM     22  C   UNL     1       0.786   2.776  19.629  0.00  0.00    +0.000 A 
ATOM     23  S   UNL     1       1.766   3.688  18.565  0.00  0.00    +0.000 S 
ENDBRANCH  18  19
BRANCH  18  24
ATOM     24  S   UNL     1       5.354   4.573  19.261  0.00  0.00    +0.000 S 
ATOM     25  O   UNL     1       6.469   5.369  19.736  0.00  0.00    +0.000 OA
ATOM     26  O   UNL     1       5.271   3.146  19.516  0.00  0.00    +0.000 OA
BRANCH  24  27
ATOM     27  C   UNL     1       5.461   4.672  17.471  0.00  0.00    +0.000 A 
ATOM     28  C   UNL     1       4.831   3.958  16.468  0.00  0.00    +0.000 A 
ATOM     29  C   UNL     1       5.201   4.404  15.166  0.00  0.00    +0.000 A 
ATOM     30  C   UNL     1       6.109   5.438  15.216  0.00  0.00    +0.000 A 
ATOM     31  S   UNL     1       6.519   5.853  16.824  0.00  0.00    +0.000 S 
ENDBRANCH  24  27
ENDBRANCH  18  24
ENDBRANCH  17  18
ENDBRANCH   3  17
TORSDOF 8
ENDMDL
