MODEL 1
REMARK VINA RESULT:      -5.8      0.000      0.000
REMARK  Name = 
REMARK  4 active torsions:
REMARK  status: ('A' for Active; 'I' for Inactive)
REMARK    1  A    between atoms: C_1  and  C_2
REMARK    2  A    between atoms: N_10  and  C_11
REMARK    3  A    between atoms: C_11  and  C_12
REMARK    4  A    between atoms: C_12  and  N_13
REMARK                            x       y       z     vdW  Elec       q    Type
REMARK                         _______ _______ _______ _____ _____    ______ ____
ROOT
ATOM      1  C   UNL     1       1.797   2.803  21.591  0.00  0.00    +0.000 C 
ATOM      2  C   UNL     1       1.492   3.574  20.311  0.00  0.00    +0.000 C 
ATOM      3  C   UNL     1       1.452   5.098  20.583  0.00  0.00    +0.000 C 
ATOM      4  C   UNL     1       2.286   5.627  19.465  0.00  0.00    +0.000 A 
ATOM      5  C   UNL     1       2.531   6.958  19.155  0.00  0.00    +0.000 A 
ATOM      6  C   UNL     1       3.344   7.236  18.060  0.00  0.00    +0.000 A 
ATOM      7  C   UNL     1       3.879   6.189  17.295  0.00  0.00    +0.000 A 
ATOM      8  C   UNL     1       3.630   4.852  17.633  0.00  0.00    +0.000 A 
ATOM      9  C   UNL     1       2.842   4.571  18.739  0.00  0.00    +0.000 A 
ATOM     10  N   UNL     1       2.547   3.328  19.304  0.00  0.00    +0.000 N 
ENDROOT
BRANCH  10  11
ATOM     11  C   UNL     1       2.513   2.098  18.508  0.00  0.00    +0.000 C 
BRANCH  11  12
ATOM     12  C   UNL     1       3.841   1.316  18.628  0.00  0.00    +0.000 C 
BRANCH  12  13
ATOM     13  N   UNL     1       4.744   1.861  19.648  0.00  0.00    +0.000 NA
ATOM     14  H   UNL     1       4.538   1.353  20.513  0.00  0.00    +0.000 HD
ATOM     15  H   UNL     1       4.507   2.835  19.827  0.00  0.00    +0.000 HD
ENDBRANCH  12  13
ENDBRANCH  11  12
ENDBRANCH  10  11
TORSDOF 3
ENDMDL
MODEL 2
REMARK VINA RESULT:      -5.7      2.487      4.371
REMARK  Name = 
REMARK  4 active torsions:
REMARK  status: ('A' for Active; 'I' for Inactive)
REMARK    1  A    between atoms: C_1  and  C_2
REMARK    2  A    between atoms: N_10  and  C_11
REMARK    3  A    between atoms: C_11  and  C_12
REMARK    4  A    between atoms: C_12  and  N_13
REMARK                            x       y       z     vdW  Elec       q    Type
REMARK                         _______ _______ _______ _____ _____    ______ ____
ROOT
ATOM      1  C   UNL     1       5.163   6.457  15.980  0.00  0.00    +0.000 C 
ATOM      2  C   UNL     1       4.943   6.237  17.473  0.00  0.00    +0.000 C 
ATOM      3  C   UNL     1       3.435   6.296  17.820  0.00  0.00    +0.000 C 
ATOM      4  C   UNL     1       3.275   5.088  18.680  0.00  0.00    +0.000 A 
ATOM      5  C   UNL     1       2.132   4.679  19.354  0.00  0.00    +0.000 A 
ATOM      6  C   UNL     1       2.199   3.511  20.108  0.00  0.00    +0.000 A 
ATOM      7  C   UNL     1       3.398   2.789  20.185  0.00  0.00    +0.000 A 
ATOM      8  C   UNL     1       4.537   3.212  19.487  0.00  0.00    +0.000 A 
ATOM      9  C   UNL     1       4.467   4.360  18.714  0.00  0.00    +0.000 A 
ATOM     10  N   UNL     1       5.441   4.903  17.872  0.00  0.00    +0.000 N 
ENDROOT
BRANCH  10  11
ATOM     11  C   UNL     1       6.874   4.708  18.108  0.00  0.00    +0.000 C 
BRANCH  11  12
ATOM     12  C   UNL     1       7.464   5.856  18.957  0.00  0.00    +0.000 C 
BRANCH  12  13
ATOM     13  N   UNL     1       7.882   5.428  20.298  0.00  0.00    +0.000 NA
ATOM     14  H   UNL     1       7.077   5.582  20.911  0.00  0.00    +0.000 HD
ATOM     15  H   UNL     1       8.619   6.043  20.637  0.00  0.00    +0.000 HD
ENDBRANCH  12  13
ENDBRANCH  11  12
ENDBRANCH  10  11
TORSDOF 3
ENDMDL
MODEL 3
REMARK VINA RESULT:      -5.7      1.576      3.671
REMARK  Name = 
REMARK  4 active torsions:
REMARK  status: ('A' for Active; 'I' for Inactive)
REMARK    1  A    between atoms: C_1  and  C_2
REMARK    2  A    between atoms: N_10  and  C_11
REMARK    3  A    between atoms: C_11  and  C_12
REMARK    4  A    between atoms: C_12  and  N_13
REMARK                            x       y       z     vdW  Elec       q    Type
REMARK                         _______ _______ _______ _____ _____    ______ ____
ROOT
ATOM      1  C   UNL     1       3.503   7.666  17.876  0.00  0.00    +0.000 C 
ATOM      2  C   UNL     1       3.619   6.339  18.619  0.00  0.00    +0.000 C 
ATOM      3  C   UNL     1       2.522   6.221  19.706  0.00  0.00    +0.000 C 
ATOM      4  C   UNL     1       2.003   4.844  19.462  0.00  0.00    +0.000 A 
ATOM      5  C   UNL     1       1.050   4.161  20.205  0.00  0.00    +0.000 A 
ATOM      6  C   UNL     1       0.704   2.874  19.801  0.00  0.00    +0.000 A 
ATOM      7  C   UNL     1       1.323   2.295  18.684  0.00  0.00    +0.000 A 
ATOM      8  C   UNL     1       2.273   3.008  17.940  0.00  0.00    +0.000 A 
ATOM      9  C   UNL     1       2.600   4.299  18.323  0.00  0.00    +0.000 A 
ATOM     10  N   UNL     1       3.440   5.212  17.679  0.00  0.00    +0.000 N 
ENDROOT
BRANCH  10  11
ATOM     11  C   UNL     1       4.564   4.782  16.843  0.00  0.00    +0.000 C 
BRANCH  11  12
ATOM     12  C   UNL     1       5.907   4.920  17.595  0.00  0.00    +0.000 C 
BRANCH  12  13
ATOM     13  N   UNL     1       6.121   3.868  18.597  0.00  0.00    +0.000 NA
ATOM     14  H   UNL     1       7.089   3.556  18.482  0.00  0.00    +0.000 HD
ATOM     15  H   UNL     1       5.535   3.064  18.376  0.00  0.00    +0.000 HD
ENDBRANCH  12  13
ENDBRANCH  11  12
ENDBRANCH  10  11
TORSDOF 3
ENDMDL
MODEL 4
REMARK VINA RESULT:      -5.7      1.131      1.866
REMARK  Name = 
REMARK  4 active torsions:
REMARK  status: ('A' for Active; 'I' for Inactive)
REMARK    1  A    between atoms: C_1  and  C_2
REMARK    2  A    between atoms: N_10  and  C_11
REMARK    3  A    between atoms: C_11  and  C_12
REMARK    4  A    between atoms: C_12  and  N_13
REMARK                            x       y       z     vdW  Elec       q    Type
REMARK                         _______ _______ _______ _____ _____    ______ ____
ROOT
ATOM      1  C   UNL     1       2.292   4.548  20.766  0.00  0.00    +0.000 C 
ATOM      2  C   UNL     1       2.243   4.814  19.266  0.00  0.00    +0.000 C 
ATOM      3  C   UNL     1       2.738   6.246  18.945  0.00  0.00    +0.000 C 
ATOM      4  C   UNL     1       3.676   5.995  17.813  0.00  0.00    +0.000 A 
ATOM      5  C   UNL     1       4.359   6.941  17.060  0.00  0.00    +0.000 A 
ATOM      6  C   UNL     1       5.192   6.489  16.042  0.00  0.00    +0.000 A 
ATOM      7  C   UNL     1       5.315   5.116  15.787  0.00  0.00    +0.000 A 
ATOM      8  C   UNL     1       4.627   4.177  16.568  0.00  0.00    +0.000 A 
ATOM      9  C   UNL     1       3.817   4.622  17.600  0.00  0.00    +0.000 A 
ATOM     10  N   UNL     1       3.123   3.866  18.550  0.00  0.00    +0.000 N 
ENDROOT
BRANCH  10  11
ATOM     11  C   UNL     1       2.649   2.508  18.271  0.00  0.00    +0.000 C 
BRANCH  11  12
ATOM     12  C   UNL     1       3.642   1.448  18.796  0.00  0.00    +0.000 C 
BRANCH  12  13
ATOM     13  N   UNL     1       4.756   2.025  19.558  0.00  0.00    +0.000 NA
ATOM     14  H   UNL     1       5.597   1.523  19.259  0.00  0.00    +0.000 HD
ATOM     15  H   UNL     1       4.637   1.816  20.547  0.00  0.00    +0.000 HD
ENDBRANCH  12  13
ENDBRANCH  11  12
ENDBRANCH  10  11
TORSDOF 3
ENDMDL
MODEL 5
REMARK VINA RESULT:      -5.6      2.046      3.932
REMARK  Name = 
REMARK  4 active torsions:
REMARK  status: ('A' for Active; 'I' for Inactive)
REMARK    1  A    between atoms: C_1  and  C_2
REMARK    2  A    between atoms: N_10  and  C_11
REMARK    3  A    between atoms: C_11  and  C_12
REMARK    4  A    between atoms: C_12  and  N_13
REMARK                            x       y       z     vdW  Elec       q    Type
REMARK                         _______ _______ _______ _____ _____    ______ ____
ROOT
ATOM      1  C   UNL     1       4.226   7.141  17.245  0.00  0.00    +0.000 C 
ATOM      2  C   UNL     1       4.198   5.889  18.115  0.00  0.00    +0.000 C 
ATOM      3  C   UNL     1       3.135   6.021  19.233  0.00  0.00    +0.000 C 
ATOM      4  C   UNL     1       2.436   4.707  19.142  0.00  0.00    +0.000 A 
ATOM      5  C   UNL     1       1.430   4.229  19.971  0.00  0.00    +0.000 A 
ATOM      6  C   UNL     1       0.909   2.966  19.707  0.00  0.00    +0.000 A 
ATOM      7  C   UNL     1       1.409   2.205  18.640  0.00  0.00    +0.000 A 
ATOM      8  C   UNL     1       2.415   2.712  17.807  0.00  0.00    +0.000 A 
ATOM      9  C   UNL     1       2.918   3.981  18.050  0.00  0.00    +0.000 A 
ATOM     10  N   UNL     1       3.844   4.709  17.299  0.00  0.00    +0.000 N 
ENDROOT
BRANCH  10  11
ATOM     11  C   UNL     1       4.874   4.057  16.485  0.00  0.00    +0.000 C 
BRANCH  11  12
ATOM     12  C   UNL     1       6.288   4.329  17.046  0.00  0.00    +0.000 C 
BRANCH  12  13
ATOM     13  N   UNL     1       7.240   4.774  16.021  0.00  0.00    +0.000 NA
ATOM     14  H   UNL     1       7.708   3.929  15.680  0.00  0.00    +0.000 HD
ATOM     15  H   UNL     1       7.964   5.345  16.455  0.00  0.00    +0.000 HD
ENDBRANCH  12  13
ENDBRANCH  11  12
ENDBRANCH  10  11
TORSDOF 3
ENDMDL
MODEL 6
REMARK VINA RESULT:      -5.6      2.526      3.612
REMARK  Name = 
REMARK  4 active torsions:
REMARK  status: ('A' for Active; 'I' for Inactive)
REMARK    1  A    between atoms: C_1  and  C_2
REMARK    2  A    between atoms: N_10  and  C_11
REMARK    3  A    between atoms: C_11  and  C_12
REMARK    4  A    between atoms: C_12  and  N_13
REMARK                            x       y       z     vdW  Elec       q    Type
REMARK                         _______ _______ _______ _____ _____    ______ ____
ROOT
ATOM      1  C   UNL     1       2.181   5.522  18.078  0.00  0.00    +0.000 C 
ATOM      2  C   UNL     1       3.590   5.178  17.608  0.00  0.00    +0.000 C 
ATOM      3  C   UNL     1       4.266   6.407  16.951  0.00  0.00    +0.000 C 
ATOM      4  C   UNL     1       5.607   6.400  17.604  0.00  0.00    +0.000 A 
ATOM      5  C   UNL     1       6.678   7.241  17.334  0.00  0.00    +0.000 A 
ATOM      6  C   UNL     1       7.849   7.064  18.066  0.00  0.00    +0.000 A 
ATOM      7  C   UNL     1       7.931   6.051  19.032  0.00  0.00    +0.000 A 
ATOM      8  C   UNL     1       6.833   5.222  19.298  0.00  0.00    +0.000 A 
ATOM      9  C   UNL     1       5.656   5.413  18.590  0.00  0.00    +0.000 A 
ATOM     10  N   UNL     1       4.426   4.771  18.758  0.00  0.00    +0.000 N 
ENDROOT
BRANCH  10  11
ATOM     11  C   UNL     1       4.323   3.405  19.279  0.00  0.00    +0.000 C 
BRANCH  11  12
ATOM     12  C   UNL     1       3.841   2.423  18.188  0.00  0.00    +0.000 C 
BRANCH  12  13
ATOM     13  N   UNL     1       4.159   1.022  18.488  0.00  0.00    +0.000 NA
ATOM     14  H   UNL     1       4.746   0.690  17.717  0.00  0.00    +0.000 HD
ATOM     15  H   UNL     1       3.307   0.465  18.458  0.00  0.00    +0.000 HD
ENDBRANCH  12  13
ENDBRANCH  11  12
ENDBRANCH  10  11
TORSDOF 3
ENDMDL
MODEL 7
REMARK VINA RESULT:      -5.6      1.570      3.638
REMARK  Name = 
REMARK  4 active torsions:
REMARK  status: ('A' for Active; 'I' for Inactive)
REMARK    1  A    between atoms: C_1  and  C_2
REMARK    2  A    between atoms: N_10  and  C_11
REMARK    3  A    between atoms: C_11  and  C_12
REMARK    4  A    between atoms: C_12  and  N_13
REMARK                            x       y       z     vdW  Elec       q    Type
REMARK                         _______ _______ _______ _____ _____    ______ ____
ROOT
ATOM      1  C   UNL     1       2.292   7.779  19.235  0.00  0.00    +0.000 C 
ATOM      2  C   UNL     1       2.755   6.377  19.614  0.00  0.00    +0.000 C 
ATOM      3  C   UNL     1       1.610   5.584  20.292  0.00  0.00    +0.000 C 
ATOM      4  C   UNL     1       1.676   4.281  19.570  0.00  0.00    +0.000 A 
ATOM      5  C   UNL     1       0.926   3.140  19.823  0.00  0.00    +0.000 A 
ATOM      6  C   UNL     1       1.146   2.022  19.024  0.00  0.00    +0.000 A 
ATOM      7  C   UNL     1       2.113   2.059  18.009  0.00  0.00    +0.000 A 
ATOM      8  C   UNL     1       2.850   3.225  17.762  0.00  0.00    +0.000 A 
ATOM      9  C   UNL     1       2.615   4.349  18.538  0.00  0.00    +0.000 A 
ATOM     10  N   UNL     1       3.161   5.629  18.405  0.00  0.00    +0.000 N 
ENDROOT
BRANCH  10  11
ATOM     11  C   UNL     1       4.489   5.854  17.828  0.00  0.00    +0.000 C 
BRANCH  11  12
ATOM     12  C   UNL     1       5.607   5.435  18.809  0.00  0.00    +0.000 C 
BRANCH  12  13
ATOM     13  N   UNL     1       6.280   4.190  18.422  0.00  0.00    +0.000 NA
ATOM     14  H   UNL     1       5.811   3.439  18.937  0.00  0.00    +0.000 HD
ATOM     15  H   UNL     1       7.242   4.205  18.756  0.00  0.00    +0.000 HD
ENDBRANCH  12  13
ENDBRANCH  11  12
ENDBRANCH  10  11
TORSDOF 3
ENDMDL
MODEL 8
REMARK VINA RESULT:      -5.6      2.106      4.073
REMARK  Name = 
REMARK  4 active torsions:
REMARK  status: ('A' for Active; 'I' for Inactive)
REMARK    1  A    between atoms: C_1  and  C_2
REMARK    2  A    between atoms: N_10  and  C_11
REMARK    3  A    between atoms: C_11  and  C_12
REMARK    4  A    between atoms: C_12  and  N_13
REMARK                            x       y       z     vdW  Elec       q    Type
REMARK                         _______ _______ _______ _____ _____    ______ ____
ROOT
ATOM      1  C   UNL     1       4.484   7.069  17.032  0.00  0.00    +0.000 C 
ATOM      2  C   UNL     1       3.976   6.209  18.184  0.00  0.00    +0.000 C 
ATOM      3  C   UNL     1       2.460   5.932  18.036  0.00  0.00    +0.000 C 
ATOM      4  C   UNL     1       2.395   4.463  18.287  0.00  0.00    +0.000 A 
ATOM      5  C   UNL     1       1.257   3.672  18.364  0.00  0.00    +0.000 A 
ATOM      6  C   UNL     1       1.420   2.312  18.607  0.00  0.00    +0.000 A 
ATOM      7  C   UNL     1       2.704   1.776  18.782  0.00  0.00    +0.000 A 
ATOM      8  C   UNL     1       3.841   2.590  18.687  0.00  0.00    +0.000 A 
ATOM      9  C   UNL     1       3.683   3.941  18.418  0.00  0.00    +0.000 A 
ATOM     10  N   UNL     1       4.670   4.904  18.191  0.00  0.00    +0.000 N 
ENDROOT
BRANCH  10  11
ATOM     11  C   UNL     1       6.010   4.801  18.775  0.00  0.00    +0.000 C 
BRANCH  11  12
ATOM     12  C   UNL     1       7.096   4.724  17.678  0.00  0.00    +0.000 C 
BRANCH  12  13
ATOM     13  N   UNL     1       6.670   3.967  16.494  0.00  0.00    +0.000 NA
ATOM     14  H   UNL     1       5.755   3.570  16.723  0.00  0.00    +0.000 HD
ATOM     15  H   UNL     1       7.297   3.177  16.352  0.00  0.00    +0.000 HD
ENDBRANCH  12  13
ENDBRANCH  11  12
ENDBRANCH  10  11
TORSDOF 3
ENDMDL
MODEL 9
REMARK VINA RESULT:      -5.6      2.574      4.397
REMARK  Name = 
REMARK  4 active torsions:
REMARK  status: ('A' for Active; 'I' for Inactive)
REMARK    1  A    between atoms: C_1  and  C_2
REMARK    2  A    between atoms: N_10  and  C_11
REMARK    3  A    between atoms: C_11  and  C_12
REMARK    4  A    between atoms: C_12  and  N_13
REMARK                            x       y       z     vdW  Elec       q    Type
REMARK                         _______ _______ _______ _____ _____    ______ ____
ROOT
ATOM      1  C   UNL     1       4.732   7.205  16.390  0.00  0.00    +0.000 C 
ATOM      2  C   UNL     1       4.516   6.198  17.514  0.00  0.00    +0.000 C 
ATOM      3  C   UNL     1       3.052   6.241  18.017  0.00  0.00    +0.000 C 
ATOM      4  C   UNL     1       2.704   4.792  18.061  0.00  0.00    +0.000 A 
ATOM      5  C   UNL     1       1.526   4.223  18.524  0.00  0.00    +0.000 A 
ATOM      6  C   UNL     1       1.404   2.837  18.474  0.00  0.00    +0.000 A 
ATOM      7  C   UNL     1       2.458   2.054  17.983  0.00  0.00    +0.000 A 
ATOM      8  C   UNL     1       3.634   2.649  17.508  0.00  0.00    +0.000 A 
ATOM      9  C   UNL     1       3.748   4.030  17.531  0.00  0.00    +0.000 A 
ATOM     10  N   UNL     1       4.780   4.827  17.027  0.00  0.00    +0.000 N 
ENDROOT
BRANCH  10  11
ATOM     11  C   UNL     1       6.162   4.346  16.933  0.00  0.00    +0.000 C 
BRANCH  11  12
ATOM     12  C   UNL     1       6.605   4.198  15.460  0.00  0.00    +0.000 C 
BRANCH  12  13
ATOM     13  N   UNL     1       7.508   5.267  15.017  0.00  0.00    +0.000 NA
ATOM     14  H   UNL     1       7.019   6.148  15.200  0.00  0.00    +0.000 HD
ATOM     15  H   UNL     1       7.629   5.213  14.008  0.00  0.00    +0.000 HD
ENDBRANCH  12  13
ENDBRANCH  11  12
ENDBRANCH  10  11
TORSDOF 3
ENDMDL
