MODEL 1
REMARK VINA RESULT:      -7.9      0.000      0.000
REMARK  Name = 
REMARK  8 active torsions:
REMARK  status: ('A' for Active; 'I' for Inactive)
REMARK    1  A    between atoms: C_1  and  S_2
REMARK    2  A    between atoms: S_2  and  C_3
REMARK    3  A    between atoms: C_6  and  C_7
REMARK    4  A    between atoms: C_8  and  C_9
REMARK    5  A    between atoms: C_23  and  N_24
REMARK    6  A    between atoms: N_27  and  C_28
REMARK    7  A    between atoms: C_28  and  C_29
REMARK    8  A    between atoms: C_29  and  O_30
REMARK                            x       y       z     vdW  Elec       q    Type
REMARK                         _______ _______ _______ _____ _____    ______ ____
ROOT
ATOM      1  C   UNL     1       0.887   8.901  21.344  0.00  0.00    +0.000 A 
ATOM      2  C   UNL     1      -0.139   8.507  22.192  0.00  0.00    +0.000 A 
ATOM      3  C   UNL     1      -0.920   9.468  22.872  0.00  0.00    +0.000 A 
ATOM      4  C   UNL     1      -0.756  10.845  22.714  0.00  0.00    +0.000 A 
ATOM      5  N   UNL     1      -1.542  11.667  23.442  0.00  0.00    +0.000 NA
ATOM      6  C   UNL     1      -1.489  12.987  23.120  0.00  0.00    +0.000 A 
ATOM      7  C   UNL     1      -0.678  13.457  22.098  0.00  0.00    +0.000 A 
ATOM      8  O   UNL     1      -0.930  14.785  21.886  0.00  0.00    +0.000 OA
ATOM      9  C   UNL     1      -1.863  15.176  22.790  0.00  0.00    +0.000 A 
ATOM     10  C   UNL     1      -2.427  16.452  22.852  0.00  0.00    +0.000 A 
ATOM     11  C   UNL     1      -3.283  16.715  23.928  0.00  0.00    +0.000 A 
ATOM     12  C   UNL     1      -3.541  15.729  24.882  0.00  0.00    +0.000 A 
ATOM     13  C   UNL     1      -3.016  14.427  24.748  0.00  0.00    +0.000 A 
ATOM     14  C   UNL     1      -2.171  14.132  23.654  0.00  0.00    +0.000 A 
ATOM     15  C   UNL     1       0.261  12.662  21.409  0.00  0.00    +0.000 A 
ATOM     16  C   UNL     1       0.201  11.271  21.756  0.00  0.00    +0.000 A 
ATOM     17  C   UNL     1       1.005  10.275  21.118  0.00  0.00    +0.000 A 
ENDROOT
BRANCH  15  18
ATOM     18  N   UNL     1       1.114  13.173  20.436  0.00  0.00    +0.000 N 
ATOM     19  C   UNL     1       0.619  13.487  19.091  0.00  0.00    +0.000 C 
ATOM     20  C   UNL     1       0.892  14.964  18.738  0.00  0.00    +0.000 C 
ATOM     21  N   UNL     1       2.314  15.380  18.852  0.00  0.00    +0.000 NA
ATOM     22  C   UNL     1       2.759  15.067  20.235  0.00  0.00    +0.000 C 
ATOM     23  C   UNL     1       2.477  13.632  20.744  0.00  0.00    +0.000 C 
BRANCH  21  24
ATOM     24  C   UNL     1       3.199  14.724  17.860  0.00  0.00    +0.000 C 
BRANCH  24  25
ATOM     25  C   UNL     1       4.672  15.155  17.980  0.00  0.00    +0.000 C 
BRANCH  25  26
ATOM     26  O   UNL     1       5.537  14.091  17.595  0.00  0.00    +0.000 OA
ATOM     27  H   UNL     1       6.082  14.452  16.869  0.00  0.00    +0.000 HD
ENDBRANCH  25  26
ENDBRANCH  24  25
ENDBRANCH  21  24
ENDBRANCH  15  18
BRANCH   1  29
ATOM     28  C   UNL     1       2.050   8.016  19.301  0.00  0.00    +0.000 C 
ATOM     29  C   UNL     1       1.724   7.919  20.608  0.00  0.00    +0.000 C 
BRANCH  28  33
ATOM     30  C   UNL     1       4.338   5.262  16.839  0.00  0.00    +0.000 A 
ATOM     31  C   UNL     1       4.572   6.640  16.827  0.00  0.00    +0.000 A 
ATOM     32  C   UNL     1       3.820   7.511  17.632  0.00  0.00    +0.000 A 
ATOM     33  C   UNL     1       2.798   7.036  18.468  0.00  0.00    +0.000 A 
ATOM     34  C   UNL     1       2.583   5.648  18.483  0.00  0.00    +0.000 A 
ATOM     35  C   UNL     1       3.335   4.776  17.677  0.00  0.00    +0.000 A 
BRANCH  30  37
ATOM     36  C   UNL     1       7.010   4.512  16.272  0.00  0.00    +0.000 C 
ATOM     37  S   UNL     1       5.304   4.259  15.712  0.00  0.00    +0.000 S 
ENDBRANCH  30  37
ENDBRANCH  28  33
ENDBRANCH   1  29
TORSDOF 7
ENDMDL
MODEL 2
REMARK VINA RESULT:      -7.8      3.345      4.031
REMARK  Name = 
REMARK  8 active torsions:
REMARK  status: ('A' for Active; 'I' for Inactive)
REMARK    1  A    between atoms: C_1  and  S_2
REMARK    2  A    between atoms: S_2  and  C_3
REMARK    3  A    between atoms: C_6  and  C_7
REMARK    4  A    between atoms: C_8  and  C_9
REMARK    5  A    between atoms: C_23  and  N_24
REMARK    6  A    between atoms: N_27  and  C_28
REMARK    7  A    between atoms: C_28  and  C_29
REMARK    8  A    between atoms: C_29  and  O_30
REMARK                            x       y       z     vdW  Elec       q    Type
REMARK                         _______ _______ _______ _____ _____    ______ ____
ROOT
ATOM      1  C   UNL     1       0.415   9.192  21.412  0.00  0.00    +0.000 A 
ATOM      2  C   UNL     1       0.357   9.367  22.788  0.00  0.00    +0.000 A 
ATOM      3  C   UNL     1      -0.427  10.400  23.350  0.00  0.00    +0.000 A 
ATOM      4  C   UNL     1      -1.214  11.268  22.593  0.00  0.00    +0.000 A 
ATOM      5  N   UNL     1      -1.897  12.237  23.241  0.00  0.00    +0.000 NA
ATOM      6  C   UNL     1      -2.798  12.934  22.499  0.00  0.00    +0.000 A 
ATOM      7  C   UNL     1      -3.006  12.658  21.156  0.00  0.00    +0.000 A 
ATOM      8  O   UNL     1      -4.064  13.394  20.696  0.00  0.00    +0.000 OA
ATOM      9  C   UNL     1      -4.505  14.165  21.720  0.00  0.00    +0.000 A 
ATOM     10  C   UNL     1      -5.614  15.013  21.659  0.00  0.00    +0.000 A 
ATOM     11  C   UNL     1      -5.849  15.829  22.773  0.00  0.00    +0.000 A 
ATOM     12  C   UNL     1      -4.997  15.779  23.877  0.00  0.00    +0.000 A 
ATOM     13  C   UNL     1      -3.931  14.858  23.937  0.00  0.00    +0.000 A 
ATOM     14  C   UNL     1      -3.692  14.005  22.835  0.00  0.00    +0.000 A 
ATOM     15  C   UNL     1      -2.222  11.757  20.406  0.00  0.00    +0.000 A 
ATOM     16  C   UNL     1      -1.272  11.028  21.195  0.00  0.00    +0.000 A 
ATOM     17  C   UNL     1      -0.434  10.004  20.653  0.00  0.00    +0.000 A 
ENDROOT
BRANCH  15  18
ATOM     18  N   UNL     1      -2.406  11.550  19.043  0.00  0.00    +0.000 N 
ATOM     19  C   UNL     1      -1.274  11.614  18.112  0.00  0.00    +0.000 C 
ATOM     20  C   UNL     1      -1.143  10.299  17.317  0.00  0.00    +0.000 C 
ATOM     21  N   UNL     1      -2.366   9.889  16.581  0.00  0.00    +0.000 NA
ATOM     22  C   UNL     1      -3.474   9.812  17.568  0.00  0.00    +0.000 C 
ATOM     23  C   UNL     1      -3.670  11.044  18.485  0.00  0.00    +0.000 C 
BRANCH  21  24
ATOM     24  C   UNL     1      -2.720  10.809  15.474  0.00  0.00    +0.000 C 
BRANCH  24  25
ATOM     25  C   UNL     1      -3.566  10.141  14.375  0.00  0.00    +0.000 C 
BRANCH  25  26
ATOM     26  O   UNL     1      -2.870  10.154  13.132  0.00  0.00    +0.000 OA
ATOM     27  H   UNL     1      -2.409  11.015  13.104  0.00  0.00    +0.000 HD
ENDBRANCH  25  26
ENDBRANCH  24  25
ENDBRANCH  21  24
ENDBRANCH  15  18
BRANCH   1  29
ATOM     28  C   UNL     1       1.814   8.203  19.575  0.00  0.00    +0.000 C 
ATOM     29  C   UNL     1       1.221   8.114  20.786  0.00  0.00    +0.000 C 
BRANCH  28  33
ATOM     30  C   UNL     1       4.064   5.219  17.358  0.00  0.00    +0.000 A 
ATOM     31  C   UNL     1       4.152   6.584  17.068  0.00  0.00    +0.000 A 
ATOM     32  C   UNL     1       3.415   7.530  17.799  0.00  0.00    +0.000 A 
ATOM     33  C   UNL     1       2.555   7.144  18.837  0.00  0.00    +0.000 A 
ATOM     34  C   UNL     1       2.487   5.772  19.130  0.00  0.00    +0.000 A 
ATOM     35  C   UNL     1       3.223   4.824  18.398  0.00  0.00    +0.000 A 
BRANCH  30  37
ATOM     36  C   UNL     1       6.035   5.205  15.324  0.00  0.00    +0.000 C 
ATOM     37  S   UNL     1       4.986   4.099  16.308  0.00  0.00    +0.000 S 
ENDBRANCH  30  37
ENDBRANCH  28  33
ENDBRANCH   1  29
TORSDOF 7
ENDMDL
MODEL 3
REMARK VINA RESULT:      -7.8      3.481      4.284
REMARK  Name = 
REMARK  8 active torsions:
REMARK  status: ('A' for Active; 'I' for Inactive)
REMARK    1  A    between atoms: C_1  and  S_2
REMARK    2  A    between atoms: S_2  and  C_3
REMARK    3  A    between atoms: C_6  and  C_7
REMARK    4  A    between atoms: C_8  and  C_9
REMARK    5  A    between atoms: C_23  and  N_24
REMARK    6  A    between atoms: N_27  and  C_28
REMARK    7  A    between atoms: C_28  and  C_29
REMARK    8  A    between atoms: C_29  and  O_30
REMARK                            x       y       z     vdW  Elec       q    Type
REMARK                         _______ _______ _______ _____ _____    ______ ____
ROOT
ATOM      1  C   UNL     1       0.060   9.545  21.509  0.00  0.00    +0.000 A 
ATOM      2  C   UNL     1      -0.027   9.813  22.868  0.00  0.00    +0.000 A 
ATOM      3  C   UNL     1      -0.791  10.905  23.340  0.00  0.00    +0.000 A 
ATOM      4  C   UNL     1      -1.531  11.744  22.505  0.00  0.00    +0.000 A 
ATOM      5  N   UNL     1      -2.198  12.774  23.069  0.00  0.00    +0.000 NA
ATOM      6  C   UNL     1      -3.057  13.447  22.258  0.00  0.00    +0.000 A 
ATOM      7  C   UNL     1      -3.241  13.088  20.931  0.00  0.00    +0.000 A 
ATOM      8  O   UNL     1      -4.263  13.822  20.395  0.00  0.00    +0.000 OA
ATOM      9  C   UNL     1      -4.705  14.674  21.353  0.00  0.00    +0.000 A 
ATOM     10  C   UNL     1      -5.784  15.548  21.207  0.00  0.00    +0.000 A 
ATOM     11  C   UNL     1      -6.021  16.444  22.257  0.00  0.00    +0.000 A 
ATOM     12  C   UNL     1      -5.199  16.443  23.385  0.00  0.00    +0.000 A 
ATOM     13  C   UNL     1      -4.165  15.496  23.534  0.00  0.00    +0.000 A 
ATOM     14  C   UNL     1      -3.925  14.564  22.498  0.00  0.00    +0.000 A 
ATOM     15  C   UNL     1      -2.468  12.115  20.264  0.00  0.00    +0.000 A 
ATOM     16  C   UNL     1      -1.561  11.412  21.125  0.00  0.00    +0.000 A 
ATOM     17  C   UNL     1      -0.743  10.329  20.675  0.00  0.00    +0.000 A 
ENDROOT
BRANCH  15  18
ATOM     18  N   UNL     1      -2.624  11.823  18.913  0.00  0.00    +0.000 N 
ATOM     19  C   UNL     1      -1.474  11.832  18.003  0.00  0.00    +0.000 C 
ATOM     20  C   UNL     1      -1.324  10.470  17.295  0.00  0.00    +0.000 C 
ATOM     21  N   UNL     1      -2.531  10.012  16.562  0.00  0.00    +0.000 NA
ATOM     22  C   UNL     1      -3.659   9.993  17.529  0.00  0.00    +0.000 C 
ATOM     23  C   UNL     1      -3.876  11.279  18.364  0.00  0.00    +0.000 C 
BRANCH  21  24
ATOM     24  C   UNL     1      -2.865  10.860  15.392  0.00  0.00    +0.000 C 
BRANCH  24  25
ATOM     25  C   UNL     1      -3.511  10.075  14.236  0.00  0.00    +0.000 C 
BRANCH  25  26
ATOM     26  O   UNL     1      -2.576   9.880  13.180  0.00  0.00    +0.000 OA
ATOM     27  H   UNL     1      -2.943  10.366  12.417  0.00  0.00    +0.000 HD
ENDBRANCH  25  26
ENDBRANCH  24  25
ENDBRANCH  21  24
ENDBRANCH  15  18
BRANCH   1  29
ATOM     28  C   UNL     1       1.601   8.446  19.858  0.00  0.00    +0.000 C 
ATOM     29  C   UNL     1       0.847   8.404  20.978  0.00  0.00    +0.000 C 
BRANCH  28  33
ATOM     30  C   UNL     1       3.676   5.088  18.041  0.00  0.00    +0.000 A 
ATOM     31  C   UNL     1       2.893   4.945  19.191  0.00  0.00    +0.000 A 
ATOM     32  C   UNL     1       2.232   6.045  19.760  0.00  0.00    +0.000 A 
ATOM     33  C   UNL     1       2.340   7.330  19.207  0.00  0.00    +0.000 A 
ATOM     34  C   UNL     1       3.115   7.458  18.043  0.00  0.00    +0.000 A 
ATOM     35  C   UNL     1       3.778   6.358  17.473  0.00  0.00    +0.000 A 
BRANCH  30  37
ATOM     36  C   UNL     1       3.521   2.260  18.064  0.00  0.00    +0.000 C 
ATOM     37  S   UNL     1       4.536   3.632  17.451  0.00  0.00    +0.000 S 
ENDBRANCH  30  37
ENDBRANCH  28  33
ENDBRANCH   1  29
TORSDOF 7
ENDMDL
MODEL 4
REMARK VINA RESULT:      -7.5      3.750      4.351
REMARK  Name = 
REMARK  8 active torsions:
REMARK  status: ('A' for Active; 'I' for Inactive)
REMARK    1  A    between atoms: C_1  and  S_2
REMARK    2  A    between atoms: S_2  and  C_3
REMARK    3  A    between atoms: C_6  and  C_7
REMARK    4  A    between atoms: C_8  and  C_9
REMARK    5  A    between atoms: C_23  and  N_24
REMARK    6  A    between atoms: N_27  and  C_28
REMARK    7  A    between atoms: C_28  and  C_29
REMARK    8  A    between atoms: C_29  and  O_30
REMARK                            x       y       z     vdW  Elec       q    Type
REMARK                         _______ _______ _______ _____ _____    ______ ____
ROOT
ATOM      1  C   UNL     1       1.128   8.880  20.611  0.00  0.00    +0.000 A 
ATOM      2  C   UNL     1       1.123   9.168  21.969  0.00  0.00    +0.000 A 
ATOM      3  C   UNL     1       0.277  10.173  22.488  0.00  0.00    +0.000 A 
ATOM      4  C   UNL     1      -0.624  10.900  21.709  0.00  0.00    +0.000 A 
ATOM      5  N   UNL     1      -1.360  11.858  22.314  0.00  0.00    +0.000 NA
ATOM      6  C   UNL     1      -2.357  12.406  21.570  0.00  0.00    +0.000 A 
ATOM      7  C   UNL     1      -2.606  11.998  20.268  0.00  0.00    +0.000 A 
ATOM      8  O   UNL     1      -3.748  12.595  19.811  0.00  0.00    +0.000 OA
ATOM      9  C   UNL     1      -4.208  13.411  20.792  0.00  0.00    +0.000 A 
ATOM     10  C   UNL     1      -5.391  14.150  20.726  0.00  0.00    +0.000 A 
ATOM     11  C   UNL     1      -5.645  15.036  21.781  0.00  0.00    +0.000 A 
ATOM     12  C   UNL     1      -4.737  15.157  22.835  0.00  0.00    +0.000 A 
ATOM     13  C   UNL     1      -3.589  14.341  22.908  0.00  0.00    +0.000 A 
ATOM     14  C   UNL     1      -3.328  13.420  21.868  0.00  0.00    +0.000 A 
ATOM     15  C   UNL     1      -1.781  11.107  19.551  0.00  0.00    +0.000 A 
ATOM     16  C   UNL     1      -0.729  10.535  20.341  0.00  0.00    +0.000 A 
ATOM     17  C   UNL     1       0.172   9.545  19.837  0.00  0.00    +0.000 A 
ENDROOT
BRANCH  15  18
ATOM     18  N   UNL     1      -2.013  10.767  18.222  0.00  0.00    +0.000 N 
ATOM     19  C   UNL     1      -2.766   9.558  17.875  0.00  0.00    +0.000 C 
ATOM     20  C   UNL     1      -3.986   9.905  16.997  0.00  0.00    +0.000 C 
ATOM     21  N   UNL     1      -3.668  10.663  15.759  0.00  0.00    +0.000 NA
ATOM     22  C   UNL     1      -2.932  11.888  16.165  0.00  0.00    +0.000 C 
ATOM     23  C   UNL     1      -1.723  11.687  17.111  0.00  0.00    +0.000 C 
BRANCH  21  24
ATOM     24  C   UNL     1      -2.877   9.881  14.779  0.00  0.00    +0.000 C 
BRANCH  24  25
ATOM     25  C   UNL     1      -3.447   9.941  13.351  0.00  0.00    +0.000 C 
BRANCH  25  26
ATOM     26  O   UNL     1      -2.457   9.558  12.401  0.00  0.00    +0.000 OA
ATOM     27  H   UNL     1      -1.694  10.144  12.573  0.00  0.00    +0.000 HD
ENDBRANCH  25  26
ENDBRANCH  24  25
ENDBRANCH  21  24
ENDBRANCH  15  18
BRANCH   1  29
ATOM     28  C   UNL     1       2.387   7.778  18.736  0.00  0.00    +0.000 C 
ATOM     29  C   UNL     1       1.999   7.827  20.029  0.00  0.00    +0.000 C 
BRANCH  28  33
ATOM     30  C   UNL     1       4.795   4.771  16.727  0.00  0.00    +0.000 A 
ATOM     31  C   UNL     1       5.116   6.131  16.684  0.00  0.00    +0.000 A 
ATOM     32  C   UNL     1       4.322   7.085  17.342  0.00  0.00    +0.000 A 
ATOM     33  C   UNL     1       3.173   6.714  18.055  0.00  0.00    +0.000 A 
ATOM     34  C   UNL     1       2.870   5.343  18.104  0.00  0.00    +0.000 A 
ATOM     35  C   UNL     1       3.663   4.388  17.444  0.00  0.00    +0.000 A 
BRANCH  30  37
ATOM     36  C   UNL     1       5.617   4.218  14.073  0.00  0.00    +0.000 C 
ATOM     37  S   UNL     1       5.834   3.657  15.784  0.00  0.00    +0.000 S 
ENDBRANCH  30  37
ENDBRANCH  28  33
ENDBRANCH   1  29
TORSDOF 7
ENDMDL
MODEL 5
REMARK VINA RESULT:      -7.5      0.809      1.167
REMARK  Name = 
REMARK  8 active torsions:
REMARK  status: ('A' for Active; 'I' for Inactive)
REMARK    1  A    between atoms: C_1  and  S_2
REMARK    2  A    between atoms: S_2  and  C_3
REMARK    3  A    between atoms: C_6  and  C_7
REMARK    4  A    between atoms: C_8  and  C_9
REMARK    5  A    between atoms: C_23  and  N_24
REMARK    6  A    between atoms: N_27  and  C_28
REMARK    7  A    between atoms: C_28  and  C_29
REMARK    8  A    between atoms: C_29  and  O_30
REMARK                            x       y       z     vdW  Elec       q    Type
REMARK                         _______ _______ _______ _____ _____    ______ ____
ROOT
ATOM      1  C   UNL     1       0.720   9.535  21.601  0.00  0.00    +0.000 A 
ATOM      2  C   UNL     1      -0.286   9.124  22.464  0.00  0.00    +0.000 A 
ATOM      3  C   UNL     1      -1.136  10.069  23.080  0.00  0.00    +0.000 A 
ATOM      4  C   UNL     1      -1.063  11.442  22.841  0.00  0.00    +0.000 A 
ATOM      5  N   UNL     1      -1.910  12.251  23.513  0.00  0.00    +0.000 NA
ATOM      6  C   UNL     1      -1.942  13.550  23.113  0.00  0.00    +0.000 A 
ATOM      7  C   UNL     1      -1.154  14.012  22.069  0.00  0.00    +0.000 A 
ATOM      8  O   UNL     1      -1.493  15.305  21.776  0.00  0.00    +0.000 OA
ATOM      9  C   UNL     1      -2.459  15.685  22.649  0.00  0.00    +0.000 A 
ATOM     10  C   UNL     1      -3.108  16.921  22.631  0.00  0.00    +0.000 A 
ATOM     11  C   UNL     1      -3.991  17.190  23.684  0.00  0.00    +0.000 A 
ATOM     12  C   UNL     1      -4.192  16.247  24.694  0.00  0.00    +0.000 A 
ATOM     13  C   UNL     1      -3.579  14.978  24.641  0.00  0.00    +0.000 A 
ATOM     14  C   UNL     1      -2.705  14.676  23.572  0.00  0.00    +0.000 A 
ATOM     15  C   UNL     1      -0.157  13.242  21.434  0.00  0.00    +0.000 A 
ATOM     16  C   UNL     1      -0.127  11.874  21.865  0.00  0.00    +0.000 A 
ATOM     17  C   UNL     1       0.748  10.898  21.292  0.00  0.00    +0.000 A 
ENDROOT
BRANCH  15  18
ATOM     18  N   UNL     1       0.669  13.751  20.438  0.00  0.00    +0.000 N 
ATOM     19  C   UNL     1       1.921  14.436  20.774  0.00  0.00    +0.000 C 
ATOM     20  C   UNL     1       3.122  13.754  20.086  0.00  0.00    +0.000 C 
ATOM     21  N   UNL     1       3.006  13.630  18.610  0.00  0.00    +0.000 NA
ATOM     22  C   UNL     1       1.740  12.908  18.322  0.00  0.00    +0.000 C 
ATOM     23  C   UNL     1       0.463  13.447  19.013  0.00  0.00    +0.000 C 
BRANCH  21  24
ATOM     24  C   UNL     1       3.031  14.935  17.908  0.00  0.00    +0.000 C 
BRANCH  24  25
ATOM     25  C   UNL     1       4.439  15.549  17.814  0.00  0.00    +0.000 C 
BRANCH  25  26
ATOM     26  O   UNL     1       5.406  14.542  17.532  0.00  0.00    +0.000 OA
ATOM     27  H   UNL     1       5.802  14.316  18.396  0.00  0.00    +0.000 HD
ENDBRANCH  25  26
ENDBRANCH  24  25
ENDBRANCH  21  24
ENDBRANCH  15  18
BRANCH   1  29
ATOM     28  C   UNL     1       1.628   8.309  19.605  0.00  0.00    +0.000 C 
ATOM     29  C   UNL     1       1.629   8.570  20.930  0.00  0.00    +0.000 C 
BRANCH  28  33
ATOM     30  C   UNL     1       4.062   5.462  17.403  0.00  0.00    +0.000 A 
ATOM     31  C   UNL     1       4.107   6.835  17.144  0.00  0.00    +0.000 A 
ATOM     32  C   UNL     1       3.311   7.736  17.869  0.00  0.00    +0.000 A 
ATOM     33  C   UNL     1       2.432   7.295  18.870  0.00  0.00    +0.000 A 
ATOM     34  C   UNL     1       2.408   5.916  19.132  0.00  0.00    +0.000 A 
ATOM     35  C   UNL     1       3.203   5.013  18.405  0.00  0.00    +0.000 A 
BRANCH  30  37
ATOM     36  C   UNL     1       6.743   4.641  16.998  0.00  0.00    +0.000 C 
ATOM     37  S   UNL     1       5.061   4.401  16.361  0.00  0.00    +0.000 S 
ENDBRANCH  30  37
ENDBRANCH  28  33
ENDBRANCH   1  29
TORSDOF 7
ENDMDL
MODEL 6
REMARK VINA RESULT:      -7.4      1.177      1.191
REMARK  Name = 
REMARK  8 active torsions:
REMARK  status: ('A' for Active; 'I' for Inactive)
REMARK    1  A    between atoms: C_1  and  S_2
REMARK    2  A    between atoms: S_2  and  C_3
REMARK    3  A    between atoms: C_6  and  C_7
REMARK    4  A    between atoms: C_8  and  C_9
REMARK    5  A    between atoms: C_23  and  N_24
REMARK    6  A    between atoms: N_27  and  C_28
REMARK    7  A    between atoms: C_28  and  C_29
REMARK    8  A    between atoms: C_29  and  O_30
REMARK                            x       y       z     vdW  Elec       q    Type
REMARK                         _______ _______ _______ _____ _____    ______ ____
ROOT
ATOM      1  C   UNL     1       0.864   9.459  20.722  0.00  0.00    +0.000 A 
ATOM      2  C   UNL     1      -0.083   8.948  21.598  0.00  0.00    +0.000 A 
ATOM      3  C   UNL     1      -0.799   9.804  22.464  0.00  0.00    +0.000 A 
ATOM      4  C   UNL     1      -0.647  11.191  22.475  0.00  0.00    +0.000 A 
ATOM      5  N   UNL     1      -1.364  11.904  23.371  0.00  0.00    +0.000 NA
ATOM      6  C   UNL     1      -1.337  13.255  23.222  0.00  0.00    +0.000 A 
ATOM      7  C   UNL     1      -0.619  13.862  22.203  0.00  0.00    +0.000 A 
ATOM      8  O   UNL     1      -0.887  15.204  22.190  0.00  0.00    +0.000 OA
ATOM      9  C   UNL     1      -1.736  15.464  23.216  0.00  0.00    +0.000 A 
ATOM     10  C   UNL     1      -2.289  16.715  23.494  0.00  0.00    +0.000 A 
ATOM     11  C   UNL     1      -3.046  16.827  24.667  0.00  0.00    +0.000 A 
ATOM     12  C   UNL     1      -3.220  15.722  25.502  0.00  0.00    +0.000 A 
ATOM     13  C   UNL     1      -2.711  14.454  25.152  0.00  0.00    +0.000 A 
ATOM     14  C   UNL     1      -1.967  14.313  23.959  0.00  0.00    +0.000 A 
ATOM     15  C   UNL     1       0.253  13.174  21.334  0.00  0.00    +0.000 A 
ATOM     16  C   UNL     1       0.222  11.749  21.500  0.00  0.00    +0.000 A 
ATOM     17  C   UNL     1       0.964  10.853  20.668  0.00  0.00    +0.000 A 
ENDROOT
BRANCH  15  18
ATOM     18  N   UNL     1       1.017  13.816  20.365  0.00  0.00    +0.000 N 
ATOM     19  C   UNL     1       0.427  14.211  19.082  0.00  0.00    +0.000 C 
ATOM     20  C   UNL     1       0.595  15.726  18.844  0.00  0.00    +0.000 C 
ATOM     21  N   UNL     1       1.995  16.218  18.918  0.00  0.00    +0.000 NA
ATOM     22  C   UNL     1       2.537  15.818  20.243  0.00  0.00    +0.000 C 
ATOM     23  C   UNL     1       2.367  14.331  20.639  0.00  0.00    +0.000 C 
BRANCH  21  24
ATOM     24  C   UNL     1       2.856  15.703  17.827  0.00  0.00    +0.000 C 
BRANCH  24  25
ATOM     25  C   UNL     1       3.357  16.804  16.876  0.00  0.00    +0.000 C 
BRANCH  25  26
ATOM     26  O   UNL     1       2.351  17.793  16.683  0.00  0.00    +0.000 OA
ATOM     27  H   UNL     1       2.800  18.532  16.228  0.00  0.00    +0.000 HD
ENDBRANCH  25  26
ENDBRANCH  24  25
ENDBRANCH  21  24
ENDBRANCH  15  18
BRANCH   1  29
ATOM     28  C   UNL     1       2.076   7.351  20.089  0.00  0.00    +0.000 C 
ATOM     29  C   UNL     1       1.631   8.591  19.792  0.00  0.00    +0.000 C 
BRANCH  28  33
ATOM     30  C   UNL     1       4.595   4.863  17.571  0.00  0.00    +0.000 A 
ATOM     31  C   UNL     1       4.192   6.145  17.184  0.00  0.00    +0.000 A 
ATOM     32  C   UNL     1       3.377   6.931  18.016  0.00  0.00    +0.000 A 
ATOM     33  C   UNL     1       2.926   6.458  19.257  0.00  0.00    +0.000 A 
ATOM     34  C   UNL     1       3.351   5.176  19.641  0.00  0.00    +0.000 A 
ATOM     35  C   UNL     1       4.165   4.388  18.809  0.00  0.00    +0.000 A 
BRANCH  30  37
ATOM     36  C   UNL     1       7.255   4.529  16.657  0.00  0.00    +0.000 C 
ATOM     37  S   UNL     1       5.566   3.923  16.395  0.00  0.00    +0.000 S 
ENDBRANCH  30  37
ENDBRANCH  28  33
ENDBRANCH   1  29
TORSDOF 7
ENDMDL
MODEL 7
REMARK VINA RESULT:      -7.4      0.798      1.166
REMARK  Name = 
REMARK  8 active torsions:
REMARK  status: ('A' for Active; 'I' for Inactive)
REMARK    1  A    between atoms: C_1  and  S_2
REMARK    2  A    between atoms: S_2  and  C_3
REMARK    3  A    between atoms: C_6  and  C_7
REMARK    4  A    between atoms: C_8  and  C_9
REMARK    5  A    between atoms: C_23  and  N_24
REMARK    6  A    between atoms: N_27  and  C_28
REMARK    7  A    between atoms: C_28  and  C_29
REMARK    8  A    between atoms: C_29  and  O_30
REMARK                            x       y       z     vdW  Elec       q    Type
REMARK                         _______ _______ _______ _____ _____    ______ ____
ROOT
ATOM      1  C   UNL     1       0.927   9.617  20.218  0.00  0.00    +0.000 A 
ATOM      2  C   UNL     1      -0.025   9.087  21.078  0.00  0.00    +0.000 A 
ATOM      3  C   UNL     1      -0.687   9.913  22.015  0.00  0.00    +0.000 A 
ATOM      4  C   UNL     1      -0.475  11.288  22.114  0.00  0.00    +0.000 A 
ATOM      5  N   UNL     1      -1.145  11.968  23.070  0.00  0.00    +0.000 NA
ATOM      6  C   UNL     1      -1.063  13.324  23.011  0.00  0.00    +0.000 A 
ATOM      7  C   UNL     1      -0.339  13.968  22.019  0.00  0.00    +0.000 A 
ATOM      8  O   UNL     1      -0.549  15.317  22.101  0.00  0.00    +0.000 OA
ATOM      9  C   UNL     1      -1.367  15.543  23.159  0.00  0.00    +0.000 A 
ATOM     10  C   UNL     1      -1.861  16.794  23.532  0.00  0.00    +0.000 A 
ATOM     11  C   UNL     1      -2.591  16.858  24.726  0.00  0.00    +0.000 A 
ATOM     12  C   UNL     1      -2.796  15.707  25.489  0.00  0.00    +0.000 A 
ATOM     13  C   UNL     1      -2.348  14.446  25.046  0.00  0.00    +0.000 A 
ATOM     14  C   UNL     1      -1.634  14.355  23.830  0.00  0.00    +0.000 A 
ATOM     15  C   UNL     1       0.487  13.304  21.088  0.00  0.00    +0.000 A 
ATOM     16  C   UNL     1       0.398  11.874  21.160  0.00  0.00    +0.000 A 
ATOM     17  C   UNL     1       1.085  11.006  20.255  0.00  0.00    +0.000 A 
ENDROOT
BRANCH  15  18
ATOM     18  N   UNL     1       1.259  13.977  20.148  0.00  0.00    +0.000 N 
ATOM     19  C   UNL     1       0.651  14.536  18.936  0.00  0.00    +0.000 C 
ATOM     20  C   UNL     1       0.927  16.051  18.832  0.00  0.00    +0.000 C 
ATOM     21  N   UNL     1       2.363  16.428  18.885  0.00  0.00    +0.000 NA
ATOM     22  C   UNL     1       2.926  15.863  20.140  0.00  0.00    +0.000 C 
ATOM     23  C   UNL     1       2.656  14.362  20.404  0.00  0.00    +0.000 C 
BRANCH  21  24
ATOM     24  C   UNL     1       3.137  15.957  17.711  0.00  0.00    +0.000 C 
BRANCH  24  25
ATOM     25  C   UNL     1       4.640  15.791  18.000  0.00  0.00    +0.000 C 
BRANCH  25  26
ATOM     26  O   UNL     1       5.091  14.508  17.578  0.00  0.00    +0.000 OA
ATOM     27  H   UNL     1       4.299  13.935  17.603  0.00  0.00    +0.000 HD
ENDBRANCH  25  26
ENDBRANCH  24  25
ENDBRANCH  21  24
ENDBRANCH  15  18
BRANCH   1  29
ATOM     28  C   UNL     1       2.208   7.586  19.479  0.00  0.00    +0.000 C 
ATOM     29  C   UNL     1       1.639   8.782  19.217  0.00  0.00    +0.000 C 
BRANCH  28  33
ATOM     30  C   UNL     1       4.476   4.986  16.837  0.00  0.00    +0.000 A 
ATOM     31  C   UNL     1       3.535   4.487  17.744  0.00  0.00    +0.000 A 
ATOM     32  C   UNL     1       2.814   5.348  18.587  0.00  0.00    +0.000 A 
ATOM     33  C   UNL     1       3.017   6.736  18.564  0.00  0.00    +0.000 A 
ATOM     34  C   UNL     1       3.953   7.225  17.639  0.00  0.00    +0.000 A 
ATOM     35  C   UNL     1       4.676   6.365  16.795  0.00  0.00    +0.000 A 
BRANCH  30  37
ATOM     36  C   UNL     1       6.902   4.680  15.407  0.00  0.00    +0.000 C 
ATOM     37  S   UNL     1       5.392   3.789  15.870  0.00  0.00    +0.000 S 
ENDBRANCH  30  37
ENDBRANCH  28  33
ENDBRANCH   1  29
TORSDOF 7
ENDMDL
MODEL 8
REMARK VINA RESULT:      -7.4      1.166      1.425
REMARK  Name = 
REMARK  8 active torsions:
REMARK  status: ('A' for Active; 'I' for Inactive)
REMARK    1  A    between atoms: C_1  and  S_2
REMARK    2  A    between atoms: S_2  and  C_3
REMARK    3  A    between atoms: C_6  and  C_7
REMARK    4  A    between atoms: C_8  and  C_9
REMARK    5  A    between atoms: C_23  and  N_24
REMARK    6  A    between atoms: N_27  and  C_28
REMARK    7  A    between atoms: C_28  and  C_29
REMARK    8  A    between atoms: C_29  and  O_30
REMARK                            x       y       z     vdW  Elec       q    Type
REMARK                         _______ _______ _______ _____ _____    ______ ____
ROOT
ATOM      1  C   UNL     1       0.470   9.710  21.394  0.00  0.00    +0.000 A 
ATOM      2  C   UNL     1      -0.527   9.417  22.315  0.00  0.00    +0.000 A 
ATOM      3  C   UNL     1      -1.153  10.449  23.050  0.00  0.00    +0.000 A 
ATOM      4  C   UNL     1      -0.859  11.803  22.881  0.00  0.00    +0.000 A 
ATOM      5  N   UNL     1      -1.502  12.696  23.665  0.00  0.00    +0.000 NA
ATOM      6  C   UNL     1      -1.336  14.006  23.340  0.00  0.00    +0.000 A 
ATOM      7  C   UNL     1      -0.557  14.398  22.261  0.00  0.00    +0.000 A 
ATOM      8  O   UNL     1      -0.686  15.746  22.069  0.00  0.00    +0.000 OA
ATOM      9  C   UNL     1      -1.506  16.224  23.038  0.00  0.00    +0.000 A 
ATOM     10  C   UNL     1      -1.929  17.551  23.142  0.00  0.00    +0.000 A 
ATOM     11  C   UNL     1      -2.673  17.892  24.278  0.00  0.00    +0.000 A 
ATOM     12  C   UNL     1      -2.960  16.930  25.248  0.00  0.00    +0.000 A 
ATOM     13  C   UNL     1      -2.583  15.583  25.076  0.00  0.00    +0.000 A 
ATOM     14  C   UNL     1      -1.855  15.211  23.923  0.00  0.00    +0.000 A 
ATOM     15  C   UNL     1       0.241  13.516  21.505  0.00  0.00    +0.000 A 
ATOM     16  C   UNL     1       0.064  12.136  21.855  0.00  0.00    +0.000 A 
ATOM     17  C   UNL     1       0.712  11.067  21.160  0.00  0.00    +0.000 A 
ENDROOT
BRANCH  15  18
ATOM     18  N   UNL     1       1.069  13.943  20.472  0.00  0.00    +0.000 N 
ATOM     19  C   UNL     1       0.518  14.266  19.151  0.00  0.00    +0.000 C 
ATOM     20  C   UNL     1       0.875  15.712  18.747  0.00  0.00    +0.000 C 
ATOM     21  N   UNL     1       2.327  16.025  18.768  0.00  0.00    +0.000 NA
ATOM     22  C   UNL     1       2.831  15.708  20.130  0.00  0.00    +0.000 C 
ATOM     23  C   UNL     1       2.477  14.308  20.689  0.00  0.00    +0.000 C 
BRANCH  21  24
ATOM     24  C   UNL     1       3.102  15.286  17.743  0.00  0.00    +0.000 C 
BRANCH  24  25
ATOM     25  C   UNL     1       4.625  15.451  17.895  0.00  0.00    +0.000 C 
BRANCH  25  26
ATOM     26  O   UNL     1       5.289  14.217  17.641  0.00  0.00    +0.000 OA
ATOM     27  H   UNL     1       6.103  14.247  18.179  0.00  0.00    +0.000 HD
ENDBRANCH  25  26
ENDBRANCH  24  25
ENDBRANCH  21  24
ENDBRANCH  15  18
BRANCH   1  29
ATOM     28  C   UNL     1       1.186   7.346  20.934  0.00  0.00    +0.000 C 
ATOM     29  C   UNL     1       1.145   8.654  20.598  0.00  0.00    +0.000 C 
BRANCH  28  33
ATOM     30  C   UNL     1       3.382   4.236  18.842  0.00  0.00    +0.000 A 
ATOM     31  C   UNL     1       3.268   5.534  18.336  0.00  0.00    +0.000 A 
ATOM     32  C   UNL     1       2.553   6.523  19.031  0.00  0.00    +0.000 A 
ATOM     33  C   UNL     1       1.916   6.246  20.249  0.00  0.00    +0.000 A 
ATOM     34  C   UNL     1       2.051   4.943  20.755  0.00  0.00    +0.000 A 
ATOM     35  C   UNL     1       2.766   3.952  20.060  0.00  0.00    +0.000 A 
BRANCH  30  37
ATOM     36  C   UNL     1       4.840   4.017  16.423  0.00  0.00    +0.000 C 
ATOM     37  S   UNL     1       4.249   3.039  17.831  0.00  0.00    +0.000 S 
ENDBRANCH  30  37
ENDBRANCH  28  33
ENDBRANCH   1  29
TORSDOF 7
ENDMDL
MODEL 9
REMARK VINA RESULT:      -7.3      2.295      2.654
REMARK  Name = 
REMARK  8 active torsions:
REMARK  status: ('A' for Active; 'I' for Inactive)
REMARK    1  A    between atoms: C_1  and  S_2
REMARK    2  A    between atoms: S_2  and  C_3
REMARK    3  A    between atoms: C_6  and  C_7
REMARK    4  A    between atoms: C_8  and  C_9
REMARK    5  A    between atoms: C_23  and  N_24
REMARK    6  A    between atoms: N_27  and  C_28
REMARK    7  A    between atoms: C_28  and  C_29
REMARK    8  A    between atoms: C_29  and  O_30
REMARK                            x       y       z     vdW  Elec       q    Type
REMARK                         _______ _______ _______ _____ _____    ______ ____
ROOT
ATOM      1  C   UNL     1       0.897  10.278  18.424  0.00  0.00    +0.000 A 
ATOM      2  C   UNL     1      -0.477  10.141  18.561  0.00  0.00    +0.000 A 
ATOM      3  C   UNL     1      -1.247  11.168  19.154  0.00  0.00    +0.000 A 
ATOM      4  C   UNL     1      -0.709  12.378  19.593  0.00  0.00    +0.000 A 
ATOM      5  N   UNL     1      -1.540  13.271  20.173  0.00  0.00    +0.000 NA
ATOM      6  C   UNL     1      -1.023  14.506  20.408  0.00  0.00    +0.000 A 
ATOM      7  C   UNL     1       0.282  14.829  20.065  0.00  0.00    +0.000 A 
ATOM      8  O   UNL     1       0.492  16.165  20.268  0.00  0.00    +0.000 OA
ATOM      9  C   UNL     1      -0.651  16.689  20.776  0.00  0.00    +0.000 A 
ATOM     10  C   UNL     1      -0.851  18.042  21.059  0.00  0.00    +0.000 A 
ATOM     11  C   UNL     1      -2.049  18.386  21.696  0.00  0.00    +0.000 A 
ATOM     12  C   UNL     1      -2.982  17.401  22.024  0.00  0.00    +0.000 A 
ATOM     13  C   UNL     1      -2.783  16.054  21.656  0.00  0.00    +0.000 A 
ATOM     14  C   UNL     1      -1.593  15.689  20.987  0.00  0.00    +0.000 A 
ATOM     15  C   UNL     1       1.225  13.894  19.590  0.00  0.00    +0.000 A 
ATOM     16  C   UNL     1       0.673  12.593  19.348  0.00  0.00    +0.000 A 
ATOM     17  C   UNL     1       1.432  11.518  18.786  0.00  0.00    +0.000 A 
ENDROOT
BRANCH  15  18
ATOM     18  N   UNL     1       2.548  14.228  19.319  0.00  0.00    +0.000 N 
ATOM     19  C   UNL     1       2.948  14.706  17.992  0.00  0.00    +0.000 C 
ATOM     20  C   UNL     1       3.625  16.089  18.087  0.00  0.00    +0.000 C 
ATOM     21  N   UNL     1       4.790  16.150  19.007  0.00  0.00    +0.000 NA
ATOM     22  C   UNL     1       4.329  15.684  20.341  0.00  0.00    +0.000 C 
ATOM     23  C   UNL     1       3.566  14.337  20.376  0.00  0.00    +0.000 C 
BRANCH  21  24
ATOM     24  C   UNL     1       5.945  15.344  18.546  0.00  0.00    +0.000 C 
BRANCH  24  25
ATOM     25  C   UNL     1       7.245  16.159  18.422  0.00  0.00    +0.000 C 
BRANCH  25  26
ATOM     26  O   UNL     1       6.980  17.550  18.578  0.00  0.00    +0.000 OA
ATOM     27  H   UNL     1       7.857  17.969  18.680  0.00  0.00    +0.000 HD
ENDBRANCH  25  26
ENDBRANCH  24  25
ENDBRANCH  21  24
ENDBRANCH  15  18
BRANCH   1  29
ATOM     28  C   UNL     1       2.058   8.050  18.386  0.00  0.00    +0.000 C 
ATOM     29  C   UNL     1       1.738   9.224  17.800  0.00  0.00    +0.000 C 
BRANCH  28  33
ATOM     30  C   UNL     1       4.818   5.055  16.872  0.00  0.00    +0.000 A 
ATOM     31  C   UNL     1       5.057   6.425  16.730  0.00  0.00    +0.000 A 
ATOM     32  C   UNL     1       4.150   7.375  17.228  0.00  0.00    +0.000 A 
ATOM     33  C   UNL     1       2.966   6.988  17.874  0.00  0.00    +0.000 A 
ATOM     34  C   UNL     1       2.746   5.610  18.025  0.00  0.00    +0.000 A 
ATOM     35  C   UNL     1       3.652   4.658  17.526  0.00  0.00    +0.000 A 
BRANCH  30  37
ATOM     36  C   UNL     1       5.879   4.304  14.355  0.00  0.00    +0.000 C 
ATOM     37  S   UNL     1       6.003   3.938  16.127  0.00  0.00    +0.000 S 
ENDBRANCH  30  37
ENDBRANCH  28  33
ENDBRANCH   1  29
TORSDOF 7
ENDMDL
