MODEL 1
REMARK VINA RESULT:      -6.5      0.000      0.000
REMARK  Name = 
REMARK  9 active torsions:
REMARK  status: ('A' for Active; 'I' for Inactive)
REMARK    1  A    between atoms: C_1  and  C_2
REMARK    2  A    between atoms: C_2  and  S_3
REMARK    3  A    between atoms: S_3  and  N_6
REMARK    4  A    between atoms: N_6  and  C_7
REMARK    5  A    between atoms: C_7  and  C_8
REMARK    6  A    between atoms: C_7  and  C_9
REMARK    7  A    between atoms: C_9  and  C_10
REMARK    8  A    between atoms: C_9  and  N_15
REMARK    9  A    between atoms: N_18  and  C_19
REMARK                            x       y       z     vdW  Elec       q    Type
REMARK                         _______ _______ _______ _____ _____    ______ ____
ROOT
ATOM      1  C   UNL     1       3.620   6.177  18.805  0.00  0.00    +0.000 C 
ENDROOT
BRANCH   1   2
ATOM      2  N   UNL     1       4.747   6.363  17.849  0.00  0.00    +0.000 NA
ATOM      3  C   UNL     1       4.582   5.736  16.527  0.00  0.00    +0.000 C 
ATOM      4  C   UNL     1       5.766   6.040  15.570  0.00  0.00    +0.000 C 
ATOM      5  N   UNL     1       7.106   5.748  16.118  0.00  0.00    +0.000 NA
ATOM      6  C   UNL     1       7.349   4.306  16.191  0.00  0.00    +0.000 C 
ATOM      7  C   UNL     1       7.222   6.390  17.441  0.00  0.00    +0.000 C 
ATOM      8  C   UNL     1       6.070   6.052  18.413  0.00  0.00    +0.000 C 
ENDBRANCH   1   2
BRANCH   1   9
ATOM      9  C   UNL     1       2.673   7.407  18.746  0.00  0.00    +0.000 A 
ATOM     10  C   UNL     1       2.462   8.289  17.694  0.00  0.00    +0.000 A 
ATOM     11  C   UNL     1       1.553   9.340  18.010  0.00  0.00    +0.000 A 
ATOM     12  C   UNL     1       1.103   9.257  19.306  0.00  0.00    +0.000 A 
ATOM     13  S   UNL     1       1.783   7.930  20.130  0.00  0.00    +0.000 S 
ENDBRANCH   1   9
BRANCH   1  14
ATOM     14  C   UNL     1       2.832   4.796  18.811  0.00  0.00    +0.000 C 
ATOM     15  C   UNL     1       1.614   4.790  17.890  0.00  0.00    +0.000 C 
BRANCH  14  16
ATOM     16  N   UNL     1       2.470   4.388  20.219  0.00  0.00    +0.000 NA
ATOM     17  H   UNL     1       3.096   4.884  20.862  0.00  0.00    +0.000 HD
BRANCH  16  18
ATOM     18  S   UNL     1       2.547   2.727  20.561  0.00  0.00    +0.000 S 
ATOM     19  O   UNL     1       1.399   2.134  19.921  0.00  0.00    +0.000 OA
ATOM     20  O   UNL     1       2.817   2.562  21.971  0.00  0.00    +0.000 OA
BRANCH  18  22
ATOM     21  C   UNL     1       3.675   1.360  18.495  0.00  0.00    +0.000 C 
ATOM     22  C   UNL     1       4.021   2.270  19.656  0.00  0.00    +0.000 C 
ENDBRANCH  18  22
ENDBRANCH  16  18
ENDBRANCH  14  16
ENDBRANCH   1  14
TORSDOF 6
ENDMDL
MODEL 2
REMARK VINA RESULT:      -6.3      3.553      5.189
REMARK  Name = 
REMARK  9 active torsions:
REMARK  status: ('A' for Active; 'I' for Inactive)
REMARK    1  A    between atoms: C_1  and  C_2
REMARK    2  A    between atoms: C_2  and  S_3
REMARK    3  A    between atoms: S_3  and  N_6
REMARK    4  A    between atoms: N_6  and  C_7
REMARK    5  A    between atoms: C_7  and  C_8
REMARK    6  A    between atoms: C_7  and  C_9
REMARK    7  A    between atoms: C_9  and  C_10
REMARK    8  A    between atoms: C_9  and  N_15
REMARK    9  A    between atoms: N_18  and  C_19
REMARK                            x       y       z     vdW  Elec       q    Type
REMARK                         _______ _______ _______ _____ _____    ______ ____
ROOT
ATOM      1  C   UNL     1       4.079   5.533  17.134  0.00  0.00    +0.000 C 
ENDROOT
BRANCH   1   2
ATOM      2  N   UNL     1       3.753   4.163  17.619  0.00  0.00    +0.000 NA
ATOM      3  C   UNL     1       2.330   3.787  17.581  0.00  0.00    +0.000 C 
ATOM      4  C   UNL     1       2.088   2.321  18.033  0.00  0.00    +0.000 C 
ATOM      5  N   UNL     1       2.683   1.960  19.336  0.00  0.00    +0.000 NA
ATOM      6  C   UNL     1       1.950   2.574  20.444  0.00  0.00    +0.000 C 
ATOM      7  C   UNL     1       4.103   2.361  19.330  0.00  0.00    +0.000 C 
ATOM      8  C   UNL     1       4.344   3.832  18.925  0.00  0.00    +0.000 C 
ENDBRANCH   1   2
BRANCH   1   9
ATOM      9  C   UNL     1       3.225   6.579  17.903  0.00  0.00    +0.000 A 
ATOM     10  C   UNL     1       2.759   7.810  17.460  0.00  0.00    +0.000 A 
ATOM     11  C   UNL     1       2.044   8.536  18.456  0.00  0.00    +0.000 A 
ATOM     12  C   UNL     1       1.995   7.857  19.650  0.00  0.00    +0.000 A 
ATOM     13  S   UNL     1       2.816   6.366  19.567  0.00  0.00    +0.000 S 
ENDBRANCH   1   9
BRANCH   1  14
ATOM     14  C   UNL     1       5.604   5.964  17.003  0.00  0.00    +0.000 C 
ATOM     15  C   UNL     1       5.951   7.217  17.802  0.00  0.00    +0.000 C 
BRANCH  14  16
ATOM     16  N   UNL     1       6.002   6.099  15.552  0.00  0.00    +0.000 NA
ATOM     17  H   UNL     1       5.150   6.041  14.984  0.00  0.00    +0.000 HD
BRANCH  16  18
ATOM     18  S   UNL     1       7.118   4.958  14.972  0.00  0.00    +0.000 S 
ATOM     19  O   UNL     1       7.748   4.387  16.137  0.00  0.00    +0.000 OA
ATOM     20  O   UNL     1       7.877   5.564  13.902  0.00  0.00    +0.000 OA
BRANCH  18  22
ATOM     21  C   UNL     1       6.245   3.629  12.762  0.00  0.00    +0.000 C 
ATOM     22  C   UNL     1       6.012   3.750  14.254  0.00  0.00    +0.000 C 
ENDBRANCH  18  22
ENDBRANCH  16  18
ENDBRANCH  14  16
ENDBRANCH   1  14
TORSDOF 6
ENDMDL
MODEL 3
REMARK VINA RESULT:      -6.2      3.116      5.076
REMARK  Name = 
REMARK  9 active torsions:
REMARK  status: ('A' for Active; 'I' for Inactive)
REMARK    1  A    between atoms: C_1  and  C_2
REMARK    2  A    between atoms: C_2  and  S_3
REMARK    3  A    between atoms: S_3  and  N_6
REMARK    4  A    between atoms: N_6  and  C_7
REMARK    5  A    between atoms: C_7  and  C_8
REMARK    6  A    between atoms: C_7  and  C_9
REMARK    7  A    between atoms: C_9  and  C_10
REMARK    8  A    between atoms: C_9  and  N_15
REMARK    9  A    between atoms: N_18  and  C_19
REMARK                            x       y       z     vdW  Elec       q    Type
REMARK                         _______ _______ _______ _____ _____    ______ ____
ROOT
ATOM      1  C   UNL     1       3.252   5.754  17.678  0.00  0.00    +0.000 C 
ENDROOT
BRANCH   1   2
ATOM      2  N   UNL     1       3.003   4.411  18.271  0.00  0.00    +0.000 NA
ATOM      3  C   UNL     1       1.607   3.943  18.244  0.00  0.00    +0.000 C 
ATOM      4  C   UNL     1       1.447   2.507  18.814  0.00  0.00    +0.000 C 
ATOM      5  N   UNL     1       2.037   2.294  20.151  0.00  0.00    +0.000 NA
ATOM      6  C   UNL     1       1.246   2.950  21.192  0.00  0.00    +0.000 C 
ATOM      7  C   UNL     1       3.430   2.782  20.132  0.00  0.00    +0.000 C 
ATOM      8  C   UNL     1       3.587   4.228  19.609  0.00  0.00    +0.000 C 
ENDBRANCH   1   2
BRANCH   1   9
ATOM      9  C   UNL     1       2.602   6.850  18.567  0.00  0.00    +0.000 A 
ATOM     10  C   UNL     1       2.267   6.787  19.913  0.00  0.00    +0.000 A 
ATOM     11  C   UNL     1       1.636   7.970  20.394  0.00  0.00    +0.000 A 
ATOM     12  C   UNL     1       1.480   8.909  19.402  0.00  0.00    +0.000 A 
ATOM     13  S   UNL     1       2.078   8.356  17.906  0.00  0.00    +0.000 S 
ENDBRANCH   1   9
BRANCH   1  14
ATOM     14  C   UNL     1       4.726   6.133  17.216  0.00  0.00    +0.000 C 
ATOM     15  C   UNL     1       4.774   6.843  15.866  0.00  0.00    +0.000 C 
BRANCH  14  16
ATOM     16  N   UNL     1       5.627   4.921  17.241  0.00  0.00    +0.000 NA
ATOM     17  H   UNL     1       5.412   4.385  18.089  0.00  0.00    +0.000 HD
BRANCH  16  18
ATOM     18  S   UNL     1       7.296   5.226  17.203  0.00  0.00    +0.000 S 
ATOM     19  O   UNL     1       7.586   5.693  15.869  0.00  0.00    +0.000 OA
ATOM     20  O   UNL     1       7.982   4.099  17.792  0.00  0.00    +0.000 OA
BRANCH  18  22
ATOM     21  C   UNL     1       7.851   7.858  17.619  0.00  0.00    +0.000 C 
ATOM     22  C   UNL     1       7.407   6.602  18.340  0.00  0.00    +0.000 C 
ENDBRANCH  18  22
ENDBRANCH  16  18
ENDBRANCH  14  16
ENDBRANCH   1  14
TORSDOF 6
ENDMDL
MODEL 4
REMARK VINA RESULT:      -6.0      1.000      1.158
REMARK  Name = 
REMARK  9 active torsions:
REMARK  status: ('A' for Active; 'I' for Inactive)
REMARK    1  A    between atoms: C_1  and  C_2
REMARK    2  A    between atoms: C_2  and  S_3
REMARK    3  A    between atoms: S_3  and  N_6
REMARK    4  A    between atoms: N_6  and  C_7
REMARK    5  A    between atoms: C_7  and  C_8
REMARK    6  A    between atoms: C_7  and  C_9
REMARK    7  A    between atoms: C_9  and  C_10
REMARK    8  A    between atoms: C_9  and  N_15
REMARK    9  A    between atoms: N_18  and  C_19
REMARK                            x       y       z     vdW  Elec       q    Type
REMARK                         _______ _______ _______ _____ _____    ______ ____
ROOT
ATOM      1  C   UNL     1       3.607   6.199  18.737  0.00  0.00    +0.000 C 
ENDROOT
BRANCH   1   2
ATOM      2  N   UNL     1       4.759   6.396  17.815  0.00  0.00    +0.000 NA
ATOM      3  C   UNL     1       4.624   5.800  16.476  0.00  0.00    +0.000 C 
ATOM      4  C   UNL     1       5.835   6.114  15.556  0.00  0.00    +0.000 C 
ATOM      5  N   UNL     1       7.157   5.797  16.131  0.00  0.00    +0.000 NA
ATOM      6  C   UNL     1       7.385   4.352  16.177  0.00  0.00    +0.000 C 
ATOM      7  C   UNL     1       7.245   6.408  17.471  0.00  0.00    +0.000 C 
ATOM      8  C   UNL     1       6.065   6.059  18.405  0.00  0.00    +0.000 C 
ENDBRANCH   1   2
BRANCH   1   9
ATOM      9  C   UNL     1       2.687   7.451  18.703  0.00  0.00    +0.000 A 
ATOM     10  C   UNL     1       2.512   8.369  17.676  0.00  0.00    +0.000 A 
ATOM     11  C   UNL     1       1.621   9.430  18.012  0.00  0.00    +0.000 A 
ATOM     12  C   UNL     1       1.149   9.316  19.298  0.00  0.00    +0.000 A 
ATOM     13  S   UNL     1       1.788   7.949  20.090  0.00  0.00    +0.000 S 
ENDBRANCH   1   9
BRANCH   1  14
ATOM     14  C   UNL     1       2.790   4.836  18.673  0.00  0.00    +0.000 C 
ATOM     15  C   UNL     1       1.543   4.918  17.796  0.00  0.00    +0.000 C 
BRANCH  14  16
ATOM     16  N   UNL     1       2.465   4.336  20.060  0.00  0.00    +0.000 NA
ATOM     17  H   UNL     1       2.820   5.023  20.734  0.00  0.00    +0.000 HD
BRANCH  16  18
ATOM     18  S   UNL     1       3.080   2.808  20.470  0.00  0.00    +0.000 S 
ATOM     19  O   UNL     1       2.746   2.602  21.858  0.00  0.00    +0.000 OA
ATOM     20  O   UNL     1       4.436   2.714  19.981  0.00  0.00    +0.000 OA
BRANCH  18  22
ATOM     21  C   UNL     1       0.608   2.221  19.494  0.00  0.00    +0.000 C 
ATOM     22  C   UNL     1       2.049   1.754  19.458  0.00  0.00    +0.000 C 
ENDBRANCH  18  22
ENDBRANCH  16  18
ENDBRANCH  14  16
ENDBRANCH   1  14
TORSDOF 6
ENDMDL
MODEL 5
REMARK VINA RESULT:      -6.0      3.406      5.244
REMARK  Name = 
REMARK  9 active torsions:
REMARK  status: ('A' for Active; 'I' for Inactive)
REMARK    1  A    between atoms: C_1  and  C_2
REMARK    2  A    between atoms: C_2  and  S_3
REMARK    3  A    between atoms: S_3  and  N_6
REMARK    4  A    between atoms: N_6  and  C_7
REMARK    5  A    between atoms: C_7  and  C_8
REMARK    6  A    between atoms: C_7  and  C_9
REMARK    7  A    between atoms: C_9  and  C_10
REMARK    8  A    between atoms: C_9  and  N_15
REMARK    9  A    between atoms: N_18  and  C_19
REMARK                            x       y       z     vdW  Elec       q    Type
REMARK                         _______ _______ _______ _____ _____    ______ ____
ROOT
ATOM      1  C   UNL     1       3.476   5.516  17.433  0.00  0.00    +0.000 C 
ENDROOT
BRANCH   1   2
ATOM      2  N   UNL     1       3.046   4.177  17.921  0.00  0.00    +0.000 NA
ATOM      3  C   UNL     1       1.599   3.999  18.126  0.00  0.00    +0.000 C 
ATOM      4  C   UNL     1       1.231   2.555  18.563  0.00  0.00    +0.000 C 
ATOM      5  N   UNL     1       1.984   2.040  19.724  0.00  0.00    +0.000 NA
ATOM      6  C   UNL     1       1.551   2.680  20.967  0.00  0.00    +0.000 C 
ATOM      7  C   UNL     1       3.424   2.244  19.476  0.00  0.00    +0.000 C 
ATOM      8  C   UNL     1       3.801   3.691  19.086  0.00  0.00    +0.000 C 
ENDBRANCH   1   2
BRANCH   1   9
ATOM      9  C   UNL     1       2.852   6.625  18.324  0.00  0.00    +0.000 A 
ATOM     10  C   UNL     1       2.548   6.579  19.678  0.00  0.00    +0.000 A 
ATOM     11  C   UNL     1       1.933   7.771  20.161  0.00  0.00    +0.000 A 
ATOM     12  C   UNL     1       1.757   8.698  19.162  0.00  0.00    +0.000 A 
ATOM     13  S   UNL     1       2.318   8.126  17.658  0.00  0.00    +0.000 S 
ENDBRANCH   1   9
BRANCH   1  14
ATOM     14  C   UNL     1       5.017   5.769  17.128  0.00  0.00    +0.000 C 
ATOM     15  C   UNL     1       5.586   6.984  17.855  0.00  0.00    +0.000 C 
BRANCH  14  16
ATOM     16  N   UNL     1       5.266   5.841  15.640  0.00  0.00    +0.000 NA
ATOM     17  H   UNL     1       4.372   5.687  15.162  0.00  0.00    +0.000 HD
BRANCH  16  18
ATOM     18  S   UNL     1       6.407   4.749  15.018  0.00  0.00    +0.000 S 
ATOM     19  O   UNL     1       6.594   3.744  16.035  0.00  0.00    +0.000 OA
ATOM     20  O   UNL     1       7.508   5.502  14.465  0.00  0.00    +0.000 OA
BRANCH  18  22
ATOM     21  C   UNL     1       6.413   3.584  12.557  0.00  0.00    +0.000 C 
ATOM     22  C   UNL     1       5.481   4.041  13.661  0.00  0.00    +0.000 C 
ENDBRANCH  18  22
ENDBRANCH  16  18
ENDBRANCH  14  16
ENDBRANCH   1  14
TORSDOF 6
ENDMDL
MODEL 6
REMARK VINA RESULT:      -5.9      3.049      5.338
REMARK  Name = 
REMARK  9 active torsions:
REMARK  status: ('A' for Active; 'I' for Inactive)
REMARK    1  A    between atoms: C_1  and  C_2
REMARK    2  A    between atoms: C_2  and  S_3
REMARK    3  A    between atoms: S_3  and  N_6
REMARK    4  A    between atoms: N_6  and  C_7
REMARK    5  A    between atoms: C_7  and  C_8
REMARK    6  A    between atoms: C_7  and  C_9
REMARK    7  A    between atoms: C_9  and  C_10
REMARK    8  A    between atoms: C_9  and  N_15
REMARK    9  A    between atoms: N_18  and  C_19
REMARK                            x       y       z     vdW  Elec       q    Type
REMARK                         _______ _______ _______ _____ _____    ______ ____
ROOT
ATOM      1  C   UNL     1       3.850   5.278  19.150  0.00  0.00    +0.000 C 
ENDROOT
BRANCH   1   2
ATOM      2  N   UNL     1       3.362   6.685  19.126  0.00  0.00    +0.000 NA
ATOM      3  C   UNL     1       2.133   6.954  19.890  0.00  0.00    +0.000 C 
ATOM      4  C   UNL     1       1.736   8.455  19.873  0.00  0.00    +0.000 C 
ATOM      5  N   UNL     1       1.654   9.066  18.531  0.00  0.00    +0.000 NA
ATOM      6  C   UNL     1       0.473   8.598  17.804  0.00  0.00    +0.000 C 
ATOM      7  C   UNL     1       2.901   8.766  17.802  0.00  0.00    +0.000 C 
ATOM      8  C   UNL     1       3.275   7.267  17.777  0.00  0.00    +0.000 C 
ENDBRANCH   1   2
BRANCH   1   9
ATOM      9  C   UNL     1       2.673   4.319  19.479  0.00  0.00    +0.000 A 
ATOM     10  C   UNL     1       1.545   4.039  18.718  0.00  0.00    +0.000 A 
ATOM     11  C   UNL     1       0.641   3.142  19.357  0.00  0.00    +0.000 A 
ATOM     12  C   UNL     1       1.082   2.769  20.604  0.00  0.00    +0.000 A 
ATOM     13  S   UNL     1       2.566   3.507  20.999  0.00  0.00    +0.000 S 
ENDBRANCH   1   9
BRANCH   1  14
ATOM     14  C   UNL     1       4.753   4.753  17.950  0.00  0.00    +0.000 C 
ATOM     15  C   UNL     1       4.012   3.813  17.002  0.00  0.00    +0.000 C 
BRANCH  14  16
ATOM     16  N   UNL     1       6.029   4.133  18.467  0.00  0.00    +0.000 NA
ATOM     17  H   UNL     1       5.943   4.035  19.484  0.00  0.00    +0.000 HD
BRANCH  16  18
ATOM     18  S   UNL     1       7.463   4.972  18.123  0.00  0.00    +0.000 S 
ATOM     19  O   UNL     1       8.163   4.181  17.141  0.00  0.00    +0.000 OA
ATOM     20  O   UNL     1       8.072   5.369  19.371  0.00  0.00    +0.000 OA
BRANCH  18  22
ATOM     21  C   UNL     1       7.676   7.642  17.635  0.00  0.00    +0.000 C 
ATOM     22  C   UNL     1       6.808   6.437  17.334  0.00  0.00    +0.000 C 
ENDBRANCH  18  22
ENDBRANCH  16  18
ENDBRANCH  14  16
ENDBRANCH   1  14
TORSDOF 6
ENDMDL
MODEL 7
REMARK VINA RESULT:      -5.9      3.280      5.797
REMARK  Name = 
REMARK  9 active torsions:
REMARK  status: ('A' for Active; 'I' for Inactive)
REMARK    1  A    between atoms: C_1  and  C_2
REMARK    2  A    between atoms: C_2  and  S_3
REMARK    3  A    between atoms: S_3  and  N_6
REMARK    4  A    between atoms: N_6  and  C_7
REMARK    5  A    between atoms: C_7  and  C_8
REMARK    6  A    between atoms: C_7  and  C_9
REMARK    7  A    between atoms: C_9  and  C_10
REMARK    8  A    between atoms: C_9  and  N_15
REMARK    9  A    between atoms: N_18  and  C_19
REMARK                            x       y       z     vdW  Elec       q    Type
REMARK                         _______ _______ _______ _____ _____    ______ ____
ROOT
ATOM      1  C   UNL     1       3.246   6.098  19.165  0.00  0.00    +0.000 C 
ENDROOT
BRANCH   1   2
ATOM      2  N   UNL     1       2.216   7.159  18.993  0.00  0.00    +0.000 NA
ATOM      3  C   UNL     1       2.385   8.039  17.825  0.00  0.00    +0.000 C 
ATOM      4  C   UNL     1       1.231   9.068  17.679  0.00  0.00    +0.000 C 
ATOM      5  N   UNL     1       0.945   9.864  18.889  0.00  0.00    +0.000 NA
ATOM      6  C   UNL     1       1.991  10.859  19.131  0.00  0.00    +0.000 C 
ATOM      7  C   UNL     1       0.789   8.943  20.031  0.00  0.00    +0.000 C 
ATOM      8  C   UNL     1       1.959   7.949  20.207  0.00  0.00    +0.000 C 
ENDBRANCH   1   2
BRANCH   1   9
ATOM      9  C   UNL     1       2.587   4.815  19.744  0.00  0.00    +0.000 A 
ATOM     10  C   UNL     1       1.240   4.483  19.799  0.00  0.00    +0.000 A 
ATOM     11  C   UNL     1       0.990   3.240  20.450  0.00  0.00    +0.000 A 
ATOM     12  C   UNL     1       2.149   2.655  20.901  0.00  0.00    +0.000 A 
ATOM     13  S   UNL     1       3.519   3.606  20.551  0.00  0.00    +0.000 S 
ENDBRANCH   1   9
BRANCH   1  14
ATOM     14  C   UNL     1       4.244   5.787  17.966  0.00  0.00    +0.000 C 
ATOM     15  C   UNL     1       3.855   4.551  17.160  0.00  0.00    +0.000 C 
BRANCH  14  16
ATOM     16  N   UNL     1       5.669   5.708  18.458  0.00  0.00    +0.000 NA
ATOM     17  H   UNL     1       5.758   6.330  19.269  0.00  0.00    +0.000 HD
BRANCH  16  18
ATOM     18  S   UNL     1       6.875   6.112  17.333  0.00  0.00    +0.000 S 
ATOM     19  O   UNL     1       6.237   6.951  16.348  0.00  0.00    +0.000 OA
ATOM     20  O   UNL     1       7.588   4.908  16.975  0.00  0.00    +0.000 OA
BRANCH  18  22
ATOM     21  C   UNL     1       8.042   8.527  17.799  0.00  0.00    +0.000 C 
ATOM     22  C   UNL     1       7.951   7.116  18.347  0.00  0.00    +0.000 C 
ENDBRANCH  18  22
ENDBRANCH  16  18
ENDBRANCH  14  16
ENDBRANCH   1  14
TORSDOF 6
ENDMDL
MODEL 8
REMARK VINA RESULT:      -5.9      3.022      4.773
REMARK  Name = 
REMARK  9 active torsions:
REMARK  status: ('A' for Active; 'I' for Inactive)
REMARK    1  A    between atoms: C_1  and  C_2
REMARK    2  A    between atoms: C_2  and  S_3
REMARK    3  A    between atoms: S_3  and  N_6
REMARK    4  A    between atoms: N_6  and  C_7
REMARK    5  A    between atoms: C_7  and  C_8
REMARK    6  A    between atoms: C_7  and  C_9
REMARK    7  A    between atoms: C_9  and  C_10
REMARK    8  A    between atoms: C_9  and  N_15
REMARK    9  A    between atoms: N_18  and  C_19
REMARK                            x       y       z     vdW  Elec       q    Type
REMARK                         _______ _______ _______ _____ _____    ______ ____
ROOT
ATOM      1  C   UNL     1       3.045   6.142  17.966  0.00  0.00    +0.000 C 
ENDROOT
BRANCH   1   2
ATOM      2  N   UNL     1       2.636   4.862  18.608  0.00  0.00    +0.000 NA
ATOM      3  C   UNL     1       3.635   4.235  19.489  0.00  0.00    +0.000 C 
ATOM      4  C   UNL     1       3.103   2.946  20.173  0.00  0.00    +0.000 C 
ATOM      5  N   UNL     1       2.521   1.944  19.257  0.00  0.00    +0.000 NA
ATOM      6  C   UNL     1       3.559   1.272  18.475  0.00  0.00    +0.000 C 
ATOM      7  C   UNL     1       1.534   2.618  18.392  0.00  0.00    +0.000 C 
ATOM      8  C   UNL     1       2.073   3.874  17.673  0.00  0.00    +0.000 C 
ENDBRANCH   1   2
BRANCH   1   9
ATOM      9  C   UNL     1       2.375   7.335  18.702  0.00  0.00    +0.000 A 
ATOM     10  C   UNL     1       2.056   7.453  20.048  0.00  0.00    +0.000 A 
ATOM     11  C   UNL     1       1.398   8.677  20.369  0.00  0.00    +0.000 A 
ATOM     12  C   UNL     1       1.205   9.461  19.257  0.00  0.00    +0.000 A 
ATOM     13  S   UNL     1       1.802   8.720  17.844  0.00  0.00    +0.000 S 
ENDBRANCH   1   9
BRANCH   1  14
ATOM     14  C   UNL     1       4.584   6.396  17.660  0.00  0.00    +0.000 C 
ATOM     15  C   UNL     1       4.949   7.876  17.579  0.00  0.00    +0.000 C 
BRANCH  14  16
ATOM     16  N   UNL     1       5.019   5.645  16.424  0.00  0.00    +0.000 NA
ATOM     17  H   UNL     1       4.374   4.859  16.289  0.00  0.00    +0.000 HD
BRANCH  16  18
ATOM     18  S   UNL     1       6.608   5.048  16.429  0.00  0.00    +0.000 S 
ATOM     19  O   UNL     1       6.799   4.435  17.721  0.00  0.00    +0.000 OA
ATOM     20  O   UNL     1       7.486   6.078  15.925  0.00  0.00    +0.000 OA
BRANCH  18  22
ATOM     21  C   UNL     1       5.591   4.212  14.046  0.00  0.00    +0.000 C 
ATOM     22  C   UNL     1       6.483   3.767  15.188  0.00  0.00    +0.000 C 
ENDBRANCH  18  22
ENDBRANCH  16  18
ENDBRANCH  14  16
ENDBRANCH   1  14
TORSDOF 6
ENDMDL
MODEL 9
REMARK VINA RESULT:      -5.8      3.053      4.793
REMARK  Name = 
REMARK  9 active torsions:
REMARK  status: ('A' for Active; 'I' for Inactive)
REMARK    1  A    between atoms: C_1  and  C_2
REMARK    2  A    between atoms: C_2  and  S_3
REMARK    3  A    between atoms: S_3  and  N_6
REMARK    4  A    between atoms: N_6  and  C_7
REMARK    5  A    between atoms: C_7  and  C_8
REMARK    6  A    between atoms: C_7  and  C_9
REMARK    7  A    between atoms: C_9  and  C_10
REMARK    8  A    between atoms: C_9  and  N_15
REMARK    9  A    between atoms: N_18  and  C_19
REMARK                            x       y       z     vdW  Elec       q    Type
REMARK                         _______ _______ _______ _____ _____    ______ ____
ROOT
ATOM      1  C   UNL     1       2.960   6.153  17.943  0.00  0.00    +0.000 C 
ENDROOT
BRANCH   1   2
ATOM      2  N   UNL     1       2.546   4.880  18.595  0.00  0.00    +0.000 NA
ATOM      3  C   UNL     1       3.519   4.286  19.527  0.00  0.00    +0.000 C 
ATOM      4  C   UNL     1       2.980   3.004  20.217  0.00  0.00    +0.000 C 
ATOM      5  N   UNL     1       2.448   1.975  19.301  0.00  0.00    +0.000 NA
ATOM      6  C   UNL     1       3.525   1.303  18.572  0.00  0.00    +0.000 C 
ATOM      7  C   UNL     1       1.485   2.616  18.385  0.00  0.00    +0.000 C 
ATOM      8  C   UNL     1       2.033   3.866  17.661  0.00  0.00    +0.000 C 
ENDBRANCH   1   2
BRANCH   1   9
ATOM      9  C   UNL     1       2.319   7.357  18.687  0.00  0.00    +0.000 A 
ATOM     10  C   UNL     1       2.026   7.484  20.038  0.00  0.00    +0.000 A 
ATOM     11  C   UNL     1       1.389   8.716  20.366  0.00  0.00    +0.000 A 
ATOM     12  C   UNL     1       1.187   9.500  19.256  0.00  0.00    +0.000 A 
ATOM     13  S   UNL     1       1.748   8.746  17.835  0.00  0.00    +0.000 S 
ENDBRANCH   1   9
BRANCH   1  14
ATOM     14  C   UNL     1       4.497   6.386  17.609  0.00  0.00    +0.000 C 
ATOM     15  C   UNL     1       4.884   7.861  17.535  0.00  0.00    +0.000 C 
BRANCH  14  16
ATOM     16  N   UNL     1       4.896   5.640  16.358  0.00  0.00    +0.000 NA
ATOM     17  H   UNL     1       4.229   4.874  16.222  0.00  0.00    +0.000 HD
BRANCH  16  18
ATOM     18  S   UNL     1       6.468   5.000  16.336  0.00  0.00    +0.000 S 
ATOM     19  O   UNL     1       7.332   6.078  15.925  0.00  0.00    +0.000 OA
ATOM     20  O   UNL     1       6.436   3.730  15.648  0.00  0.00    +0.000 OA
BRANCH  18  22
ATOM     21  C   UNL     1       7.793   5.593  18.639  0.00  0.00    +0.000 C 
ATOM     22  C   UNL     1       6.720   4.682  18.078  0.00  0.00    +0.000 C 
ENDBRANCH  18  22
ENDBRANCH  16  18
ENDBRANCH  14  16
ENDBRANCH   1  14
TORSDOF 6
ENDMDL
