MODEL 1
REMARK VINA RESULT:      -8.1      0.000      0.000
REMARK  Name = 
REMARK  4 active torsions:
REMARK  status: ('A' for Active; 'I' for Inactive)
REMARK    1  A    between atoms: C_1  and  C_2
REMARK    2  A    between atoms: C_4  and  C_5
REMARK    3  A    between atoms: N_6  and  C_7
REMARK    4  A    between atoms: N_10  and  C_11
REMARK                            x       y       z     vdW  Elec       q    Type
REMARK                         _______ _______ _______ _____ _____    ______ ____
ROOT
ATOM      1  C   UNL     1       6.515   5.318  15.021  0.00  0.00    +0.000 C 
ATOM      2  C   UNL     1       6.947   4.222  15.994  0.00  0.00    +0.000 C 
ATOM      3  C   UNL     1       5.629   3.677  16.521  0.00  0.00    +0.000 C 
ATOM      4  N   UNL     1       4.769   4.844  16.594  0.00  0.00    +0.000 N 
ATOM      5  C   UNL     1       5.166   5.826  15.575  0.00  0.00    +0.000 C 
ENDROOT
BRANCH   4   6
ATOM      6  C   UNL     1       3.904   5.146  17.617  0.00  0.00    +0.000 A 
ATOM      7  N   UNL     1       4.081   6.341  18.220  0.00  0.00    +0.000 NA
ATOM      8  C   UNL     1       3.283   6.646  19.257  0.00  0.00    +0.000 A 
ATOM      9  N   UNL     1       2.287   5.900  19.740  0.00  0.00    +0.000 NA
ATOM     10  C   UNL     1       2.085   4.731  19.105  0.00  0.00    +0.000 A 
ATOM     11  C   UNL     1       2.878   4.295  18.040  0.00  0.00    +0.000 A 
ATOM     12  C   UNL     1       2.562   2.953  17.435  0.00  0.00    +0.000 C 
ATOM     13  C   UNL     1       2.891   1.822  18.419  0.00  0.00    +0.000 C 
ATOM     14  N   UNL     1       1.775   1.496  19.313  0.00  0.00    +0.000 NA
ATOM     15  C   UNL     1       1.441   2.572  20.259  0.00  0.00    +0.000 C 
ATOM     16  C   UNL     1       0.949   3.878  19.622  0.00  0.00    +0.000 C 
ATOM     17  H   UNL     1       2.022   0.663  19.850  0.00  0.00    +0.000 HD
ENDBRANCH   4   6
BRANCH   1  23
ATOM     18  C   UNL     1       5.561   2.123  11.537  0.00  0.00    +0.000 C 
ATOM     19  C   UNL     1       6.179   3.309  12.172  0.00  0.00    +0.000 A 
ATOM     20  C   UNL     1       7.334   4.000  11.773  0.00  0.00    +0.000 A 
ATOM     21  C   UNL     1       7.546   4.957  12.746  0.00  0.00    +0.000 A 
ATOM     22  C   UNL     1       8.657   5.926  12.905  0.00  0.00    +0.000 C 
ATOM     23  N   UNL     1       6.526   4.797  13.661  0.00  0.00    +0.000 N 
ATOM     24  N   UNL     1       5.671   3.811  13.309  0.00  0.00    +0.000 NA
ENDBRANCH   1  23
TORSDOF 2
ENDMDL
MODEL 2
REMARK VINA RESULT:      -7.3      4.137      7.284
REMARK  Name = 
REMARK  4 active torsions:
REMARK  status: ('A' for Active; 'I' for Inactive)
REMARK    1  A    between atoms: C_1  and  C_2
REMARK    2  A    between atoms: C_4  and  C_5
REMARK    3  A    between atoms: N_6  and  C_7
REMARK    4  A    between atoms: N_10  and  C_11
REMARK                            x       y       z     vdW  Elec       q    Type
REMARK                         _______ _______ _______ _____ _____    ______ ____
ROOT
ATOM      1  C   UNL     1       1.689   9.306  19.199  0.00  0.00    +0.000 C 
ATOM      2  C   UNL     1       2.363   9.300  17.828  0.00  0.00    +0.000 C 
ATOM      3  C   UNL     1       2.380   7.827  17.449  0.00  0.00    +0.000 C 
ATOM      4  N   UNL     1       2.594   7.141  18.710  0.00  0.00    +0.000 N 
ATOM      5  C   UNL     1       2.038   7.934  19.815  0.00  0.00    +0.000 C 
ENDROOT
BRANCH   4   6
ATOM      6  C   UNL     1       3.430   6.070  18.913  0.00  0.00    +0.000 A 
ATOM      7  N   UNL     1       4.753   6.314  18.813  0.00  0.00    +0.000 NA
ATOM      8  C   UNL     1       5.596   5.276  18.957  0.00  0.00    +0.000 A 
ATOM      9  N   UNL     1       5.263   4.014  19.235  0.00  0.00    +0.000 NA
ATOM     10  C   UNL     1       3.944   3.787  19.379  0.00  0.00    +0.000 A 
ATOM     11  C   UNL     1       2.977   4.781  19.214  0.00  0.00    +0.000 A 
ATOM     12  C   UNL     1       1.532   4.388  19.377  0.00  0.00    +0.000 C 
ATOM     13  C   UNL     1       1.087   3.468  18.231  0.00  0.00    +0.000 C 
ATOM     14  N   UNL     1       1.333   2.048  18.506  0.00  0.00    +0.000 NA
ATOM     15  C   UNL     1       2.759   1.698  18.579  0.00  0.00    +0.000 C 
ATOM     16  C   UNL     1       3.544   2.368  19.714  0.00  0.00    +0.000 C 
ATOM     17  H   UNL     1       0.904   1.495  17.763  0.00  0.00    +0.000 HD
ENDBRANCH   4   6
BRANCH   1  23
ATOM     18  C   UNL     1      -2.286  10.603  16.795  0.00  0.00    +0.000 C 
ATOM     19  C   UNL     1      -1.432  10.312  17.970  0.00  0.00    +0.000 A 
ATOM     20  C   UNL     1      -1.614  10.736  19.296  0.00  0.00    +0.000 A 
ATOM     21  C   UNL     1      -0.500  10.290  19.981  0.00  0.00    +0.000 A 
ATOM     22  C   UNL     1      -0.097  10.508  21.391  0.00  0.00    +0.000 C 
ATOM     23  N   UNL     1       0.277   9.632  19.050  0.00  0.00    +0.000 N 
ATOM     24  N   UNL     1      -0.293   9.617  17.824  0.00  0.00    +0.000 NA
ENDBRANCH   1  23
TORSDOF 2
ENDMDL
MODEL 3
REMARK VINA RESULT:      -7.2      3.300      7.996
REMARK  Name = 
REMARK  4 active torsions:
REMARK  status: ('A' for Active; 'I' for Inactive)
REMARK    1  A    between atoms: C_1  and  C_2
REMARK    2  A    between atoms: C_4  and  C_5
REMARK    3  A    between atoms: N_6  and  C_7
REMARK    4  A    between atoms: N_10  and  C_11
REMARK                            x       y       z     vdW  Elec       q    Type
REMARK                         _______ _______ _______ _____ _____    ______ ____
ROOT
ATOM      1  C   UNL     1       2.075   8.799  19.557  0.00  0.00    +0.000 C 
ATOM      2  C   UNL     1       2.428   9.115  18.104  0.00  0.00    +0.000 C 
ATOM      3  C   UNL     1       2.051   7.841  17.363  0.00  0.00    +0.000 C 
ATOM      4  N   UNL     1       2.375   6.780  18.300  0.00  0.00    +0.000 N 
ATOM      5  C   UNL     1       2.245   7.270  19.679  0.00  0.00    +0.000 C 
ENDROOT
BRANCH   4   6
ATOM      6  C   UNL     1       2.987   5.590  17.989  0.00  0.00    +0.000 A 
ATOM      7  N   UNL     1       2.421   4.475  18.497  0.00  0.00    +0.000 NA
ATOM      8  C   UNL     1       3.024   3.298  18.253  0.00  0.00    +0.000 A 
ATOM      9  N   UNL     1       4.118   3.103  17.515  0.00  0.00    +0.000 NA
ATOM     10  C   UNL     1       4.650   4.215  16.974  0.00  0.00    +0.000 A 
ATOM     11  C   UNL     1       4.131   5.493  17.191  0.00  0.00    +0.000 A 
ATOM     12  C   UNL     1       4.838   6.656  16.548  0.00  0.00    +0.000 C 
ATOM     13  C   UNL     1       6.216   6.876  17.189  0.00  0.00    +0.000 C 
ATOM     14  N   UNL     1       7.278   6.091  16.553  0.00  0.00    +0.000 NA
ATOM     15  C   UNL     1       7.135   4.640  16.741  0.00  0.00    +0.000 C 
ATOM     16  C   UNL     1       5.880   4.016  16.116  0.00  0.00    +0.000 C 
ATOM     17  H   UNL     1       8.175   6.379  16.947  0.00  0.00    +0.000 HD
ENDBRANCH   4   6
BRANCH   1  23
ATOM     18  C   UNL     1      -1.837  11.521  18.812  0.00  0.00    +0.000 C 
ATOM     19  C   UNL     1      -0.897  10.653  19.558  0.00  0.00    +0.000 A 
ATOM     20  C   UNL     1      -0.770  10.512  20.949  0.00  0.00    +0.000 A 
ATOM     21  C   UNL     1       0.310   9.670  21.137  0.00  0.00    +0.000 A 
ATOM     22  C   UNL     1       0.967   9.227  22.390  0.00  0.00    +0.000 C 
ATOM     23  N   UNL     1       0.765   9.353  19.874  0.00  0.00    +0.000 N 
ATOM     24  N   UNL     1       0.022   9.927  18.901  0.00  0.00    +0.000 NA
ENDBRANCH   1  23
TORSDOF 2
ENDMDL
MODEL 4
REMARK VINA RESULT:      -6.9      3.975      6.744
REMARK  Name = 
REMARK  4 active torsions:
REMARK  status: ('A' for Active; 'I' for Inactive)
REMARK    1  A    between atoms: C_1  and  C_2
REMARK    2  A    between atoms: C_4  and  C_5
REMARK    3  A    between atoms: N_6  and  C_7
REMARK    4  A    between atoms: N_10  and  C_11
REMARK                            x       y       z     vdW  Elec       q    Type
REMARK                         _______ _______ _______ _____ _____    ______ ____
ROOT
ATOM      1  C   UNL     1       3.160   6.403  18.110  0.00  0.00    +0.000 C 
ATOM      2  C   UNL     1       3.428   6.528  19.609  0.00  0.00    +0.000 C 
ATOM      3  C   UNL     1       2.156   7.168  20.143  0.00  0.00    +0.000 C 
ATOM      4  N   UNL     1       1.747   8.075  19.087  0.00  0.00    +0.000 N 
ATOM      5  C   UNL     1       2.199   7.566  17.784  0.00  0.00    +0.000 C 
ENDROOT
BRANCH   4   6
ATOM      6  C   UNL     1       1.272   9.352  19.260  0.00  0.00    +0.000 A 
ATOM      7  N   UNL     1       1.805  10.304  18.467  0.00  0.00    +0.000 NA
ATOM      8  C   UNL     1       1.397  11.573  18.645  0.00  0.00    +0.000 A 
ATOM      9  N   UNL     1       0.473  11.996  19.510  0.00  0.00    +0.000 NA
ATOM     10  C   UNL     1      -0.089  11.035  20.266  0.00  0.00    +0.000 A 
ATOM     11  C   UNL     1       0.285   9.691  20.192  0.00  0.00    +0.000 A 
ATOM     12  C   UNL     1      -0.404   8.720  21.114  0.00  0.00    +0.000 C 
ATOM     13  C   UNL     1       0.004   8.972  22.573  0.00  0.00    +0.000 C 
ATOM     14  N   UNL     1      -0.848   9.960  23.244  0.00  0.00    +0.000 NA
ATOM     15  C   UNL     1      -0.719  11.320  22.701  0.00  0.00    +0.000 C 
ATOM     16  C   UNL     1      -1.154  11.488  21.239  0.00  0.00    +0.000 C 
ATOM     17  H   UNL     1      -0.597   9.984  24.234  0.00  0.00    +0.000 HD
ENDBRANCH   4   6
BRANCH   1  23
ATOM     18  C   UNL     1       0.669   2.339  18.845  0.00  0.00    +0.000 C 
ATOM     19  C   UNL     1       1.671   3.236  18.223  0.00  0.00    +0.000 A 
ATOM     20  C   UNL     1       2.802   2.878  17.473  0.00  0.00    +0.000 A 
ATOM     21  C   UNL     1       3.460   4.064  17.211  0.00  0.00    +0.000 A 
ATOM     22  C   UNL     1       4.756   4.306  16.531  0.00  0.00    +0.000 C 
ATOM     23  N   UNL     1       2.704   5.054  17.804  0.00  0.00    +0.000 N 
ATOM     24  N   UNL     1       1.596   4.564  18.403  0.00  0.00    +0.000 NA
ENDBRANCH   1  23
TORSDOF 2
ENDMDL
MODEL 5
REMARK VINA RESULT:      -6.9      3.972      6.988
REMARK  Name = 
REMARK  4 active torsions:
REMARK  status: ('A' for Active; 'I' for Inactive)
REMARK    1  A    between atoms: C_1  and  C_2
REMARK    2  A    between atoms: C_4  and  C_5
REMARK    3  A    between atoms: N_6  and  C_7
REMARK    4  A    between atoms: N_10  and  C_11
REMARK                            x       y       z     vdW  Elec       q    Type
REMARK                         _______ _______ _______ _____ _____    ______ ____
ROOT
ATOM      1  C   UNL     1       2.364   5.573  19.152  0.00  0.00    +0.000 C 
ATOM      2  C   UNL     1       2.116   6.530  17.987  0.00  0.00    +0.000 C 
ATOM      3  C   UNL     1       2.440   7.895  18.575  0.00  0.00    +0.000 C 
ATOM      4  N   UNL     1       1.987   7.801  19.951  0.00  0.00    +0.000 N 
ATOM      5  C   UNL     1       2.076   6.410  20.417  0.00  0.00    +0.000 C 
ENDROOT
BRANCH   4   6
ATOM      6  C   UNL     1       1.308   8.774  20.645  0.00  0.00    +0.000 A 
ATOM      7  N   UNL     1       1.176   8.581  21.974  0.00  0.00    +0.000 NA
ATOM      8  C   UNL     1       0.474   9.490  22.673  0.00  0.00    +0.000 A 
ATOM      9  N   UNL     1      -0.082  10.605  22.196  0.00  0.00    +0.000 NA
ATOM     10  C   UNL     1       0.093  10.814  20.877  0.00  0.00    +0.000 A 
ATOM     11  C   UNL     1       0.772   9.919  20.047  0.00  0.00    +0.000 A 
ATOM     12  C   UNL     1       0.874  10.260  18.584  0.00  0.00    +0.000 C 
ATOM     13  C   UNL     1      -0.503  10.173  17.908  0.00  0.00    +0.000 C 
ATOM     14  N   UNL     1      -1.257  11.428  17.979  0.00  0.00    +0.000 NA
ATOM     15  C   UNL     1      -1.662  11.799  19.343  0.00  0.00    +0.000 C 
ATOM     16  C   UNL     1      -0.512  12.082  20.317  0.00  0.00    +0.000 C 
ATOM     17  H   UNL     1      -2.099  11.333  17.409  0.00  0.00    +0.000 HD
ENDBRANCH   4   6
BRANCH   1  23
ATOM     18  C   UNL     1       7.187   5.589  19.111  0.00  0.00    +0.000 C 
ATOM     19  C   UNL     1       5.820   5.056  18.912  0.00  0.00    +0.000 A 
ATOM     20  C   UNL     1       5.419   3.992  18.089  0.00  0.00    +0.000 A 
ATOM     21  C   UNL     1       4.040   3.960  18.174  0.00  0.00    +0.000 A 
ATOM     22  C   UNL     1       3.060   3.105  17.460  0.00  0.00    +0.000 C 
ATOM     23  N   UNL     1       3.691   4.984  19.029  0.00  0.00    +0.000 N 
ATOM     24  N   UNL     1       4.769   5.645  19.506  0.00  0.00    +0.000 NA
ENDBRANCH   1  23
TORSDOF 2
ENDMDL
MODEL 6
REMARK VINA RESULT:      -6.9      3.665      7.935
REMARK  Name = 
REMARK  4 active torsions:
REMARK  status: ('A' for Active; 'I' for Inactive)
REMARK    1  A    between atoms: C_1  and  C_2
REMARK    2  A    between atoms: C_4  and  C_5
REMARK    3  A    between atoms: N_6  and  C_7
REMARK    4  A    between atoms: N_10  and  C_11
REMARK                            x       y       z     vdW  Elec       q    Type
REMARK                         _______ _______ _______ _____ _____    ______ ____
ROOT
ATOM      1  C   UNL     1       1.694   9.352  19.315  0.00  0.00    +0.000 C 
ATOM      2  C   UNL     1       2.337   9.417  17.931  0.00  0.00    +0.000 C 
ATOM      3  C   UNL     1       2.220   7.990  17.419  0.00  0.00    +0.000 C 
ATOM      4  N   UNL     1       2.401   7.174  18.605  0.00  0.00    +0.000 N 
ATOM      5  C   UNL     1       1.936   7.904  19.793  0.00  0.00    +0.000 C 
ENDROOT
BRANCH   4   6
ATOM      6  C   UNL     1       3.145   6.022  18.687  0.00  0.00    +0.000 A 
ATOM      7  N   UNL     1       2.756   5.120  19.612  0.00  0.00    +0.000 NA
ATOM      8  C   UNL     1       3.493   4.004  19.751  0.00  0.00    +0.000 A 
ATOM      9  N   UNL     1       4.564   3.665  19.032  0.00  0.00    +0.000 NA
ATOM     10  C   UNL     1       4.920   4.548  18.080  0.00  0.00    +0.000 A 
ATOM     11  C   UNL     1       4.250   5.756  17.872  0.00  0.00    +0.000 A 
ATOM     12  C   UNL     1       4.767   6.667  16.790  0.00  0.00    +0.000 C 
ATOM     13  C   UNL     1       6.135   7.247  17.176  0.00  0.00    +0.000 C 
ATOM     14  N   UNL     1       7.257   6.395  16.766  0.00  0.00    +0.000 NA
ATOM     15  C   UNL     1       7.313   5.109  17.475  0.00  0.00    +0.000 C 
ATOM     16  C   UNL     1       6.119   4.174  17.238  0.00  0.00    +0.000 C 
ATOM     17  H   UNL     1       8.127   6.899  16.944  0.00  0.00    +0.000 HD
ENDBRANCH   4   6
BRANCH   1  23
ATOM     18  C   UNL     1      -2.242  11.070  17.119  0.00  0.00    +0.000 C 
ATOM     19  C   UNL     1      -1.371  10.669  18.248  0.00  0.00    +0.000 A 
ATOM     20  C   UNL     1      -1.460  11.067  19.591  0.00  0.00    +0.000 A 
ATOM     21  C   UNL     1      -0.364  10.503  20.216  0.00  0.00    +0.000 A 
ATOM     22  C   UNL     1       0.114  10.642  21.613  0.00  0.00    +0.000 C 
ATOM     23  N   UNL     1       0.312   9.806  19.235  0.00  0.00    +0.000 N 
ATOM     24  N   UNL     1      -0.306   9.879  18.035  0.00  0.00    +0.000 NA
ENDBRANCH   1  23
TORSDOF 2
ENDMDL
MODEL 7
REMARK VINA RESULT:      -6.6      2.319      4.251
REMARK  Name = 
REMARK  4 active torsions:
REMARK  status: ('A' for Active; 'I' for Inactive)
REMARK    1  A    between atoms: C_1  and  C_2
REMARK    2  A    between atoms: C_4  and  C_5
REMARK    3  A    between atoms: N_6  and  C_7
REMARK    4  A    between atoms: N_10  and  C_11
REMARK                            x       y       z     vdW  Elec       q    Type
REMARK                         _______ _______ _______ _____ _____    ______ ____
ROOT
ATOM      1  C   UNL     1       5.045   4.414  17.403  0.00  0.00    +0.000 C 
ATOM      2  C   UNL     1       3.739   3.637  17.252  0.00  0.00    +0.000 C 
ATOM      3  C   UNL     1       2.672   4.717  17.338  0.00  0.00    +0.000 C 
ATOM      4  N   UNL     1       3.207   5.664  18.299  0.00  0.00    +0.000 N 
ATOM      5  C   UNL     1       4.676   5.640  18.265  0.00  0.00    +0.000 C 
ENDROOT
BRANCH   4   6
ATOM      6  C   UNL     1       2.499   6.287  19.297  0.00  0.00    +0.000 A 
ATOM      7  N   UNL     1       2.110   5.511  20.331  0.00  0.00    +0.000 NA
ATOM      8  C   UNL     1       1.372   6.080  21.301  0.00  0.00    +0.000 A 
ATOM      9  N   UNL     1       1.009   7.362  21.376  0.00  0.00    +0.000 NA
ATOM     10  C   UNL     1       1.440   8.140  20.365  0.00  0.00    +0.000 A 
ATOM     11  C   UNL     1       2.180   7.649  19.286  0.00  0.00    +0.000 A 
ATOM     12  C   UNL     1       2.576   8.622  18.208  0.00  0.00    +0.000 C 
ATOM     13  C   UNL     1       1.344   9.093  17.421  0.00  0.00    +0.000 C 
ATOM     14  N   UNL     1       0.700  10.269  18.015  0.00  0.00    +0.000 NA
ATOM     15  C   UNL     1       0.085  10.008  19.325  0.00  0.00    +0.000 C 
ATOM     16  C   UNL     1       1.058   9.601  20.439  0.00  0.00    +0.000 C 
ATOM     17  H   UNL     1      -0.029  10.595  17.378  0.00  0.00    +0.000 HD
ENDBRANCH   4   6
BRANCH   1  23
ATOM     18  C   UNL     1       6.122   3.402  12.811  0.00  0.00    +0.000 C 
ATOM     19  C   UNL     1       6.166   4.137  14.096  0.00  0.00    +0.000 A 
ATOM     20  C   UNL     1       7.156   5.023  14.550  0.00  0.00    +0.000 A 
ATOM     21  C   UNL     1       6.787   5.357  15.840  0.00  0.00    +0.000 A 
ATOM     22  C   UNL     1       7.489   6.191  16.846  0.00  0.00    +0.000 C 
ATOM     23  N   UNL     1       5.618   4.670  16.088  0.00  0.00    +0.000 N 
ATOM     24  N   UNL     1       5.215   3.941  15.023  0.00  0.00    +0.000 NA
ENDBRANCH   1  23
TORSDOF 2
ENDMDL
MODEL 8
REMARK VINA RESULT:      -6.5      4.088      7.935
REMARK  Name = 
REMARK  4 active torsions:
REMARK  status: ('A' for Active; 'I' for Inactive)
REMARK    1  A    between atoms: C_1  and  C_2
REMARK    2  A    between atoms: C_4  and  C_5
REMARK    3  A    between atoms: N_6  and  C_7
REMARK    4  A    between atoms: N_10  and  C_11
REMARK                            x       y       z     vdW  Elec       q    Type
REMARK                         _______ _______ _______ _____ _____    ______ ____
ROOT
ATOM      1  C   UNL     1       1.327  10.139  19.322  0.00  0.00    +0.000 C 
ATOM      2  C   UNL     1       2.125   9.976  18.029  0.00  0.00    +0.000 C 
ATOM      3  C   UNL     1       1.896   8.520  17.653  0.00  0.00    +0.000 C 
ATOM      4  N   UNL     1       1.843   7.831  18.929  0.00  0.00    +0.000 N 
ATOM      5  C   UNL     1       1.339   8.738  19.970  0.00  0.00    +0.000 C 
ENDROOT
BRANCH   4   6
ATOM      6  C   UNL     1       2.431   6.623  19.219  0.00  0.00    +0.000 A 
ATOM      7  N   UNL     1       1.964   5.974  20.306  0.00  0.00    +0.000 NA
ATOM      8  C   UNL     1       2.551   4.813  20.645  0.00  0.00    +0.000 A 
ATOM      9  N   UNL     1       3.537   4.199  19.988  0.00  0.00    +0.000 NA
ATOM     10  C   UNL     1       3.966   4.829  18.878  0.00  0.00    +0.000 A 
ATOM     11  C   UNL     1       3.455   6.058  18.452  0.00  0.00    +0.000 A 
ATOM     12  C   UNL     1       4.042   6.668  17.208  0.00  0.00    +0.000 C 
ATOM     13  C   UNL     1       5.491   7.115  17.453  0.00  0.00    +0.000 C 
ATOM     14  N   UNL     1       6.470   6.054  17.196  0.00  0.00    +0.000 NA
ATOM     15  C   UNL     1       6.385   4.929  18.139  0.00  0.00    +0.000 C 
ATOM     16  C   UNL     1       5.069   4.141  18.105  0.00  0.00    +0.000 C 
ATOM     17  H   UNL     1       7.407   6.456  17.260  0.00  0.00    +0.000 HD
ENDBRANCH   4   6
BRANCH   1  23
ATOM     18  C   UNL     1      -3.171  10.195  17.583  0.00  0.00    +0.000 C 
ATOM     19  C   UNL     1      -1.916  10.743  18.147  0.00  0.00    +0.000 A 
ATOM     20  C   UNL     1      -1.458  12.069  18.107  0.00  0.00    +0.000 A 
ATOM     21  C   UNL     1      -0.200  12.042  18.677  0.00  0.00    +0.000 A 
ATOM     22  C   UNL     1       0.800  13.126  18.833  0.00  0.00    +0.000 C 
ATOM     23  N   UNL     1       0.028  10.726  19.025  0.00  0.00    +0.000 N 
ATOM     24  N   UNL     1      -1.022   9.928  18.730  0.00  0.00    +0.000 NA
ENDBRANCH   1  23
TORSDOF 2
ENDMDL
MODEL 9
REMARK VINA RESULT:      -6.4      4.043      7.830
REMARK  Name = 
REMARK  4 active torsions:
REMARK  status: ('A' for Active; 'I' for Inactive)
REMARK    1  A    between atoms: C_1  and  C_2
REMARK    2  A    between atoms: C_4  and  C_5
REMARK    3  A    between atoms: N_6  and  C_7
REMARK    4  A    between atoms: N_10  and  C_11
REMARK                            x       y       z     vdW  Elec       q    Type
REMARK                         _______ _______ _______ _____ _____    ______ ____
ROOT
ATOM      1  C   UNL     1       0.423   9.635  18.565  0.00  0.00    +0.000 C 
ATOM      2  C   UNL     1       0.395   9.079  19.987  0.00  0.00    +0.000 C 
ATOM      3  C   UNL     1       1.816   8.583  20.202  0.00  0.00    +0.000 C 
ATOM      4  N   UNL     1       2.212   8.075  18.901  0.00  0.00    +0.000 N 
ATOM      5  C   UNL     1       1.504   8.804  17.840  0.00  0.00    +0.000 C 
ENDROOT
BRANCH   4   6
ATOM      6  C   UNL     1       2.908   6.914  18.666  0.00  0.00    +0.000 A 
ATOM      7  N   UNL     1       3.771   6.932  17.628  0.00  0.00    +0.000 NA
ATOM      8  C   UNL     1       4.431   5.796  17.341  0.00  0.00    +0.000 A 
ATOM      9  N   UNL     1       4.357   4.643  18.008  0.00  0.00    +0.000 NA
ATOM     10  C   UNL     1       3.529   4.646  19.070  0.00  0.00    +0.000 A 
ATOM     11  C   UNL     1       2.765   5.757  19.438  0.00  0.00    +0.000 A 
ATOM     12  C   UNL     1       1.859   5.619  20.631  0.00  0.00    +0.000 C 
ATOM     13  C   UNL     1       0.700   4.658  20.326  0.00  0.00    +0.000 C 
ATOM     14  N   UNL     1       1.024   3.258  20.618  0.00  0.00    +0.000 NA
ATOM     15  C   UNL     1       2.064   2.696  19.743  0.00  0.00    +0.000 C 
ATOM     16  C   UNL     1       3.444   3.356  19.853  0.00  0.00    +0.000 C 
ATOM     17  H   UNL     1       0.176   2.699  20.509  0.00  0.00    +0.000 HD
ENDBRANCH   4   6
BRANCH   1  23
ATOM     18  C   UNL     1       2.865  13.730  19.292  0.00  0.00    +0.000 C 
ATOM     19  C   UNL     1       1.689  12.865  19.044  0.00  0.00    +0.000 A 
ATOM     20  C   UNL     1       0.335  13.167  19.256  0.00  0.00    +0.000 A 
ATOM     21  C   UNL     1      -0.351  12.002  18.970  0.00  0.00    +0.000 A 
ATOM     22  C   UNL     1      -1.797  11.692  19.095  0.00  0.00    +0.000 C 
ATOM     23  N   UNL     1       0.607  11.079  18.606  0.00  0.00    +0.000 N 
ATOM     24  N   UNL     1       1.854  11.601  18.623  0.00  0.00    +0.000 NA
ENDBRANCH   1  23
TORSDOF 2
ENDMDL
