MODEL 1
REMARK VINA RESULT:      -8.4      0.000      0.000
REMARK  Name = 
REMARK  7 active torsions:
REMARK  status: ('A' for Active; 'I' for Inactive)
REMARK    1  A    between atoms: C_1  and  C_2
REMARK    2  A    between atoms: C_5  and  C_6
REMARK    3  A    between atoms: C_6  and  N_7
REMARK    4  A    between atoms: C_10  and  O_11
REMARK    5  A    between atoms: O_11  and  C_12
REMARK    6  A    between atoms: N_20  and  C_21
REMARK    7  A    between atoms: C_21  and  C_22
REMARK                            x       y       z     vdW  Elec       q    Type
REMARK                         _______ _______ _______ _____ _____    ______ ____
ROOT
ATOM      1  C   UNL     1       1.858   7.538  20.082  0.00  0.00    +0.000 A 
ATOM      2  N   UNL     1       1.135   7.478  21.221  0.00  0.00    +0.000 NA
ATOM      3  C   UNL     1       0.283   8.485  21.471  0.00  0.00    +0.000 A 
ATOM      4  N   UNL     1       0.042   9.579  20.730  0.00  0.00    +0.000 NA
ATOM      5  C   UNL     1       0.791   9.602  19.614  0.00  0.00    +0.000 A 
ATOM      6  C   UNL     1       1.700   8.627  19.217  0.00  0.00    +0.000 A 
ATOM      7  C   UNL     1       2.230   9.045  17.965  0.00  0.00    +0.000 A 
ATOM      8  C   UNL     1       1.651  10.257  17.645  0.00  0.00    +0.000 A 
ATOM      9  N   UNL     1       0.812  10.611  18.677  0.00  0.00    +0.000 N 
ENDROOT
BRANCH   1  10
ATOM     10  O   UNL     1       2.799   6.563  19.820  0.00  0.00    +0.000 OA
BRANCH  10  14
ATOM     11  N   UNL     1       4.495   4.223  17.860  0.00  0.00    +0.000 NA
ATOM     12  C   UNL     1       4.537   4.184  19.324  0.00  0.00    +0.000 C 
ATOM     13  C   UNL     1       3.149   4.110  19.958  0.00  0.00    +0.000 C 
ATOM     14  C   UNL     1       2.263   5.268  19.492  0.00  0.00    +0.000 C 
ATOM     15  C   UNL     1       2.176   5.183  17.965  0.00  0.00    +0.000 C 
ATOM     16  C   UNL     1       3.565   5.221  17.316  0.00  0.00    +0.000 C 
BRANCH  11  17
ATOM     17  C   UNL     1       5.849   4.363  17.261  0.00  0.00    +0.000 C 
BRANCH  17  22
ATOM     18  C   UNL     1       8.661   9.311  18.338  0.00  0.00    +0.000 C 
ATOM     19  C   UNL     1       7.972   8.009  18.082  0.00  0.00    +0.000 A 
ATOM     20  C   UNL     1       8.210   6.889  18.873  0.00  0.00    +0.000 A 
ATOM     21  C   UNL     1       7.536   5.696  18.603  0.00  0.00    +0.000 A 
ATOM     22  C   UNL     1       6.626   5.648  17.547  0.00  0.00    +0.000 A 
ATOM     23  N   UNL     1       6.394   6.725  16.752  0.00  0.00    +0.000 NA
ATOM     24  C   UNL     1       7.065   7.869  17.037  0.00  0.00    +0.000 A 
ENDBRANCH  17  22
ENDBRANCH  11  17
ENDBRANCH  10  14
ENDBRANCH   1  10
BRANCH   9  25
ATOM     25  C   UNL     1      -0.001  11.821  18.713  0.00  0.00    +0.000 C 
BRANCH  25  26
ATOM     26  C   UNL     1      -1.465  11.575  18.422  0.00  0.00    +0.000 A 
ATOM     27  C   UNL     1      -2.456  11.976  19.332  0.00  0.00    +0.000 A 
ATOM     28  C   UNL     1      -3.811  11.869  19.004  0.00  0.00    +0.000 A 
ATOM     29  C   UNL     1      -4.194  11.355  17.767  0.00  0.00    +0.000 A 
ATOM     30  C   UNL     1      -3.224  10.923  16.868  0.00  0.00    +0.000 A 
ATOM     31  C   UNL     1      -1.870  11.030  17.193  0.00  0.00    +0.000 A 
ENDBRANCH  25  26
ENDBRANCH   9  25
TORSDOF 6
ENDMDL
MODEL 2
REMARK VINA RESULT:      -8.3      1.886      2.652
REMARK  Name = 
REMARK  7 active torsions:
REMARK  status: ('A' for Active; 'I' for Inactive)
REMARK    1  A    between atoms: C_1  and  C_2
REMARK    2  A    between atoms: C_5  and  C_6
REMARK    3  A    between atoms: C_6  and  N_7
REMARK    4  A    between atoms: C_10  and  O_11
REMARK    5  A    between atoms: O_11  and  C_12
REMARK    6  A    between atoms: N_20  and  C_21
REMARK    7  A    between atoms: C_21  and  C_22
REMARK                            x       y       z     vdW  Elec       q    Type
REMARK                         _______ _______ _______ _____ _____    ______ ____
ROOT
ATOM      1  C   UNL     1       2.140   7.235  20.073  0.00  0.00    +0.000 A 
ATOM      2  N   UNL     1       1.428   7.129  21.215  0.00  0.00    +0.000 NA
ATOM      3  C   UNL     1       0.524   8.088  21.477  0.00  0.00    +0.000 A 
ATOM      4  N   UNL     1       0.222   9.173  20.745  0.00  0.00    +0.000 NA
ATOM      5  C   UNL     1       0.963   9.244  19.625  0.00  0.00    +0.000 A 
ATOM      6  C   UNL     1       1.921   8.321  19.216  0.00  0.00    +0.000 A 
ATOM      7  C   UNL     1       2.421   8.776  17.965  0.00  0.00    +0.000 A 
ATOM      8  C   UNL     1       1.777   9.958  17.657  0.00  0.00    +0.000 A 
ATOM      9  N   UNL     1       0.926  10.259  18.696  0.00  0.00    +0.000 N 
ENDROOT
BRANCH   1  10
ATOM     10  O   UNL     1       3.130   6.313  19.799  0.00  0.00    +0.000 OA
BRANCH  10  14
ATOM     11  N   UNL     1       4.989   4.256  17.676  0.00  0.00    +0.000 NA
ATOM     12  C   UNL     1       4.987   4.070  19.130  0.00  0.00    +0.000 C 
ATOM     13  C   UNL     1       3.585   3.876  19.703  0.00  0.00    +0.000 C 
ATOM     14  C   UNL     1       2.663   5.037  19.324  0.00  0.00    +0.000 C 
ATOM     15  C   UNL     1       2.627   5.104  17.795  0.00  0.00    +0.000 C 
ATOM     16  C   UNL     1       4.032   5.264  17.202  0.00  0.00    +0.000 C 
BRANCH  11  17
ATOM     17  C   UNL     1       6.353   4.512  17.143  0.00  0.00    +0.000 C 
BRANCH  17  22
ATOM     18  C   UNL     1       7.223   4.416  11.417  0.00  0.00    +0.000 C 
ATOM     19  C   UNL     1       6.952   4.425  12.887  0.00  0.00    +0.000 A 
ATOM     20  C   UNL     1       5.963   3.626  13.453  0.00  0.00    +0.000 A 
ATOM     21  C   UNL     1       5.752   3.660  14.832  0.00  0.00    +0.000 A 
ATOM     22  C   UNL     1       6.542   4.491  15.626  0.00  0.00    +0.000 A 
ATOM     23  N   UNL     1       7.500   5.293  15.091  0.00  0.00    +0.000 NA
ATOM     24  C   UNL     1       7.681   5.240  13.747  0.00  0.00    +0.000 A 
ENDBRANCH  17  22
ENDBRANCH  11  17
ENDBRANCH  10  14
ENDBRANCH   1  10
BRANCH   9  25
ATOM     25  C   UNL     1       0.050  11.424  18.745  0.00  0.00    +0.000 C 
BRANCH  25  26
ATOM     26  C   UNL     1      -1.369  11.132  18.311  0.00  0.00    +0.000 A 
ATOM     27  C   UNL     1      -2.433  11.941  18.742  0.00  0.00    +0.000 A 
ATOM     28  C   UNL     1      -3.723  11.753  18.237  0.00  0.00    +0.000 A 
ATOM     29  C   UNL     1      -3.968  10.751  17.299  0.00  0.00    +0.000 A 
ATOM     30  C   UNL     1      -2.931   9.921  16.887  0.00  0.00    +0.000 A 
ATOM     31  C   UNL     1      -1.642  10.108  17.390  0.00  0.00    +0.000 A 
ENDBRANCH  25  26
ENDBRANCH   9  25
TORSDOF 6
ENDMDL
MODEL 3
REMARK VINA RESULT:      -8.3      0.877      1.441
REMARK  Name = 
REMARK  7 active torsions:
REMARK  status: ('A' for Active; 'I' for Inactive)
REMARK    1  A    between atoms: C_1  and  C_2
REMARK    2  A    between atoms: C_5  and  C_6
REMARK    3  A    between atoms: C_6  and  N_7
REMARK    4  A    between atoms: C_10  and  O_11
REMARK    5  A    between atoms: O_11  and  C_12
REMARK    6  A    between atoms: N_20  and  C_21
REMARK    7  A    between atoms: C_21  and  C_22
REMARK                            x       y       z     vdW  Elec       q    Type
REMARK                         _______ _______ _______ _____ _____    ______ ____
ROOT
ATOM      1  C   UNL     1       1.561   7.164  20.512  0.00  0.00    +0.000 A 
ATOM      2  N   UNL     1       0.752   7.286  21.587  0.00  0.00    +0.000 NA
ATOM      3  C   UNL     1      -0.021   8.382  21.663  0.00  0.00    +0.000 A 
ATOM      4  N   UNL     1      -0.105   9.406  20.798  0.00  0.00    +0.000 NA
ATOM      5  C   UNL     1       0.725   9.248  19.753  0.00  0.00    +0.000 A 
ATOM      6  C   UNL     1       1.568   8.163  19.533  0.00  0.00    +0.000 A 
ATOM      7  C   UNL     1       2.227   8.401  18.294  0.00  0.00    +0.000 A 
ATOM      8  C   UNL     1       1.786   9.615  17.807  0.00  0.00    +0.000 A 
ATOM      9  N   UNL     1       0.908  10.145  18.725  0.00  0.00    +0.000 N 
ENDROOT
BRANCH   1  10
ATOM     10  O   UNL     1       2.426   6.092  20.429  0.00  0.00    +0.000 OA
BRANCH  10  14
ATOM     11  N   UNL     1       3.734   3.644  18.309  0.00  0.00    +0.000 NA
ATOM     12  C   UNL     1       3.981   3.632  19.754  0.00  0.00    +0.000 C 
ATOM     13  C   UNL     1       2.696   3.630  20.578  0.00  0.00    +0.000 C 
ATOM     14  C   UNL     1       1.799   4.815  20.213  0.00  0.00    +0.000 C 
ATOM     15  C   UNL     1       1.492   4.704  18.717  0.00  0.00    +0.000 C 
ATOM     16  C   UNL     1       2.775   4.670  17.877  0.00  0.00    +0.000 C 
BRANCH  11  17
ATOM     17  C   UNL     1       4.993   3.716  17.522  0.00  0.00    +0.000 C 
BRANCH  17  22
ATOM     18  C   UNL     1       8.357   8.406  17.999  0.00  0.00    +0.000 C 
ATOM     19  C   UNL     1       7.451   7.225  17.862  0.00  0.00    +0.000 A 
ATOM     20  C   UNL     1       6.335   7.253  17.031  0.00  0.00    +0.000 A 
ATOM     21  C   UNL     1       5.523   6.122  16.928  0.00  0.00    +0.000 A 
ATOM     22  C   UNL     1       5.848   4.976  17.654  0.00  0.00    +0.000 A 
ATOM     23  N   UNL     1       6.922   4.936  18.484  0.00  0.00    +0.000 NA
ATOM     24  C   UNL     1       7.691   6.050  18.567  0.00  0.00    +0.000 A 
ENDBRANCH  17  22
ENDBRANCH  11  17
ENDBRANCH  10  14
ENDBRANCH   1  10
BRANCH   9  25
ATOM     25  C   UNL     1       0.208  11.415  18.571  0.00  0.00    +0.000 C 
BRANCH  25  26
ATOM     26  C   UNL     1      -1.260  11.261  18.242  0.00  0.00    +0.000 A 
ATOM     27  C   UNL     1      -1.693  10.287  17.327  0.00  0.00    +0.000 A 
ATOM     28  C   UNL     1      -3.057  10.056  17.123  0.00  0.00    +0.000 A 
ATOM     29  C   UNL     1      -4.005  10.798  17.824  0.00  0.00    +0.000 A 
ATOM     30  C   UNL     1      -3.592  11.789  18.709  0.00  0.00    +0.000 A 
ATOM     31  C   UNL     1      -2.230  12.021  18.915  0.00  0.00    +0.000 A 
ENDBRANCH  25  26
ENDBRANCH   9  25
TORSDOF 6
ENDMDL
MODEL 4
REMARK VINA RESULT:      -8.0      1.600      2.667
REMARK  Name = 
REMARK  7 active torsions:
REMARK  status: ('A' for Active; 'I' for Inactive)
REMARK    1  A    between atoms: C_1  and  C_2
REMARK    2  A    between atoms: C_5  and  C_6
REMARK    3  A    between atoms: C_6  and  N_7
REMARK    4  A    between atoms: C_10  and  O_11
REMARK    5  A    between atoms: O_11  and  C_12
REMARK    6  A    between atoms: N_20  and  C_21
REMARK    7  A    between atoms: C_21  and  C_22
REMARK                            x       y       z     vdW  Elec       q    Type
REMARK                         _______ _______ _______ _____ _____    ______ ____
ROOT
ATOM      1  C   UNL     1       1.915   7.220  20.182  0.00  0.00    +0.000 A 
ATOM      2  N   UNL     1       1.136   7.183  21.284  0.00  0.00    +0.000 NA
ATOM      3  C   UNL     1       0.331   8.233  21.514  0.00  0.00    +0.000 A 
ATOM      4  N   UNL     1       0.190   9.351  20.784  0.00  0.00    +0.000 NA
ATOM      5  C   UNL     1       0.992   9.350  19.705  0.00  0.00    +0.000 A 
ATOM      6  C   UNL     1       1.862   8.331  19.332  0.00  0.00    +0.000 A 
ATOM      7  C   UNL     1       2.475   8.740  18.115  0.00  0.00    +0.000 A 
ATOM      8  C   UNL     1       1.982   9.988  17.792  0.00  0.00    +0.000 A 
ATOM      9  N   UNL     1       1.116  10.372  18.791  0.00  0.00    +0.000 N 
ENDROOT
BRANCH   1  10
ATOM     10  O   UNL     1       2.810   6.196  19.945  0.00  0.00    +0.000 OA
BRANCH  10  14
ATOM     11  N   UNL     1       4.418   3.970  17.787  0.00  0.00    +0.000 NA
ATOM     12  C   UNL     1       4.449   3.799  19.243  0.00  0.00    +0.000 C 
ATOM     13  C   UNL     1       3.057   3.728  19.865  0.00  0.00    +0.000 C 
ATOM     14  C   UNL     1       2.222   4.960  19.502  0.00  0.00    +0.000 C 
ATOM     15  C   UNL     1       2.140   5.015  17.974  0.00  0.00    +0.000 C 
ATOM     16  C   UNL     1       3.533   5.050  17.333  0.00  0.00    +0.000 C 
BRANCH  11  17
ATOM     17  C   UNL     1       5.780   4.106  17.206  0.00  0.00    +0.000 C 
BRANCH  17  22
ATOM     18  C   UNL     1       8.538   9.100  18.203  0.00  0.00    +0.000 C 
ATOM     19  C   UNL     1       7.863   7.787  17.968  0.00  0.00    +0.000 A 
ATOM     20  C   UNL     1       8.112   6.682  18.779  0.00  0.00    +0.000 A 
ATOM     21  C   UNL     1       7.450   5.479  18.528  0.00  0.00    +0.000 A 
ATOM     22  C   UNL     1       6.543   5.403  17.471  0.00  0.00    +0.000 A 
ATOM     23  N   UNL     1       6.301   6.464  16.657  0.00  0.00    +0.000 NA
ATOM     24  C   UNL     1       6.960   7.619  16.924  0.00  0.00    +0.000 A 
ENDBRANCH  17  22
ENDBRANCH  11  17
ENDBRANCH  10  14
ENDBRANCH   1  10
BRANCH   9  25
ATOM     25  C   UNL     1       0.372  11.627  18.812  0.00  0.00    +0.000 C 
BRANCH  25  26
ATOM     26  C   UNL     1       1.204  12.816  19.236  0.00  0.00    +0.000 A 
ATOM     27  C   UNL     1       1.727  12.901  20.536  0.00  0.00    +0.000 A 
ATOM     28  C   UNL     1       2.603  13.933  20.887  0.00  0.00    +0.000 A 
ATOM     29  C   UNL     1       2.963  14.896  19.947  0.00  0.00    +0.000 A 
ATOM     30  C   UNL     1       2.428  14.844  18.663  0.00  0.00    +0.000 A 
ATOM     31  C   UNL     1       1.553  13.813  18.311  0.00  0.00    +0.000 A 
ENDBRANCH  25  26
ENDBRANCH   9  25
TORSDOF 6
ENDMDL
MODEL 5
REMARK VINA RESULT:      -7.9      0.583      1.069
REMARK  Name = 
REMARK  7 active torsions:
REMARK  status: ('A' for Active; 'I' for Inactive)
REMARK    1  A    between atoms: C_1  and  C_2
REMARK    2  A    between atoms: C_5  and  C_6
REMARK    3  A    between atoms: C_6  and  N_7
REMARK    4  A    between atoms: C_10  and  O_11
REMARK    5  A    between atoms: O_11  and  C_12
REMARK    6  A    between atoms: N_20  and  C_21
REMARK    7  A    between atoms: C_21  and  C_22
REMARK                            x       y       z     vdW  Elec       q    Type
REMARK                         _______ _______ _______ _____ _____    ______ ____
ROOT
ATOM      1  C   UNL     1       1.728   7.875  19.924  0.00  0.00    +0.000 A 
ATOM      2  N   UNL     1       1.137   7.580  21.102  0.00  0.00    +0.000 NA
ATOM      3  C   UNL     1       0.320   8.503  21.636  0.00  0.00    +0.000 A 
ATOM      4  N   UNL     1       0.001   9.715  21.154  0.00  0.00    +0.000 NA
ATOM      5  C   UNL     1       0.621   9.969  19.989  0.00  0.00    +0.000 A 
ATOM      6  C   UNL     1       1.478   9.108  19.311  0.00  0.00    +0.000 A 
ATOM      7  C   UNL     1       1.866   9.772  18.115  0.00  0.00    +0.000 A 
ATOM      8  C   UNL     1       1.258  11.012  18.104  0.00  0.00    +0.000 A 
ATOM      9  N   UNL     1       0.540  11.141  19.271  0.00  0.00    +0.000 N 
ENDROOT
BRANCH   1  10
ATOM     10  O   UNL     1       2.632   6.988  19.375  0.00  0.00    +0.000 OA
BRANCH  10  14
ATOM     11  N   UNL     1       4.601   4.385  18.131  0.00  0.00    +0.000 NA
ATOM     12  C   UNL     1       4.595   4.742  19.553  0.00  0.00    +0.000 C 
ATOM     13  C   UNL     1       3.198   4.706  20.170  0.00  0.00    +0.000 C 
ATOM     14  C   UNL     1       2.228   5.607  19.401  0.00  0.00    +0.000 C 
ATOM     15  C   UNL     1       2.202   5.111  17.953  0.00  0.00    +0.000 C 
ATOM     16  C   UNL     1       3.604   5.108  17.331  0.00  0.00    +0.000 C 
BRANCH  11  17
ATOM     17  C   UNL     1       5.957   4.492  17.530  0.00  0.00    +0.000 C 
BRANCH  17  22
ATOM     18  C   UNL     1       8.721   9.530  18.252  0.00  0.00    +0.000 C 
ATOM     19  C   UNL     1       8.046   8.206  18.086  0.00  0.00    +0.000 A 
ATOM     20  C   UNL     1       8.363   7.119  18.895  0.00  0.00    +0.000 A 
ATOM     21  C   UNL     1       7.700   5.904  18.710  0.00  0.00    +0.000 A 
ATOM     22  C   UNL     1       6.722   5.801  17.720  0.00  0.00    +0.000 A 
ATOM     23  N   UNL     1       6.412   6.846  16.908  0.00  0.00    +0.000 NA
ATOM     24  C   UNL     1       7.075   8.012  17.110  0.00  0.00    +0.000 A 
ENDBRANCH  17  22
ENDBRANCH  11  17
ENDBRANCH  10  14
ENDBRANCH   1  10
BRANCH   9  25
ATOM     25  C   UNL     1      -0.262  12.305  19.631  0.00  0.00    +0.000 C 
BRANCH  25  26
ATOM     26  C   UNL     1      -1.713  12.191  19.222  0.00  0.00    +0.000 A 
ATOM     27  C   UNL     1      -2.074  11.539  18.031  0.00  0.00    +0.000 A 
ATOM     28  C   UNL     1      -3.419  11.318  17.719  0.00  0.00    +0.000 A 
ATOM     29  C   UNL     1      -4.420  11.749  18.588  0.00  0.00    +0.000 A 
ATOM     30  C   UNL     1      -4.078  12.425  19.755  0.00  0.00    +0.000 A 
ATOM     31  C   UNL     1      -2.735  12.646  20.069  0.00  0.00    +0.000 A 
ENDBRANCH  25  26
ENDBRANCH   9  25
TORSDOF 6
ENDMDL
MODEL 6
REMARK VINA RESULT:      -7.8      1.915      3.094
REMARK  Name = 
REMARK  7 active torsions:
REMARK  status: ('A' for Active; 'I' for Inactive)
REMARK    1  A    between atoms: C_1  and  C_2
REMARK    2  A    between atoms: C_5  and  C_6
REMARK    3  A    between atoms: C_6  and  N_7
REMARK    4  A    between atoms: C_10  and  O_11
REMARK    5  A    between atoms: O_11  and  C_12
REMARK    6  A    between atoms: N_20  and  C_21
REMARK    7  A    between atoms: C_21  and  C_22
REMARK                            x       y       z     vdW  Elec       q    Type
REMARK                         _______ _______ _______ _____ _____    ______ ____
ROOT
ATOM      1  C   UNL     1       1.551   7.153  20.556  0.00  0.00    +0.000 A 
ATOM      2  N   UNL     1       0.714   7.353  21.597  0.00  0.00    +0.000 NA
ATOM      3  C   UNL     1       0.044   8.516  21.643  0.00  0.00    +0.000 A 
ATOM      4  N   UNL     1       0.092   9.542  20.777  0.00  0.00    +0.000 NA
ATOM      5  C   UNL     1       0.947   9.304  19.766  0.00  0.00    +0.000 A 
ATOM      6  C   UNL     1       1.693   8.145  19.579  0.00  0.00    +0.000 A 
ATOM      7  C   UNL     1       2.421   8.317  18.370  0.00  0.00    +0.000 A 
ATOM      8  C   UNL     1       2.117   9.567  17.867  0.00  0.00    +0.000 A 
ATOM      9  N   UNL     1       1.256  10.179  18.749  0.00  0.00    +0.000 N 
ENDROOT
BRANCH   1  10
ATOM     10  O   UNL     1       2.315   6.004  20.506  0.00  0.00    +0.000 OA
BRANCH  10  14
ATOM     11  N   UNL     1       3.469   3.506  18.356  0.00  0.00    +0.000 NA
ATOM     12  C   UNL     1       3.666   3.433  19.807  0.00  0.00    +0.000 C 
ATOM     13  C   UNL     1       2.359   3.524  20.591  0.00  0.00    +0.000 C 
ATOM     14  C   UNL     1       1.584   4.795  20.233  0.00  0.00    +0.000 C 
ATOM     15  C   UNL     1       1.318   4.752  18.726  0.00  0.00    +0.000 C 
ATOM     16  C   UNL     1       2.620   4.625  17.925  0.00  0.00    +0.000 C 
BRANCH  11  17
ATOM     17  C   UNL     1       4.755   3.484  17.611  0.00  0.00    +0.000 C 
BRANCH  17  22
ATOM     18  C   UNL     1       8.191   8.144  17.775  0.00  0.00    +0.000 C 
ATOM     19  C   UNL     1       7.267   6.970  17.716  0.00  0.00    +0.000 A 
ATOM     20  C   UNL     1       6.166   6.949  16.864  0.00  0.00    +0.000 A 
ATOM     21  C   UNL     1       5.336   5.827  16.836  0.00  0.00    +0.000 A 
ATOM     22  C   UNL     1       5.628   4.738  17.658  0.00  0.00    +0.000 A 
ATOM     23  N   UNL     1       6.687   4.747  18.509  0.00  0.00    +0.000 NA
ATOM     24  C   UNL     1       7.474   5.852  18.516  0.00  0.00    +0.000 A 
ENDBRANCH  17  22
ENDBRANCH  11  17
ENDBRANCH  10  14
ENDBRANCH   1  10
BRANCH   9  25
ATOM     25  C   UNL     1       0.684  11.508  18.568  0.00  0.00    +0.000 C 
BRANCH  25  26
ATOM     26  C   UNL     1       1.613  12.628  18.983  0.00  0.00    +0.000 A 
ATOM     27  C   UNL     1       2.248  13.429  18.019  0.00  0.00    +0.000 A 
ATOM     28  C   UNL     1       2.999  14.543  18.402  0.00  0.00    +0.000 A 
ATOM     29  C   UNL     1       3.132  14.870  19.750  0.00  0.00    +0.000 A 
ATOM     30  C   UNL     1       2.537  14.067  20.718  0.00  0.00    +0.000 A 
ATOM     31  C   UNL     1       1.785  12.953  20.338  0.00  0.00    +0.000 A 
ENDBRANCH  25  26
ENDBRANCH   9  25
TORSDOF 6
ENDMDL
MODEL 7
REMARK VINA RESULT:      -7.7      3.377      9.365
REMARK  Name = 
REMARK  7 active torsions:
REMARK  status: ('A' for Active; 'I' for Inactive)
REMARK    1  A    between atoms: C_1  and  C_2
REMARK    2  A    between atoms: C_5  and  C_6
REMARK    3  A    between atoms: C_6  and  N_7
REMARK    4  A    between atoms: C_10  and  O_11
REMARK    5  A    between atoms: O_11  and  C_12
REMARK    6  A    between atoms: N_20  and  C_21
REMARK    7  A    between atoms: C_21  and  C_22
REMARK                            x       y       z     vdW  Elec       q    Type
REMARK                         _______ _______ _______ _____ _____    ______ ____
ROOT
ATOM      1  C   UNL     1       0.285  10.348  20.173  0.00  0.00    +0.000 A 
ATOM      2  N   UNL     1       0.135  10.115  21.494  0.00  0.00    +0.000 NA
ATOM      3  C   UNL     1       0.743   9.034  22.009  0.00  0.00    +0.000 A 
ATOM      4  N   UNL     1       1.500   8.122  21.377  0.00  0.00    +0.000 NA
ATOM      5  C   UNL     1       1.611   8.387  20.064  0.00  0.00    +0.000 A 
ATOM      6  C   UNL     1       1.053   9.473  19.397  0.00  0.00    +0.000 A 
ATOM      7  C   UNL     1       1.459   9.371  18.037  0.00  0.00    +0.000 A 
ATOM      8  C   UNL     1       2.229   8.232  17.910  0.00  0.00    +0.000 A 
ATOM      9  N   UNL     1       2.276   7.614  19.138  0.00  0.00    +0.000 N 
ENDROOT
BRANCH   1  10
ATOM     10  O   UNL     1      -0.381  11.405  19.587  0.00  0.00    +0.000 OA
BRANCH  10  14
ATOM     11  N   UNL     1       0.058  14.648  20.807  0.00  0.00    +0.000 NA
ATOM     12  C   UNL     1       1.003  13.570  21.112  0.00  0.00    +0.000 C 
ATOM     13  C   UNL     1       1.575  12.908  19.861  0.00  0.00    +0.000 C 
ATOM     14  C   UNL     1       0.462  12.383  18.951  0.00  0.00    +0.000 C 
ATOM     15  C   UNL     1      -0.422  13.578  18.584  0.00  0.00    +0.000 C 
ATOM     16  C   UNL     1      -0.977  14.276  19.832  0.00  0.00    +0.000 C 
BRANCH  11  17
ATOM     17  C   UNL     1      -0.542  15.236  22.034  0.00  0.00    +0.000 C 
BRANCH  17  22
ATOM     18  C   UNL     1      -5.405  12.803  24.029  0.00  0.00    +0.000 C 
ATOM     19  C   UNL     1      -4.123  13.401  23.543  0.00  0.00    +0.000 A 
ATOM     20  C   UNL     1      -2.921  12.700  23.602  0.00  0.00    +0.000 A 
ATOM     21  C   UNL     1      -1.751  13.296  23.128  0.00  0.00    +0.000 A 
ATOM     22  C   UNL     1      -1.806  14.584  22.594  0.00  0.00    +0.000 A 
ATOM     23  N   UNL     1      -2.965  15.290  22.546  0.00  0.00    +0.000 NA
ATOM     24  C   UNL     1      -4.085  14.687  23.016  0.00  0.00    +0.000 A 
ENDBRANCH  17  22
ENDBRANCH  11  17
ENDBRANCH  10  14
ENDBRANCH   1  10
BRANCH   9  25
ATOM     25  C   UNL     1       3.008   6.386  19.426  0.00  0.00    +0.000 C 
BRANCH  25  26
ATOM     26  C   UNL     1       2.169   5.135  19.289  0.00  0.00    +0.000 A 
ATOM     27  C   UNL     1       2.096   4.448  18.066  0.00  0.00    +0.000 A 
ATOM     28  C   UNL     1       1.429   3.223  17.974  0.00  0.00    +0.000 A 
ATOM     29  C   UNL     1       0.821   2.671  19.100  0.00  0.00    +0.000 A 
ATOM     30  C   UNL     1       0.856   3.355  20.311  0.00  0.00    +0.000 A 
ATOM     31  C   UNL     1       1.523   4.579  20.404  0.00  0.00    +0.000 A 
ENDBRANCH  25  26
ENDBRANCH   9  25
TORSDOF 6
ENDMDL
MODEL 8
REMARK VINA RESULT:      -7.6      1.354      2.188
REMARK  Name = 
REMARK  7 active torsions:
REMARK  status: ('A' for Active; 'I' for Inactive)
REMARK    1  A    between atoms: C_1  and  C_2
REMARK    2  A    between atoms: C_5  and  C_6
REMARK    3  A    between atoms: C_6  and  N_7
REMARK    4  A    between atoms: C_10  and  O_11
REMARK    5  A    between atoms: O_11  and  C_12
REMARK    6  A    between atoms: N_20  and  C_21
REMARK    7  A    between atoms: C_21  and  C_22
REMARK                            x       y       z     vdW  Elec       q    Type
REMARK                         _______ _______ _______ _____ _____    ______ ____
ROOT
ATOM      1  C   UNL     1       2.073   7.066  20.107  0.00  0.00    +0.000 A 
ATOM      2  N   UNL     1       2.751   7.154  18.943  0.00  0.00    +0.000 NA
ATOM      3  C   UNL     1       2.504   8.215  18.157  0.00  0.00    +0.000 A 
ATOM      4  N   UNL     1       1.650   9.230  18.368  0.00  0.00    +0.000 NA
ATOM      5  C   UNL     1       0.989   9.094  19.531  0.00  0.00    +0.000 A 
ATOM      6  C   UNL     1       1.151   8.062  20.450  0.00  0.00    +0.000 A 
ATOM      7  C   UNL     1       0.283   8.345  21.541  0.00  0.00    +0.000 A 
ATOM      8  C   UNL     1      -0.389   9.516  21.254  0.00  0.00    +0.000 A 
ATOM      9  N   UNL     1       0.012   9.939  20.007  0.00  0.00    +0.000 N 
ENDROOT
BRANCH   1  10
ATOM     10  O   UNL     1       2.240   5.957  20.911  0.00  0.00    +0.000 OA
BRANCH  10  14
ATOM     11  N   UNL     1       3.246   3.256  18.940  0.00  0.00    +0.000 NA
ATOM     12  C   UNL     1       3.302   3.211  20.404  0.00  0.00    +0.000 C 
ATOM     13  C   UNL     1       1.953   3.497  21.060  0.00  0.00    +0.000 C 
ATOM     14  C   UNL     1       1.385   4.842  20.601  0.00  0.00    +0.000 C 
ATOM     15  C   UNL     1       1.252   4.779  19.077  0.00  0.00    +0.000 C 
ATOM     16  C   UNL     1       2.593   4.458  18.405  0.00  0.00    +0.000 C 
BRANCH  11  17
ATOM     17  C   UNL     1       4.580   3.043  18.318  0.00  0.00    +0.000 C 
BRANCH  17  22
ATOM     18  C   UNL     1       8.072   7.603  17.572  0.00  0.00    +0.000 C 
ATOM     19  C   UNL     1       7.143   6.442  17.726  0.00  0.00    +0.000 A 
ATOM     20  C   UNL     1       6.388   5.964  16.659  0.00  0.00    +0.000 A 
ATOM     21  C   UNL     1       5.541   4.870  16.848  0.00  0.00    +0.000 A 
ATOM     22  C   UNL     1       5.471   4.267  18.103  0.00  0.00    +0.000 A 
ATOM     23  N   UNL     1       6.186   4.730  19.161  0.00  0.00    +0.000 NA
ATOM     24  C   UNL     1       6.998   5.795  18.949  0.00  0.00    +0.000 A 
ENDBRANCH  17  22
ENDBRANCH  11  17
ENDBRANCH  10  14
ENDBRANCH   1  10
BRANCH   9  25
ATOM     25  C   UNL     1      -0.456  11.154  19.349  0.00  0.00    +0.000 C 
BRANCH  25  26
ATOM     26  C   UNL     1      -1.706  10.950  18.522  0.00  0.00    +0.000 A 
ATOM     27  C   UNL     1      -2.866  11.700  18.777  0.00  0.00    +0.000 A 
ATOM     28  C   UNL     1      -3.975  11.607  17.932  0.00  0.00    +0.000 A 
ATOM     29  C   UNL     1      -3.944  10.761  16.825  0.00  0.00    +0.000 A 
ATOM     30  C   UNL     1      -2.814   9.988  16.577  0.00  0.00    +0.000 A 
ATOM     31  C   UNL     1      -1.704  10.080  17.421  0.00  0.00    +0.000 A 
ENDBRANCH  25  26
ENDBRANCH   9  25
TORSDOF 6
ENDMDL
MODEL 9
REMARK VINA RESULT:      -7.5      0.897      1.011
REMARK  Name = 
REMARK  7 active torsions:
REMARK  status: ('A' for Active; 'I' for Inactive)
REMARK    1  A    between atoms: C_1  and  C_2
REMARK    2  A    between atoms: C_5  and  C_6
REMARK    3  A    between atoms: C_6  and  N_7
REMARK    4  A    between atoms: C_10  and  O_11
REMARK    5  A    between atoms: O_11  and  C_12
REMARK    6  A    between atoms: N_20  and  C_21
REMARK    7  A    between atoms: C_21  and  C_22
REMARK                            x       y       z     vdW  Elec       q    Type
REMARK                         _______ _______ _______ _____ _____    ______ ____
ROOT
ATOM      1  C   UNL     1       2.005   7.197  19.320  0.00  0.00    +0.000 A 
ATOM      2  N   UNL     1       1.612   6.759  20.536  0.00  0.00    +0.000 NA
ATOM      3  C   UNL     1       0.979   7.632  21.337  0.00  0.00    +0.000 A 
ATOM      4  N   UNL     1       0.676   8.918  21.097  0.00  0.00    +0.000 NA
ATOM      5  C   UNL     1       1.098   9.313  19.883  0.00  0.00    +0.000 A 
ATOM      6  C   UNL     1       1.749   8.520  18.943  0.00  0.00    +0.000 A 
ATOM      7  C   UNL     1       1.969   9.337  17.800  0.00  0.00    +0.000 A 
ATOM      8  C   UNL     1       1.469  10.594  18.075  0.00  0.00    +0.000 A 
ATOM      9  N   UNL     1       0.984  10.583  19.363  0.00  0.00    +0.000 N 
ENDROOT
BRANCH   1  10
ATOM     10  O   UNL     1       2.723   6.357  18.493  0.00  0.00    +0.000 OA
BRANCH  10  14
ATOM     11  N   UNL     1       5.267   4.011  18.022  0.00  0.00    +0.000 NA
ATOM     12  C   UNL     1       4.998   4.611  19.332  0.00  0.00    +0.000 C 
ATOM     13  C   UNL     1       3.556   4.414  19.793  0.00  0.00    +0.000 C 
ATOM     14  C   UNL     1       2.563   4.952  18.759  0.00  0.00    +0.000 C 
ATOM     15  C   UNL     1       2.828   4.206  17.449  0.00  0.00    +0.000 C 
ATOM     16  C   UNL     1       4.283   4.366  16.990  0.00  0.00    +0.000 C 
BRANCH  11  17
ATOM     17  C   UNL     1       6.655   4.270  17.556  0.00  0.00    +0.000 C 
BRANCH  17  22
ATOM     18  C   UNL     1       8.692   9.637  18.327  0.00  0.00    +0.000 C 
ATOM     19  C   UNL     1       8.202   8.235  18.158  0.00  0.00    +0.000 A 
ATOM     20  C   UNL     1       8.445   7.256  19.118  0.00  0.00    +0.000 A 
ATOM     21  C   UNL     1       7.959   5.962  18.921  0.00  0.00    +0.000 A 
ATOM     22  C   UNL     1       7.229   5.671  17.769  0.00  0.00    +0.000 A 
ATOM     23  N   UNL     1       6.998   6.608  16.813  0.00  0.00    +0.000 NA
ATOM     24  C   UNL     1       7.484   7.856  17.029  0.00  0.00    +0.000 A 
ENDBRANCH  17  22
ENDBRANCH  11  17
ENDBRANCH  10  14
ENDBRANCH   1  10
BRANCH   9  25
ATOM     25  C   UNL     1       0.354  11.719  20.026  0.00  0.00    +0.000 C 
BRANCH  25  26
ATOM     26  C   UNL     1      -1.138  11.804  19.796  0.00  0.00    +0.000 A 
ATOM     27  C   UNL     1      -1.950  12.595  20.625  0.00  0.00    +0.000 A 
ATOM     28  C   UNL     1      -3.304  12.778  20.333  0.00  0.00    +0.000 A 
ATOM     29  C   UNL     1      -3.868  12.170  19.213  0.00  0.00    +0.000 A 
ATOM     30  C   UNL     1      -3.084  11.356  18.400  0.00  0.00    +0.000 A 
ATOM     31  C   UNL     1      -1.730  11.173  18.690  0.00  0.00    +0.000 A 
ENDBRANCH  25  26
ENDBRANCH   9  25
TORSDOF 6
ENDMDL
