MODEL 1
REMARK VINA RESULT:      -7.6      0.000      0.000
REMARK  Name = 
REMARK  11 active torsions:
REMARK  status: ('A' for Active; 'I' for Inactive)
REMARK    1  A    between atoms: CB_1  and  CA_2
REMARK    2  A    between atoms: CA_2  and  N_3
REMARK    3  A    between atoms: CA_2  and  C_18
REMARK    4  A    between atoms: C_4  and  C_6
REMARK    5  A    between atoms: C_6  and  C_7
REMARK    6  A    between atoms: C_6  and  C_14
REMARK    7  A    between atoms: C_7  and  C_8
REMARK    8  A    between atoms: N_16  and  O_17
REMARK    9  A    between atoms: N_20  and  CA_21
REMARK   10  A    between atoms: CA_21  and  C_22
REMARK   11  A    between atoms: C_22  and  OXT_24
REMARK                            x       y       z     vdW  Elec       q    Type
REMARK                         _______ _______ _______ _____ _____    ______ ____
ROOT
ATOM      1  N   ALA A   1       2.958   6.345  17.864  0.00  0.00    +0.000 N 
ATOM      2  C   UNK A   0       4.056   5.537  18.072  0.00  0.00    +0.000 C 
ATOM      3  O   UNK A   0       4.943   5.905  18.848  0.00  0.00    +0.000 OA
ATOM      4  H   ALA A   1       2.186   6.064  17.269  0.00  0.00    +0.000 HD
ENDROOT
BRANCH   1   6
ATOM      5  CB  ALA A   1       2.056   8.625  17.723  0.00  0.00    +0.000 C 
ATOM      6  CA  ALA A   1       2.777   7.610  18.604  0.00  0.00    +0.000 C 
BRANCH   6   7
ATOM      7  C   ALA A   1       1.972   7.411  19.909  0.00  0.00    +0.000 C 
ATOM      8  O   ALA A   1       1.858   6.313  20.457  0.00  0.00    +0.000 OA
ATOM      9  N   GLY A   2       1.346   8.543  20.387  0.00  0.00    +0.000 N 
ATOM     10  H   GLY A   2       1.500   9.451  19.954  0.00  0.00    +0.000 HD
BRANCH   9  11
ATOM     11  CA  GLY A   2       0.465   8.507  21.544  0.00  0.00    +0.000 C 
BRANCH  11  12
ATOM     12  C   GLY A   2       0.527   9.811  22.334  0.00  0.00    +0.000 C 
ATOM     13  O   GLY A   2       0.677  10.913  21.821  0.00  0.00    +0.000 OA
BRANCH  12  14
ATOM     14  OXT GLY A   2       0.390   9.644  23.670  0.00  0.00    +0.000 OA
ATOM     15  HXT GLY A   2       0.255  10.470  24.174  0.00  0.00    +0.000 HD
ENDBRANCH  12  14
ENDBRANCH  11  12
ENDBRANCH   9  11
ENDBRANCH   6   7
ENDBRANCH   1   6
BRANCH   2  16
ATOM     16  C   UNK A   0       4.231   4.263  17.225  0.00  0.00    +0.000 C 
BRANCH  16  17
ATOM     17  C   UNK A   0       5.614   4.158  16.550  0.00  0.00    +0.000 C 
ATOM     18  O   UNK A   0       5.783   4.080  15.330  0.00  0.00    +0.000 OA
ATOM     19  N   UNK A   0       6.710   4.286  17.374  0.00  0.00    +0.000 N 
ATOM     20  H   UNK A   0       6.644   3.990  18.352  0.00  0.00    +0.000 HD
BRANCH  19  21
ATOM     21  O   UNK A   0       7.960   4.058  16.740  0.00  0.00    +0.000 OA
ATOM     22  H   UNK A   0       7.780   3.255  16.202  0.00  0.00    +0.000 HD
ENDBRANCH  19  21
ENDBRANCH  16  17
BRANCH  16  23
ATOM     23  C   UNK A   0       3.843   2.919  17.886  0.00  0.00    +0.000 C 
BRANCH  23  24
ATOM     24  C   UNK A   0       2.928   3.047  19.084  0.00  0.00    +0.000 A 
ATOM     25  C   UNK A   0       3.415   2.912  20.386  0.00  0.00    +0.000 A 
ATOM     26  C   UNK A   0       2.538   2.789  21.461  0.00  0.00    +0.000 A 
ATOM     27  C   UNK A   0       1.164   2.850  21.253  0.00  0.00    +0.000 A 
ATOM     28  C   UNK A   0       0.667   3.093  19.976  0.00  0.00    +0.000 A 
ATOM     29  C   UNK A   0       1.544   3.202  18.897  0.00  0.00    +0.000 A 
ENDBRANCH  23  24
ENDBRANCH  16  23
ENDBRANCH   2  16
TORSDOF 10
ENDMDL
MODEL 2
REMARK VINA RESULT:      -7.6      3.747      7.115
REMARK  Name = 
REMARK  11 active torsions:
REMARK  status: ('A' for Active; 'I' for Inactive)
REMARK    1  A    between atoms: CB_1  and  CA_2
REMARK    2  A    between atoms: CA_2  and  N_3
REMARK    3  A    between atoms: CA_2  and  C_18
REMARK    4  A    between atoms: C_4  and  C_6
REMARK    5  A    between atoms: C_6  and  C_7
REMARK    6  A    between atoms: C_6  and  C_14
REMARK    7  A    between atoms: C_7  and  C_8
REMARK    8  A    between atoms: N_16  and  O_17
REMARK    9  A    between atoms: N_20  and  CA_21
REMARK   10  A    between atoms: CA_21  and  C_22
REMARK   11  A    between atoms: C_22  and  OXT_24
REMARK                            x       y       z     vdW  Elec       q    Type
REMARK                         _______ _______ _______ _____ _____    ______ ____
ROOT
ATOM      1  N   ALA A   1       5.314   4.050  15.998  0.00  0.00    +0.000 N 
ATOM      2  C   UNK A   0       4.218   4.385  16.766  0.00  0.00    +0.000 C 
ATOM      3  O   UNK A   0       4.102   5.540  17.186  0.00  0.00    +0.000 OA
ATOM      4  H   ALA A   1       5.429   3.126  15.597  0.00  0.00    +0.000 HD
ENDROOT
BRANCH   1   6
ATOM      5  CB  ALA A   1       7.456   5.080  16.617  0.00  0.00    +0.000 C 
ATOM      6  CA  ALA A   1       6.318   5.057  15.602  0.00  0.00    +0.000 C 
BRANCH   6   7
ATOM      7  C   ALA A   1       6.900   4.777  14.197  0.00  0.00    +0.000 C 
ATOM      8  O   ALA A   1       7.808   5.453  13.709  0.00  0.00    +0.000 OA
ATOM      9  N   GLY A   2       6.292   3.750  13.507  0.00  0.00    +0.000 N 
ATOM     10  H   GLY A   2       5.585   3.166  13.949  0.00  0.00    +0.000 HD
BRANCH   9  11
ATOM     11  CA  GLY A   2       6.648   3.425  12.135  0.00  0.00    +0.000 C 
BRANCH  11  12
ATOM     12  C   GLY A   2       5.661   2.438  11.519  0.00  0.00    +0.000 C 
ATOM     13  O   GLY A   2       5.954   1.293  11.194  0.00  0.00    +0.000 OA
BRANCH  12  14
ATOM     14  OXT GLY A   2       4.412   2.938  11.370  0.00  0.00    +0.000 OA
ATOM     15  HXT GLY A   2       4.256   3.791  11.819  0.00  0.00    +0.000 HD
ENDBRANCH  12  14
ENDBRANCH  11  12
ENDBRANCH   9  11
ENDBRANCH   6   7
ENDBRANCH   1   6
BRANCH   2  16
ATOM     16  C   UNK A   0       3.238   3.284  17.209  0.00  0.00    +0.000 C 
BRANCH  16  17
ATOM     17  C   UNK A   0       3.860   2.262  18.183  0.00  0.00    +0.000 C 
ATOM     18  O   UNK A   0       3.627   1.051  18.155  0.00  0.00    +0.000 OA
ATOM     19  N   UNK A   0       4.822   2.743  19.044  0.00  0.00    +0.000 N 
ATOM     20  H   UNK A   0       4.782   3.719  19.353  0.00  0.00    +0.000 HD
BRANCH  19  21
ATOM     21  O   UNK A   0       5.279   1.806  20.008  0.00  0.00    +0.000 OA
ATOM     22  H   UNK A   0       4.673   1.045  19.865  0.00  0.00    +0.000 HD
ENDBRANCH  19  21
ENDBRANCH  16  17
BRANCH  16  23
ATOM     23  C   UNK A   0       1.847   3.739  17.710  0.00  0.00    +0.000 C 
BRANCH  23  24
ATOM     24  C   UNK A   0       1.704   3.782  19.216  0.00  0.00    +0.000 A 
ATOM     25  C   UNK A   0       2.172   4.869  19.958  0.00  0.00    +0.000 A 
ATOM     26  C   UNK A   0       2.257   4.796  21.347  0.00  0.00    +0.000 A 
ATOM     27  C   UNK A   0       1.826   3.653  22.014  0.00  0.00    +0.000 A 
ATOM     28  C   UNK A   0       1.256   2.605  21.296  0.00  0.00    +0.000 A 
ATOM     29  C   UNK A   0       1.185   2.673  19.905  0.00  0.00    +0.000 A 
ENDBRANCH  23  24
ENDBRANCH  16  23
ENDBRANCH   2  16
TORSDOF 10
ENDMDL
MODEL 3
REMARK VINA RESULT:      -7.6      2.876      6.303
REMARK  Name = 
REMARK  11 active torsions:
REMARK  status: ('A' for Active; 'I' for Inactive)
REMARK    1  A    between atoms: CB_1  and  CA_2
REMARK    2  A    between atoms: CA_2  and  N_3
REMARK    3  A    between atoms: CA_2  and  C_18
REMARK    4  A    between atoms: C_4  and  C_6
REMARK    5  A    between atoms: C_6  and  C_7
REMARK    6  A    between atoms: C_6  and  C_14
REMARK    7  A    between atoms: C_7  and  C_8
REMARK    8  A    between atoms: N_16  and  O_17
REMARK    9  A    between atoms: N_20  and  CA_21
REMARK   10  A    between atoms: CA_21  and  C_22
REMARK   11  A    between atoms: C_22  and  OXT_24
REMARK                            x       y       z     vdW  Elec       q    Type
REMARK                         _______ _______ _______ _____ _____    ______ ____
ROOT
ATOM      1  N   ALA A   1       4.470   4.819  17.065  0.00  0.00    +0.000 N 
ATOM      2  C   UNK A   0       3.850   4.284  18.175  0.00  0.00    +0.000 C 
ATOM      3  O   UNK A   0       4.275   3.229  18.658  0.00  0.00    +0.000 OA
ATOM      4  H   ALA A   1       4.182   5.703  16.660  0.00  0.00    +0.000 HD
ENDROOT
BRANCH   1   6
ATOM      5  CB  ALA A   1       5.700   4.441  14.973  0.00  0.00    +0.000 C 
ATOM      6  CA  ALA A   1       5.676   4.201  16.480  0.00  0.00    +0.000 C 
BRANCH   6   7
ATOM      7  C   ALA A   1       6.977   4.762  17.101  0.00  0.00    +0.000 C 
ATOM      8  O   ALA A   1       8.063   4.191  16.991  0.00  0.00    +0.000 OA
ATOM      9  N   GLY A   2       6.822   5.919  17.834  0.00  0.00    +0.000 N 
ATOM     10  H   GLY A   2       5.929   6.407  17.865  0.00  0.00    +0.000 HD
BRANCH   9  11
ATOM     11  CA  GLY A   2       7.924   6.519  18.570  0.00  0.00    +0.000 C 
BRANCH  11  12
ATOM     12  C   GLY A   2       8.137   7.975  18.169  0.00  0.00    +0.000 C 
ATOM     13  O   GLY A   2       7.659   8.482  17.161  0.00  0.00    +0.000 OA
BRANCH  12  14
ATOM     14  OXT GLY A   2       8.903   8.673  19.040  0.00  0.00    +0.000 OA
ATOM     15  HXT GLY A   2       8.409   9.118  19.755  0.00  0.00    +0.000 HD
ENDBRANCH  12  14
ENDBRANCH  11  12
ENDBRANCH   9  11
ENDBRANCH   6   7
ENDBRANCH   1   6
BRANCH   2  16
ATOM     16  C   UNK A   0       2.555   4.927  18.704  0.00  0.00    +0.000 C 
BRANCH  16  17
ATOM     17  C   UNK A   0       1.486   3.898  19.126  0.00  0.00    +0.000 C 
ATOM     18  O   UNK A   0       0.759   4.023  20.116  0.00  0.00    +0.000 OA
ATOM     19  N   UNK A   0       1.267   2.850  18.258  0.00  0.00    +0.000 N 
ATOM     20  H   UNK A   0       2.034   2.513  17.670  0.00  0.00    +0.000 HD
BRANCH  19  21
ATOM     21  O   UNK A   0       0.371   1.860  18.737  0.00  0.00    +0.000 OA
ATOM     22  H   UNK A   0       0.912   1.395  19.415  0.00  0.00    +0.000 HD
ENDBRANCH  19  21
ENDBRANCH  16  17
BRANCH  16  23
ATOM     23  C   UNK A   0       2.704   6.030  19.778  0.00  0.00    +0.000 C 
BRANCH  23  24
ATOM     24  C   UNK A   0       2.072   7.355  19.411  0.00  0.00    +0.000 A 
ATOM     25  C   UNK A   0       2.228   7.905  18.136  0.00  0.00    +0.000 A 
ATOM     26  C   UNK A   0       1.854   9.222  17.882  0.00  0.00    +0.000 A 
ATOM     27  C   UNK A   0       1.273   9.990  18.886  0.00  0.00    +0.000 A 
ATOM     28  C   UNK A   0       1.012   9.422  20.130  0.00  0.00    +0.000 A 
ATOM     29  C   UNK A   0       1.399   8.107  20.389  0.00  0.00    +0.000 A 
ENDBRANCH  23  24
ENDBRANCH  16  23
ENDBRANCH   2  16
TORSDOF 10
ENDMDL
MODEL 4
REMARK VINA RESULT:      -7.3      3.071      5.896
REMARK  Name = 
REMARK  11 active torsions:
REMARK  status: ('A' for Active; 'I' for Inactive)
REMARK    1  A    between atoms: CB_1  and  CA_2
REMARK    2  A    between atoms: CA_2  and  N_3
REMARK    3  A    between atoms: CA_2  and  C_18
REMARK    4  A    between atoms: C_4  and  C_6
REMARK    5  A    between atoms: C_6  and  C_7
REMARK    6  A    between atoms: C_6  and  C_14
REMARK    7  A    between atoms: C_7  and  C_8
REMARK    8  A    between atoms: N_16  and  O_17
REMARK    9  A    between atoms: N_20  and  CA_21
REMARK   10  A    between atoms: CA_21  and  C_22
REMARK   11  A    between atoms: C_22  and  OXT_24
REMARK                            x       y       z     vdW  Elec       q    Type
REMARK                         _______ _______ _______ _____ _____    ______ ____
ROOT
ATOM      1  N   ALA A   1       4.540   5.129  17.577  0.00  0.00    +0.000 N 
ATOM      2  C   UNK A   0       5.282   6.137  16.998  0.00  0.00    +0.000 C 
ATOM      3  O   UNK A   0       4.702   7.105  16.495  0.00  0.00    +0.000 OA
ATOM      4  H   ALA A   1       4.974   4.337  18.039  0.00  0.00    +0.000 HD
ENDROOT
BRANCH   1   6
ATOM      5  CB  ALA A   1       2.442   3.935  17.124  0.00  0.00    +0.000 C 
ATOM      6  CA  ALA A   1       3.070   5.210  17.679  0.00  0.00    +0.000 C 
BRANCH   6   7
ATOM      7  C   ALA A   1       2.597   5.413  19.137  0.00  0.00    +0.000 C 
ATOM      8  O   ALA A   1       2.365   6.528  19.610  0.00  0.00    +0.000 OA
ATOM      9  N   GLY A   2       2.506   4.260  19.887  0.00  0.00    +0.000 N 
ATOM     10  H   GLY A   2       2.644   3.345  19.464  0.00  0.00    +0.000 HD
BRANCH   9  11
ATOM     11  CA  GLY A   2       2.177   4.286  21.304  0.00  0.00    +0.000 C 
BRANCH  11  12
ATOM     12  C   GLY A   2       2.122   2.878  21.891  0.00  0.00    +0.000 C 
ATOM     13  O   GLY A   2       3.101   2.150  22.010  0.00  0.00    +0.000 OA
BRANCH  12  14
ATOM     14  OXT GLY A   2       0.883   2.500  22.283  0.00  0.00    +0.000 OA
ATOM     15  HXT GLY A   2       0.809   1.567  22.561  0.00  0.00    +0.000 HD
ENDBRANCH  12  14
ENDBRANCH  11  12
ENDBRANCH   9  11
ENDBRANCH   6   7
ENDBRANCH   1   6
BRANCH   2  16
ATOM     16  C   UNK A   0       6.806   5.972  16.855  0.00  0.00    +0.000 C 
BRANCH  16  17
ATOM     17  C   UNK A   0       7.577   6.225  18.167  0.00  0.00    +0.000 C 
ATOM     18  O   UNK A   0       8.105   7.302  18.461  0.00  0.00    +0.000 OA
ATOM     19  N   UNK A   0       7.554   5.210  19.098  0.00  0.00    +0.000 N 
ATOM     20  H   UNK A   0       7.470   4.239  18.785  0.00  0.00    +0.000 HD
BRANCH  19  21
ATOM     21  O   UNK A   0       8.377   5.428  20.234  0.00  0.00    +0.000 OA
ATOM     22  H   UNK A   0       8.505   4.515  20.579  0.00  0.00    +0.000 HD
ENDBRANCH  19  21
ENDBRANCH  16  17
BRANCH  16  23
ATOM     23  C   UNK A   0       7.313   4.685  16.164  0.00  0.00    +0.000 C 
BRANCH  23  24
ATOM     24  C   UNK A   0       7.029   4.614  14.679  0.00  0.00    +0.000 A 
ATOM     25  C   UNK A   0       6.047   3.760  14.169  0.00  0.00    +0.000 A 
ATOM     26  C   UNK A   0       5.959   3.522  12.799  0.00  0.00    +0.000 A 
ATOM     27  C   UNK A   0       6.817   4.173  11.919  0.00  0.00    +0.000 A 
ATOM     28  C   UNK A   0       7.727   5.108  12.403  0.00  0.00    +0.000 A 
ATOM     29  C   UNK A   0       7.826   5.336  13.775  0.00  0.00    +0.000 A 
ENDBRANCH  23  24
ENDBRANCH  16  23
ENDBRANCH   2  16
TORSDOF 10
ENDMDL
MODEL 5
REMARK VINA RESULT:      -7.3      3.320      6.983
REMARK  Name = 
REMARK  11 active torsions:
REMARK  status: ('A' for Active; 'I' for Inactive)
REMARK    1  A    between atoms: CB_1  and  CA_2
REMARK    2  A    between atoms: CA_2  and  N_3
REMARK    3  A    between atoms: CA_2  and  C_18
REMARK    4  A    between atoms: C_4  and  C_6
REMARK    5  A    between atoms: C_6  and  C_7
REMARK    6  A    between atoms: C_6  and  C_14
REMARK    7  A    between atoms: C_7  and  C_8
REMARK    8  A    between atoms: N_16  and  O_17
REMARK    9  A    between atoms: N_20  and  CA_21
REMARK   10  A    between atoms: CA_21  and  C_22
REMARK   11  A    between atoms: C_22  and  OXT_24
REMARK                            x       y       z     vdW  Elec       q    Type
REMARK                         _______ _______ _______ _____ _____    ______ ____
ROOT
ATOM      1  N   ALA A   1       5.479   5.751  18.338  0.00  0.00    +0.000 N 
ATOM      2  C   UNK A   0       4.387   6.239  17.651  0.00  0.00    +0.000 C 
ATOM      3  O   UNK A   0       4.561   7.018  16.709  0.00  0.00    +0.000 OA
ATOM      4  H   ALA A   1       5.386   5.077  19.090  0.00  0.00    +0.000 HD
ENDROOT
BRANCH   1   6
ATOM      5  CB  ALA A   1       7.806   5.893  19.110  0.00  0.00    +0.000 C 
ATOM      6  CA  ALA A   1       6.860   6.077  17.928  0.00  0.00    +0.000 C 
BRANCH   6   7
ATOM      7  C   ALA A   1       7.342   5.196  16.753  0.00  0.00    +0.000 C 
ATOM      8  O   ALA A   1       8.054   4.203  16.917  0.00  0.00    +0.000 OA
ATOM      9  N   GLY A   2       6.963   5.633  15.502  0.00  0.00    +0.000 N 
ATOM     10  H   GLY A   2       6.327   6.420  15.390  0.00  0.00    +0.000 HD
BRANCH   9  11
ATOM     11  CA  GLY A   2       7.419   4.980  14.285  0.00  0.00    +0.000 C 
BRANCH  11  12
ATOM     12  C   GLY A   2       6.445   3.895  13.834  0.00  0.00    +0.000 C 
ATOM     13  O   GLY A   2       6.153   3.685  12.662  0.00  0.00    +0.000 OA
BRANCH  12  14
ATOM     14  OXT GLY A   2       5.932   3.166  14.853  0.00  0.00    +0.000 OA
ATOM     15  HXT GLY A   2       6.564   2.962  15.568  0.00  0.00    +0.000 HD
ENDBRANCH  12  14
ENDBRANCH  11  12
ENDBRANCH   9  11
ENDBRANCH   6   7
ENDBRANCH   1   6
BRANCH   2  16
ATOM     16  C   UNK A   0       2.968   5.925  18.161  0.00  0.00    +0.000 C 
BRANCH  16  17
ATOM     17  C   UNK A   0       2.548   4.456  17.944  0.00  0.00    +0.000 C 
ATOM     18  O   UNK A   0       3.250   3.613  17.379  0.00  0.00    +0.000 OA
ATOM     19  N   UNK A   0       1.367   4.063  18.534  0.00  0.00    +0.000 N 
ATOM     20  H   UNK A   0       0.619   4.748  18.673  0.00  0.00    +0.000 HD
BRANCH  19  21
ATOM     21  O   UNK A   0       0.950   2.746  18.208  0.00  0.00    +0.000 OA
ATOM     22  H   UNK A   0       1.801   2.304  17.988  0.00  0.00    +0.000 HD
ENDBRANCH  19  21
ENDBRANCH  16  17
BRANCH  16  23
ATOM     23  C   UNK A   0       2.617   6.387  19.594  0.00  0.00    +0.000 C 
BRANCH  23  24
ATOM     24  C   UNK A   0       1.962   7.749  19.674  0.00  0.00    +0.000 A 
ATOM     25  C   UNK A   0       1.355   8.192  20.852  0.00  0.00    +0.000 A 
ATOM     26  C   UNK A   0       0.551   9.330  20.849  0.00  0.00    +0.000 A 
ATOM     27  C   UNK A   0       0.386  10.066  19.680  0.00  0.00    +0.000 A 
ATOM     28  C   UNK A   0       1.072   9.698  18.526  0.00  0.00    +0.000 A 
ATOM     29  C   UNK A   0       1.865   8.551  18.525  0.00  0.00    +0.000 A 
ENDBRANCH  23  24
ENDBRANCH  16  23
ENDBRANCH   2  16
TORSDOF 10
ENDMDL
MODEL 6
REMARK VINA RESULT:      -7.3      3.459      6.927
REMARK  Name = 
REMARK  11 active torsions:
REMARK  status: ('A' for Active; 'I' for Inactive)
REMARK    1  A    between atoms: CB_1  and  CA_2
REMARK    2  A    between atoms: CA_2  and  N_3
REMARK    3  A    between atoms: CA_2  and  C_18
REMARK    4  A    between atoms: C_4  and  C_6
REMARK    5  A    between atoms: C_6  and  C_7
REMARK    6  A    between atoms: C_6  and  C_14
REMARK    7  A    between atoms: C_7  and  C_8
REMARK    8  A    between atoms: N_16  and  O_17
REMARK    9  A    between atoms: N_20  and  CA_21
REMARK   10  A    between atoms: CA_21  and  C_22
REMARK   11  A    between atoms: C_22  and  OXT_24
REMARK                            x       y       z     vdW  Elec       q    Type
REMARK                         _______ _______ _______ _____ _____    ______ ____
ROOT
ATOM      1  N   ALA A   1       5.376   4.074  17.464  0.00  0.00    +0.000 N 
ATOM      2  C   UNK A   0       5.016   3.908  18.785  0.00  0.00    +0.000 C 
ATOM      3  O   UNK A   0       5.626   4.525  19.663  0.00  0.00    +0.000 OA
ATOM      4  H   ALA A   1       4.876   3.620  16.707  0.00  0.00    +0.000 HD
ENDROOT
BRANCH   1   6
ATOM      5  CB  ALA A   1       7.802   4.450  17.380  0.00  0.00    +0.000 C 
ATOM      6  CA  ALA A   1       6.427   5.030  17.063  0.00  0.00    +0.000 C 
BRANCH   6   7
ATOM      7  C   ALA A   1       6.358   5.373  15.557  0.00  0.00    +0.000 C 
ATOM      8  O   ALA A   1       5.555   6.188  15.099  0.00  0.00    +0.000 OA
ATOM      9  N   GLY A   2       7.224   4.660  14.756  0.00  0.00    +0.000 N 
ATOM     10  H   GLY A   2       7.920   4.035  15.159  0.00  0.00    +0.000 HD
BRANCH   9  11
ATOM     11  CA  GLY A   2       7.215   4.786  13.307  0.00  0.00    +0.000 C 
BRANCH  11  12
ATOM     12  C   GLY A   2       6.338   3.718  12.659  0.00  0.00    +0.000 C 
ATOM     13  O   GLY A   2       6.767   2.839  11.921  0.00  0.00    +0.000 OA
BRANCH  12  14
ATOM     14  OXT GLY A   2       5.028   3.820  12.982  0.00  0.00    +0.000 OA
ATOM     15  HXT GLY A   2       4.853   4.113  13.897  0.00  0.00    +0.000 HD
ENDBRANCH  12  14
ENDBRANCH  11  12
ENDBRANCH   9  11
ENDBRANCH   6   7
ENDBRANCH   1   6
BRANCH   2  16
ATOM     16  C   UNK A   0       3.962   2.847  19.156  0.00  0.00    +0.000 C 
BRANCH  16  17
ATOM     17  C   UNK A   0       4.204   2.196  20.533  0.00  0.00    +0.000 C 
ATOM     18  O   UNK A   0       3.407   2.253  21.473  0.00  0.00    +0.000 OA
ATOM     19  N   UNK A   0       5.328   1.408  20.650  0.00  0.00    +0.000 N 
ATOM     20  H   UNK A   0       6.153   1.617  20.081  0.00  0.00    +0.000 HD
BRANCH  19  21
ATOM     21  O   UNK A   0       5.585   0.931  21.962  0.00  0.00    +0.000 OA
ATOM     22  H   UNK A   0       6.567   0.962  22.010  0.00  0.00    +0.000 HD
ENDBRANCH  19  21
ENDBRANCH  16  17
BRANCH  16  23
ATOM     23  C   UNK A   0       2.477   3.244  18.993  0.00  0.00    +0.000 C 
BRANCH  23  24
ATOM     24  C   UNK A   0       2.199   4.724  19.144  0.00  0.00    +0.000 A 
ATOM     25  C   UNK A   0       2.318   5.598  18.061  0.00  0.00    +0.000 A 
ATOM     26  C   UNK A   0       2.300   6.977  18.258  0.00  0.00    +0.000 A 
ATOM     27  C   UNK A   0       2.111   7.498  19.534  0.00  0.00    +0.000 A 
ATOM     28  C   UNK A   0       1.883   6.640  20.606  0.00  0.00    +0.000 A 
ATOM     29  C   UNK A   0       1.916   5.260  20.411  0.00  0.00    +0.000 A 
ENDBRANCH  23  24
ENDBRANCH  16  23
ENDBRANCH   2  16
TORSDOF 10
ENDMDL
MODEL 7
REMARK VINA RESULT:      -7.2      0.879      1.494
REMARK  Name = 
REMARK  11 active torsions:
REMARK  status: ('A' for Active; 'I' for Inactive)
REMARK    1  A    between atoms: CB_1  and  CA_2
REMARK    2  A    between atoms: CA_2  and  N_3
REMARK    3  A    between atoms: CA_2  and  C_18
REMARK    4  A    between atoms: C_4  and  C_6
REMARK    5  A    between atoms: C_6  and  C_7
REMARK    6  A    between atoms: C_6  and  C_14
REMARK    7  A    between atoms: C_7  and  C_8
REMARK    8  A    between atoms: N_16  and  O_17
REMARK    9  A    between atoms: N_20  and  CA_21
REMARK   10  A    between atoms: CA_21  and  C_22
REMARK   11  A    between atoms: C_22  and  OXT_24
REMARK                            x       y       z     vdW  Elec       q    Type
REMARK                         _______ _______ _______ _____ _____    ______ ____
ROOT
ATOM      1  N   ALA A   1       2.988   6.283  17.896  0.00  0.00    +0.000 N 
ATOM      2  C   UNK A   0       4.093   5.474  18.063  0.00  0.00    +0.000 C 
ATOM      3  O   UNK A   0       5.005   5.838  18.812  0.00  0.00    +0.000 OA
ATOM      4  H   ALA A   1       2.198   6.006  17.324  0.00  0.00    +0.000 HD
ENDROOT
BRANCH   1   6
ATOM      5  CB  ALA A   1       2.183   8.599  17.761  0.00  0.00    +0.000 C 
ATOM      6  CA  ALA A   1       2.831   7.542  18.650  0.00  0.00    +0.000 C 
BRANCH   6   7
ATOM      7  C   ALA A   1       1.972   7.356  19.922  0.00  0.00    +0.000 C 
ATOM      8  O   ALA A   1       1.825   6.261  20.468  0.00  0.00    +0.000 OA
ATOM      9  N   GLY A   2       1.337   8.494  20.370  0.00  0.00    +0.000 N 
ATOM     10  H   GLY A   2       1.517   9.400  19.941  0.00  0.00    +0.000 HD
BRANCH   9  11
ATOM     11  CA  GLY A   2       0.409   8.471  21.490  0.00  0.00    +0.000 C 
BRANCH  11  12
ATOM     12  C   GLY A   2       0.912   9.325  22.650  0.00  0.00    +0.000 C 
ATOM     13  O   GLY A   2       0.178   9.961  23.397  0.00  0.00    +0.000 OA
BRANCH  12  14
ATOM     14  OXT GLY A   2       2.258   9.313  22.792  0.00  0.00    +0.000 OA
ATOM     15  HXT GLY A   2       2.708   8.558  22.366  0.00  0.00    +0.000 HD
ENDBRANCH  12  14
ENDBRANCH  11  12
ENDBRANCH   9  11
ENDBRANCH   6   7
ENDBRANCH   1   6
BRANCH   2  16
ATOM     16  C   UNK A   0       4.241   4.206  17.201  0.00  0.00    +0.000 C 
BRANCH  16  17
ATOM     17  C   UNK A   0       5.449   4.252  16.242  0.00  0.00    +0.000 C 
ATOM     18  O   UNK A   0       6.619   4.079  16.596  0.00  0.00    +0.000 OA
ATOM     19  N   UNK A   0       5.162   4.372  14.900  0.00  0.00    +0.000 N 
ATOM     20  H   UNK A   0       4.313   4.863  14.607  0.00  0.00    +0.000 HD
BRANCH  19  21
ATOM     21  O   UNK A   0       6.297   4.538  14.063  0.00  0.00    +0.000 OA
ATOM     22  H   UNK A   0       6.358   5.516  13.983  0.00  0.00    +0.000 HD
ENDBRANCH  19  21
ENDBRANCH  16  17
BRANCH  16  23
ATOM     23  C   UNK A   0       4.177   2.846  17.934  0.00  0.00    +0.000 C 
BRANCH  23  24
ATOM     24  C   UNK A   0       3.088   2.744  18.979  0.00  0.00    +0.000 A 
ATOM     25  C   UNK A   0       1.737   2.819  18.628  0.00  0.00    +0.000 A 
ATOM     26  C   UNK A   0       0.758   2.968  19.608  0.00  0.00    +0.000 A 
ATOM     27  C   UNK A   0       1.113   2.993  20.953  0.00  0.00    +0.000 A 
ATOM     28  C   UNK A   0       2.443   2.809  21.322  0.00  0.00    +0.000 A 
ATOM     29  C   UNK A   0       3.424   2.675  20.341  0.00  0.00    +0.000 A 
ENDBRANCH  23  24
ENDBRANCH  16  23
ENDBRANCH   2  16
TORSDOF 10
ENDMDL
MODEL 8
REMARK VINA RESULT:      -7.2      0.925      1.111
REMARK  Name = 
REMARK  11 active torsions:
REMARK  status: ('A' for Active; 'I' for Inactive)
REMARK    1  A    between atoms: CB_1  and  CA_2
REMARK    2  A    between atoms: CA_2  and  N_3
REMARK    3  A    between atoms: CA_2  and  C_18
REMARK    4  A    between atoms: C_4  and  C_6
REMARK    5  A    between atoms: C_6  and  C_7
REMARK    6  A    between atoms: C_6  and  C_14
REMARK    7  A    between atoms: C_7  and  C_8
REMARK    8  A    between atoms: N_16  and  O_17
REMARK    9  A    between atoms: N_20  and  CA_21
REMARK   10  A    between atoms: CA_21  and  C_22
REMARK   11  A    between atoms: C_22  and  OXT_24
REMARK                            x       y       z     vdW  Elec       q    Type
REMARK                         _______ _______ _______ _____ _____    ______ ____
ROOT
ATOM      1  N   ALA A   1       2.920   6.559  17.781  0.00  0.00    +0.000 N 
ATOM      2  C   UNK A   0       4.076   5.812  17.859  0.00  0.00    +0.000 C 
ATOM      3  O   UNK A   0       5.006   6.204  18.571  0.00  0.00    +0.000 OA
ATOM      4  H   ALA A   1       2.116   6.255  17.242  0.00  0.00    +0.000 HD
ENDROOT
BRANCH   1   6
ATOM      5  CB  ALA A   1       2.009   8.840  17.761  0.00  0.00    +0.000 C 
ATOM      6  CA  ALA A   1       2.732   7.781  18.587  0.00  0.00    +0.000 C 
BRANCH   6   7
ATOM      7  C   ALA A   1       1.925   7.510  19.878  0.00  0.00    +0.000 C 
ATOM      8  O   ALA A   1       1.844   6.389  20.386  0.00  0.00    +0.000 OA
ATOM      9  N   GLY A   2       1.258   8.601  20.390  0.00  0.00    +0.000 N 
ATOM     10  H   GLY A   2       1.384   9.530  19.991  0.00  0.00    +0.000 HD
BRANCH   9  11
ATOM     11  CA  GLY A   2       0.370   8.495  21.537  0.00  0.00    +0.000 C 
BRANCH  11  12
ATOM     12  C   GLY A   2       0.871   9.331  22.711  0.00  0.00    +0.000 C 
ATOM     13  O   GLY A   2       0.136   9.959  23.465  0.00  0.00    +0.000 OA
BRANCH  12  14
ATOM     14  OXT GLY A   2       2.217   9.313  22.858  0.00  0.00    +0.000 OA
ATOM     15  HXT GLY A   2       2.528   9.320  23.783  0.00  0.00    +0.000 HD
ENDBRANCH  12  14
ENDBRANCH  11  12
ENDBRANCH   9  11
ENDBRANCH   6   7
ENDBRANCH   1   6
BRANCH   2  16
ATOM     16  C   UNK A   0       4.249   4.584  16.946  0.00  0.00    +0.000 C 
BRANCH  16  17
ATOM     17  C   UNK A   0       5.576   4.584  16.159  0.00  0.00    +0.000 C 
ATOM     18  O   UNK A   0       6.594   3.990  16.523  0.00  0.00    +0.000 OA
ATOM     19  N   UNK A   0       5.555   5.190  14.922  0.00  0.00    +0.000 N 
ATOM     20  H   UNK A   0       4.910   5.965  14.749  0.00  0.00    +0.000 HD
BRANCH  19  21
ATOM     21  O   UNK A   0       6.821   5.282  14.285  0.00  0.00    +0.000 OA
ATOM     22  H   UNK A   0       6.633   5.884  13.529  0.00  0.00    +0.000 HD
ENDBRANCH  19  21
ENDBRANCH  16  17
BRANCH  16  23
ATOM     23  C   UNK A   0       3.987   3.196  17.575  0.00  0.00    +0.000 C 
BRANCH  23  24
ATOM     24  C   UNK A   0       3.044   3.208  18.758  0.00  0.00    +0.000 A 
ATOM     25  C   UNK A   0       3.520   3.084  20.066  0.00  0.00    +0.000 A 
ATOM     26  C   UNK A   0       2.641   2.853  21.121  0.00  0.00    +0.000 A 
ATOM     27  C   UNK A   0       1.270   2.794  20.889  0.00  0.00    +0.000 A 
ATOM     28  C   UNK A   0       0.774   3.024  19.609  0.00  0.00    +0.000 A 
ATOM     29  C   UNK A   0       1.656   3.241  18.550  0.00  0.00    +0.000 A 
ENDBRANCH  23  24
ENDBRANCH  16  23
ENDBRANCH   2  16
TORSDOF 10
ENDMDL
MODEL 9
REMARK VINA RESULT:      -7.2      3.264      7.070
REMARK  Name = 
REMARK  11 active torsions:
REMARK  status: ('A' for Active; 'I' for Inactive)
REMARK    1  A    between atoms: CB_1  and  CA_2
REMARK    2  A    between atoms: CA_2  and  N_3
REMARK    3  A    between atoms: CA_2  and  C_18
REMARK    4  A    between atoms: C_4  and  C_6
REMARK    5  A    between atoms: C_6  and  C_7
REMARK    6  A    between atoms: C_6  and  C_14
REMARK    7  A    between atoms: C_7  and  C_8
REMARK    8  A    between atoms: N_16  and  O_17
REMARK    9  A    between atoms: N_20  and  CA_21
REMARK   10  A    between atoms: CA_21  and  C_22
REMARK   11  A    between atoms: C_22  and  OXT_24
REMARK                            x       y       z     vdW  Elec       q    Type
REMARK                         _______ _______ _______ _____ _____    ______ ____
ROOT
ATOM      1  N   ALA A   1       5.559   5.776  18.390  0.00  0.00    +0.000 N 
ATOM      2  C   UNK A   0       4.437   6.186  17.702  0.00  0.00    +0.000 C 
ATOM      3  O   UNK A   0       4.565   6.897  16.700  0.00  0.00    +0.000 OA
ATOM      4  H   ALA A   1       5.504   5.159  19.193  0.00  0.00    +0.000 HD
ENDROOT
BRANCH   1   6
ATOM      5  CB  ALA A   1       7.910   5.982  19.072  0.00  0.00    +0.000 C 
ATOM      6  CA  ALA A   1       6.919   6.103  17.918  0.00  0.00    +0.000 C 
BRANCH   6   7
ATOM      7  C   ALA A   1       7.372   5.178  16.764  0.00  0.00    +0.000 C 
ATOM      8  O   ALA A   1       8.049   4.165  16.953  0.00  0.00    +0.000 OA
ATOM      9  N   GLY A   2       7.011   5.599  15.503  0.00  0.00    +0.000 N 
ATOM     10  H   GLY A   2       6.403   6.406  15.371  0.00  0.00    +0.000 HD
BRANCH   9  11
ATOM     11  CA  GLY A   2       7.446   4.903  14.302  0.00  0.00    +0.000 C 
BRANCH  11  12
ATOM     12  C   GLY A   2       6.307   4.106  13.674  0.00  0.00    +0.000 C 
ATOM     13  O   GLY A   2       6.424   3.435  12.655  0.00  0.00    +0.000 OA
BRANCH  12  14
ATOM     14  OXT GLY A   2       5.139   4.198  14.352  0.00  0.00    +0.000 OA
ATOM     15  HXT GLY A   2       4.389   3.728  13.941  0.00  0.00    +0.000 HD
ENDBRANCH  12  14
ENDBRANCH  11  12
ENDBRANCH   9  11
ENDBRANCH   6   7
ENDBRANCH   1   6
BRANCH   2  16
ATOM     16  C   UNK A   0       3.041   5.879  18.274  0.00  0.00    +0.000 C 
BRANCH  16  17
ATOM     17  C   UNK A   0       2.712   4.372  18.317  0.00  0.00    +0.000 C 
ATOM     18  O   UNK A   0       3.536   3.493  18.584  0.00  0.00    +0.000 OA
ATOM     19  N   UNK A   0       1.387   4.029  18.164  0.00  0.00    +0.000 N 
ATOM     20  H   UNK A   0       0.771   4.626  17.605  0.00  0.00    +0.000 HD
BRANCH  19  21
ATOM     21  O   UNK A   0       1.140   2.634  18.081  0.00  0.00    +0.000 OA
ATOM     22  H   UNK A   0       0.162   2.587  18.174  0.00  0.00    +0.000 HD
ENDBRANCH  19  21
ENDBRANCH  16  17
BRANCH  16  23
ATOM     23  C   UNK A   0       2.663   6.557  19.611  0.00  0.00    +0.000 C 
BRANCH  23  24
ATOM     24  C   UNK A   0       1.911   7.862  19.465  0.00  0.00    +0.000 A 
ATOM     25  C   UNK A   0       1.889   8.554  18.251  0.00  0.00    +0.000 A 
ATOM     26  C   UNK A   0       1.405   9.859  18.189  0.00  0.00    +0.000 A 
ATOM     27  C   UNK A   0       0.891  10.469  19.328  0.00  0.00    +0.000 A 
ATOM     28  C   UNK A   0       0.806   9.754  20.519  0.00  0.00    +0.000 A 
ATOM     29  C   UNK A   0       1.304   8.453  20.586  0.00  0.00    +0.000 A 
ENDBRANCH  23  24
ENDBRANCH  16  23
ENDBRANCH   2  16
TORSDOF 10
ENDMDL
