MODEL 1
REMARK VINA RESULT:      -6.7      0.000      0.000
REMARK  Name = 
REMARK  1 active torsions:
REMARK  status: ('A' for Active; 'I' for Inactive)
REMARK    1  A    between atoms: C_9  and  C_10
REMARK                            x       y       z     vdW  Elec       q    Type
REMARK                         _______ _______ _______ _____ _____    ______ ____
ROOT
ATOM      1 CL   UNL     1       3.720   1.572  18.102  0.00  0.00    +0.000 Cl
ATOM      2  C   UNL     1       2.625   2.656  18.817  0.00  0.00    +0.000 A 
ATOM      3  N   UNL     1       1.557   2.083  19.399  0.00  0.00    +0.000 NA
ATOM      4  C   UNL     1       0.737   2.879  20.085  0.00  0.00    +0.000 A 
ATOM      5  N   UNL     1       0.880   4.185  20.281  0.00  0.00    +0.000 NA
ATOM      6  C   UNL     1       1.955   4.707  19.669  0.00  0.00    +0.000 A 
ATOM      7  S   UNL     1       2.305   6.357  19.858  0.00  0.00    +0.000 S 
ATOM      8  C   UNL     1       3.652   6.244  18.827  0.00  0.00    +0.000 A 
ATOM      9  C   UNL     1       3.869   4.964  18.337  0.00  0.00    +0.000 A 
ATOM     10  C   UNL     1       2.884   4.030  18.877  0.00  0.00    +0.000 A 
ENDROOT
BRANCH   9  11
ATOM     11  C   UNL     1       4.962   4.754  17.374  0.00  0.00    +0.000 A 
ATOM     12  C   UNL     1       4.689   4.447  16.029  0.00  0.00    +0.000 A 
ATOM     13  C   UNL     1       5.724   4.210  15.118  0.00  0.00    +0.000 A 
ATOM     14  C   UNL     1       7.050   4.307  15.530  0.00  0.00    +0.000 A 
ATOM     15  C   UNL     1       7.338   4.598  16.860  0.00  0.00    +0.000 A 
ATOM     16  C   UNL     1       6.301   4.784  17.782  0.00  0.00    +0.000 A 
ENDBRANCH   9  11
TORSDOF 1
ENDMDL
MODEL 2
REMARK VINA RESULT:      -6.7      0.066      1.204
REMARK  Name = 
REMARK  1 active torsions:
REMARK  status: ('A' for Active; 'I' for Inactive)
REMARK    1  A    between atoms: C_9  and  C_10
REMARK                            x       y       z     vdW  Elec       q    Type
REMARK                         _______ _______ _______ _____ _____    ______ ____
ROOT
ATOM      1 CL   UNL     1       3.717   1.540  18.164  0.00  0.00    +0.000 Cl
ATOM      2  C   UNL     1       2.637   2.643  18.871  0.00  0.00    +0.000 A 
ATOM      3  N   UNL     1       1.580   2.087  19.487  0.00  0.00    +0.000 NA
ATOM      4  C   UNL     1       0.772   2.902  20.167  0.00  0.00    +0.000 A 
ATOM      5  N   UNL     1       0.919   4.212  20.325  0.00  0.00    +0.000 NA
ATOM      6  C   UNL     1       1.984   4.717  19.680  0.00  0.00    +0.000 A 
ATOM      7  S   UNL     1       2.338   6.371  19.820  0.00  0.00    +0.000 S 
ATOM      8  C   UNL     1       3.666   6.229  18.768  0.00  0.00    +0.000 A 
ATOM      9  C   UNL     1       3.874   4.936  18.308  0.00  0.00    +0.000 A 
ATOM     10  C   UNL     1       2.898   4.018  18.890  0.00  0.00    +0.000 A 
ENDROOT
BRANCH   9  11
ATOM     11  C   UNL     1       4.948   4.700  17.331  0.00  0.00    +0.000 A 
ATOM     12  C   UNL     1       6.300   4.774  17.714  0.00  0.00    +0.000 A 
ATOM     13  C   UNL     1       7.325   4.587  16.781  0.00  0.00    +0.000 A 
ATOM     14  C   UNL     1       7.017   4.291  15.456  0.00  0.00    +0.000 A 
ATOM     15  C   UNL     1       5.685   4.225  15.059  0.00  0.00    +0.000 A 
ATOM     16  C   UNL     1       4.660   4.463  15.982  0.00  0.00    +0.000 A 
ENDBRANCH   9  11
TORSDOF 1
ENDMDL
MODEL 3
REMARK VINA RESULT:      -6.7      3.072      5.314
REMARK  Name = 
REMARK  1 active torsions:
REMARK  status: ('A' for Active; 'I' for Inactive)
REMARK    1  A    between atoms: C_9  and  C_10
REMARK                            x       y       z     vdW  Elec       q    Type
REMARK                         _______ _______ _______ _____ _____    ______ ____
ROOT
ATOM      1 CL   UNL     1       3.210   3.643  16.351  0.00  0.00    +0.000 Cl
ATOM      2  C   UNL     1       4.862   4.036  16.319  0.00  0.00    +0.000 A 
ATOM      3  N   UNL     1       5.454   3.904  15.120  0.00  0.00    +0.000 NA
ATOM      4  C   UNL     1       6.716   4.322  15.014  0.00  0.00    +0.000 A 
ATOM      5  N   UNL     1       7.446   4.888  15.968  0.00  0.00    +0.000 NA
ATOM      6  C   UNL     1       6.810   4.985  17.147  0.00  0.00    +0.000 A 
ATOM      7  S   UNL     1       7.591   5.728  18.458  0.00  0.00    +0.000 S 
ATOM      8  C   UNL     1       6.269   5.427  19.484  0.00  0.00    +0.000 A 
ATOM      9  C   UNL     1       5.215   4.780  18.855  0.00  0.00    +0.000 A 
ATOM     10  C   UNL     1       5.515   4.556  17.442  0.00  0.00    +0.000 A 
ENDROOT
BRANCH   9  11
ATOM     11  C   UNL     1       4.042   4.398  19.657  0.00  0.00    +0.000 A 
ATOM     12  C   UNL     1       3.859   3.069  20.080  0.00  0.00    +0.000 A 
ATOM     13  C   UNL     1       2.727   2.693  20.811  0.00  0.00    +0.000 A 
ATOM     14  C   UNL     1       1.776   3.647  21.160  0.00  0.00    +0.000 A 
ATOM     15  C   UNL     1       1.936   4.964  20.741  0.00  0.00    +0.000 A 
ATOM     16  C   UNL     1       3.043   5.328  19.965  0.00  0.00    +0.000 A 
ENDBRANCH   9  11
TORSDOF 1
ENDMDL
MODEL 4
REMARK VINA RESULT:      -6.7      2.052      2.905
REMARK  Name = 
REMARK  1 active torsions:
REMARK  status: ('A' for Active; 'I' for Inactive)
REMARK    1  A    between atoms: C_9  and  C_10
REMARK                            x       y       z     vdW  Elec       q    Type
REMARK                         _______ _______ _______ _____ _____    ______ ____
ROOT
ATOM      1 CL   UNL     1       3.747   7.182  17.841  0.00  0.00    +0.000 Cl
ATOM      2  C   UNL     1       3.049   6.029  18.875  0.00  0.00    +0.000 A 
ATOM      3  N   UNL     1       2.274   6.536  19.849  0.00  0.00    +0.000 NA
ATOM      4  C   UNL     1       1.601   5.668  20.606  0.00  0.00    +0.000 A 
ATOM      5  N   UNL     1       1.594   4.346  20.480  0.00  0.00    +0.000 NA
ATOM      6  C   UNL     1       2.393   3.894  19.501  0.00  0.00    +0.000 A 
ATOM      7  S   UNL     1       2.461   2.229  19.180  0.00  0.00    +0.000 S 
ATOM      8  C   UNL     1       3.625   2.457  17.961  0.00  0.00    +0.000 A 
ATOM      9  C   UNL     1       3.969   3.787  17.766  0.00  0.00    +0.000 A 
ATOM     10  C   UNL     1       3.198   4.656  18.652  0.00  0.00    +0.000 A 
ENDROOT
BRANCH   9  11
ATOM     11  C   UNL     1       5.022   4.106  16.788  0.00  0.00    +0.000 A 
ATOM     12  C   UNL     1       6.304   4.499  17.212  0.00  0.00    +0.000 A 
ATOM     13  C   UNL     1       7.297   4.840  16.288  0.00  0.00    +0.000 A 
ATOM     14  C   UNL     1       7.035   4.761  14.923  0.00  0.00    +0.000 A 
ATOM     15  C   UNL     1       5.768   4.385  14.487  0.00  0.00    +0.000 A 
ATOM     16  C   UNL     1       4.760   4.095  15.413  0.00  0.00    +0.000 A 
ENDBRANCH   9  11
TORSDOF 1
ENDMDL
MODEL 5
REMARK VINA RESULT:      -6.6      2.616      5.155
REMARK  Name = 
REMARK  1 active torsions:
REMARK  status: ('A' for Active; 'I' for Inactive)
REMARK    1  A    between atoms: C_9  and  C_10
REMARK                            x       y       z     vdW  Elec       q    Type
REMARK                         _______ _______ _______ _____ _____    ______ ____
ROOT
ATOM      1 CL   UNL     1       4.165   2.619  17.248  0.00  0.00    +0.000 Cl
ATOM      2  C   UNL     1       4.612   4.218  16.892  0.00  0.00    +0.000 A 
ATOM      3  N   UNL     1       5.571   4.345  15.960  0.00  0.00    +0.000 NA
ATOM      4  C   UNL     1       5.866   5.579  15.551  0.00  0.00    +0.000 A 
ATOM      5  N   UNL     1       5.287   6.705  15.951  0.00  0.00    +0.000 NA
ATOM      6  C   UNL     1       4.344   6.522  16.890  0.00  0.00    +0.000 A 
ATOM      7  S   UNL     1       3.476   7.859  17.474  0.00  0.00    +0.000 S 
ATOM      8  C   UNL     1       2.606   6.885  18.563  0.00  0.00    +0.000 A 
ATOM      9  C   UNL     1       2.942   5.540  18.494  0.00  0.00    +0.000 A 
ATOM     10  C   UNL     1       3.948   5.311  17.460  0.00  0.00    +0.000 A 
ENDROOT
BRANCH   9  11
ATOM     11  C   UNL     1       2.310   4.607  19.440  0.00  0.00    +0.000 A 
ATOM     12  C   UNL     1       2.738   4.535  20.778  0.00  0.00    +0.000 A 
ATOM     13  C   UNL     1       2.166   3.623  21.671  0.00  0.00    +0.000 A 
ATOM     14  C   UNL     1       1.134   2.791  21.251  0.00  0.00    +0.000 A 
ATOM     15  C   UNL     1       0.705   2.841  19.928  0.00  0.00    +0.000 A 
ATOM     16  C   UNL     1       1.314   3.717  19.021  0.00  0.00    +0.000 A 
ENDBRANCH   9  11
TORSDOF 1
ENDMDL
MODEL 6
REMARK VINA RESULT:      -6.6      3.079      5.309
REMARK  Name = 
REMARK  1 active torsions:
REMARK  status: ('A' for Active; 'I' for Inactive)
REMARK    1  A    between atoms: C_9  and  C_10
REMARK                            x       y       z     vdW  Elec       q    Type
REMARK                         _______ _______ _______ _____ _____    ______ ____
ROOT
ATOM      1 CL   UNL     1       3.236   3.625  16.311  0.00  0.00    +0.000 Cl
ATOM      2  C   UNL     1       4.886   4.029  16.300  0.00  0.00    +0.000 A 
ATOM      3  N   UNL     1       5.493   3.904  15.108  0.00  0.00    +0.000 NA
ATOM      4  C   UNL     1       6.753   4.331  15.018  0.00  0.00    +0.000 A 
ATOM      5  N   UNL     1       7.468   4.898  15.982  0.00  0.00    +0.000 NA
ATOM      6  C   UNL     1       6.818   4.987  17.154  0.00  0.00    +0.000 A 
ATOM      7  S   UNL     1       7.579   5.729  18.477  0.00  0.00    +0.000 S 
ATOM      8  C   UNL     1       6.247   5.417  19.486  0.00  0.00    +0.000 A 
ATOM      9  C   UNL     1       5.205   4.765  18.842  0.00  0.00    +0.000 A 
ATOM     10  C   UNL     1       5.523   4.549  17.433  0.00  0.00    +0.000 A 
ENDROOT
BRANCH   9  11
ATOM     11  C   UNL     1       4.025   4.373  19.630  0.00  0.00    +0.000 A 
ATOM     12  C   UNL     1       3.050   5.320  19.988  0.00  0.00    +0.000 A 
ATOM     13  C   UNL     1       1.946   4.960  20.769  0.00  0.00    +0.000 A 
ATOM     14  C   UNL     1       1.782   3.639  21.176  0.00  0.00    +0.000 A 
ATOM     15  C   UNL     1       2.744   2.691  20.840  0.00  0.00    +0.000 A 
ATOM     16  C   UNL     1       3.875   3.064  20.103  0.00  0.00    +0.000 A 
ENDBRANCH   9  11
TORSDOF 1
ENDMDL
MODEL 7
REMARK VINA RESULT:      -6.6      2.623      5.021
REMARK  Name = 
REMARK  1 active torsions:
REMARK  status: ('A' for Active; 'I' for Inactive)
REMARK    1  A    between atoms: C_9  and  C_10
REMARK                            x       y       z     vdW  Elec       q    Type
REMARK                         _______ _______ _______ _____ _____    ______ ____
ROOT
ATOM      1 CL   UNL     1       4.117   2.645  17.145  0.00  0.00    +0.000 Cl
ATOM      2  C   UNL     1       4.561   4.251  16.816  0.00  0.00    +0.000 A 
ATOM      3  N   UNL     1       5.492   4.397  15.857  0.00  0.00    +0.000 NA
ATOM      4  C   UNL     1       5.780   5.641  15.472  0.00  0.00    +0.000 A 
ATOM      5  N   UNL     1       5.219   6.759  15.918  0.00  0.00    +0.000 NA
ATOM      6  C   UNL     1       4.306   6.556  16.881  0.00  0.00    +0.000 A 
ATOM      7  S   UNL     1       3.464   7.881  17.527  0.00  0.00    +0.000 S 
ATOM      8  C   UNL     1       2.623   6.884  18.617  0.00  0.00    +0.000 A 
ATOM      9  C   UNL     1       2.950   5.539  18.504  0.00  0.00    +0.000 A 
ATOM     10  C   UNL     1       3.922   5.332  17.432  0.00  0.00    +0.000 A 
ENDROOT
BRANCH   9  11
ATOM     11  C   UNL     1       2.343   4.585  19.445  0.00  0.00    +0.000 A 
ATOM     12  C   UNL     1       1.298   3.736  19.038  0.00  0.00    +0.000 A 
ATOM     13  C   UNL     1       0.693   2.853  19.939  0.00  0.00    +0.000 A 
ATOM     14  C   UNL     1       1.144   2.782  21.254  0.00  0.00    +0.000 A 
ATOM     15  C   UNL     1       2.169   3.623  21.676  0.00  0.00    +0.000 A 
ATOM     16  C   UNL     1       2.739   4.542  20.787  0.00  0.00    +0.000 A 
ENDBRANCH   9  11
TORSDOF 1
ENDMDL
MODEL 8
REMARK VINA RESULT:      -6.6      2.055      2.640
REMARK  Name = 
REMARK  1 active torsions:
REMARK  status: ('A' for Active; 'I' for Inactive)
REMARK    1  A    between atoms: C_9  and  C_10
REMARK                            x       y       z     vdW  Elec       q    Type
REMARK                         _______ _______ _______ _____ _____    ______ ____
ROOT
ATOM      1 CL   UNL     1       3.722   7.215  17.900  0.00  0.00    +0.000 Cl
ATOM      2  C   UNL     1       3.025   6.036  18.905  0.00  0.00    +0.000 A 
ATOM      3  N   UNL     1       2.239   6.516  19.883  0.00  0.00    +0.000 NA
ATOM      4  C   UNL     1       1.568   5.628  20.618  0.00  0.00    +0.000 A 
ATOM      5  N   UNL     1       1.571   4.309  20.465  0.00  0.00    +0.000 NA
ATOM      6  C   UNL     1       2.381   3.883  19.482  0.00  0.00    +0.000 A 
ATOM      7  S   UNL     1       2.464   2.225  19.128  0.00  0.00    +0.000 S 
ATOM      8  C   UNL     1       3.634   2.487  17.923  0.00  0.00    +0.000 A 
ATOM      9  C   UNL     1       3.970   3.823  17.757  0.00  0.00    +0.000 A 
ATOM     10  C   UNL     1       3.186   4.668  18.655  0.00  0.00    +0.000 A 
ENDROOT
BRANCH   9  11
ATOM     11  C   UNL     1       5.028   4.170  16.795  0.00  0.00    +0.000 A 
ATOM     12  C   UNL     1       4.799   4.084  15.410  0.00  0.00    +0.000 A 
ATOM     13  C   UNL     1       5.813   4.376  14.491  0.00  0.00    +0.000 A 
ATOM     14  C   UNL     1       7.062   4.791  14.942  0.00  0.00    +0.000 A 
ATOM     15  C   UNL     1       7.309   4.871  16.309  0.00  0.00    +0.000 A 
ATOM     16  C   UNL     1       6.310   4.528  17.227  0.00  0.00    +0.000 A 
ENDBRANCH   9  11
TORSDOF 1
ENDMDL
MODEL 9
REMARK VINA RESULT:      -6.5      2.855      4.759
REMARK  Name = 
REMARK  1 active torsions:
REMARK  status: ('A' for Active; 'I' for Inactive)
REMARK    1  A    between atoms: C_9  and  C_10
REMARK                            x       y       z     vdW  Elec       q    Type
REMARK                         _______ _______ _______ _____ _____    ______ ____
ROOT
ATOM      1 CL   UNL     1       1.022   4.669  20.529  0.00  0.00    +0.000 Cl
ATOM      2  C   UNL     1       2.583   4.138  20.120  0.00  0.00    +0.000 A 
ATOM      3  N   UNL     1       2.898   2.908  20.561  0.00  0.00    +0.000 NA
ATOM      4  C   UNL     1       4.061   2.395  20.158  0.00  0.00    +0.000 A 
ATOM      5  N   UNL     1       4.935   2.964  19.336  0.00  0.00    +0.000 NA
ATOM      6  C   UNL     1       4.577   4.195  18.936  0.00  0.00    +0.000 A 
ATOM      7  S   UNL     1       5.566   5.040  17.846  0.00  0.00    +0.000 S 
ATOM      8  C   UNL     1       4.542   6.397  17.886  0.00  0.00    +0.000 A 
ATOM      9  C   UNL     1       3.434   6.231  18.706  0.00  0.00    +0.000 A 
ATOM     10  C   UNL     1       3.425   4.895  19.299  0.00  0.00    +0.000 A 
ENDROOT
BRANCH   9  11
ATOM     11  C   UNL     1       2.512   7.364  18.881  0.00  0.00    +0.000 A 
ATOM     12  C   UNL     1       2.157   8.181  17.793  0.00  0.00    +0.000 A 
ATOM     13  C   UNL     1       1.311   9.282  17.962  0.00  0.00    +0.000 A 
ATOM     14  C   UNL     1       0.778   9.564  19.217  0.00  0.00    +0.000 A 
ATOM     15  C   UNL     1       1.128   8.773  20.307  0.00  0.00    +0.000 A 
ATOM     16  C   UNL     1       2.016   7.703  20.146  0.00  0.00    +0.000 A 
ENDBRANCH   9  11
TORSDOF 1
ENDMDL
