MODEL 1
REMARK VINA RESULT:      -7.4      0.000      0.000
REMARK  Name = 
REMARK  4 active torsions:
REMARK  status: ('A' for Active; 'I' for Inactive)
REMARK    1  A    between atoms: C_1  and  C_2
REMARK    2  A    between atoms: C_2  and  C_3
REMARK    3  A    between atoms: C_6  and  N_7
REMARK    4  A    between atoms: N_10  and  C_11
REMARK                            x       y       z     vdW  Elec       q    Type
REMARK                         _______ _______ _______ _____ _____    ______ ____
ROOT
ATOM      1  C   UNL     1       6.380   4.719  18.280  0.00  0.00    +0.000 C 
ATOM      2  C   UNL     1       5.140   5.197  17.493  0.00  0.00    +0.000 C 
ATOM      3  C   UNL     1       5.425   5.021  15.983  0.00  0.00    +0.000 C 
ATOM      4  C   UNL     1       4.960   6.706  17.809  0.00  0.00    +0.000 C 
ATOM      5  C   UNL     1       3.590   7.241  17.407  0.00  0.00    +0.000 C 
ATOM      6  C   UNL     1       2.476   6.491  18.142  0.00  0.00    +0.000 C 
ATOM      7  C   UNL     1       2.635   4.991  18.034  0.00  0.00    +0.000 A 
ATOM      8  C   UNL     1       1.479   4.197  18.169  0.00  0.00    +0.000 A 
ATOM      9  C   UNL     1       1.555   2.807  18.137  0.00  0.00    +0.000 A 
ATOM     10  C   UNL     1       2.791   2.193  17.993  0.00  0.00    +0.000 A 
ATOM     11  C   UNL     1       3.942   2.967  17.833  0.00  0.00    +0.000 A 
ATOM     12  C   UNL     1       3.888   4.376  17.832  0.00  0.00    +0.000 A 
ENDROOT
BRANCH   6  13
ATOM     13  N   UNL     1       2.403   6.872  19.549  0.00  0.00    +0.000 N 
ATOM     14  C   UNL     1       1.793   8.045  19.915  0.00  0.00    +0.000 C 
ATOM     15  O   UNL     1       1.266   8.804  19.114  0.00  0.00    +0.000 OA
ATOM     16  N   UNL     1       1.818   8.258  21.276  0.00  0.00    +0.000 N 
ATOM     17  H   UNL     1       3.104   6.496  20.169  0.00  0.00    +0.000 HD
ATOM     18  H   UNL     1       1.903   7.431  21.849  0.00  0.00    +0.000 HD
BRANCH  16  19
ATOM     19  C   UNL     1       1.092   9.370  21.819  0.00  0.00    +0.000 C 
ATOM     20  C   UNL     1      -0.384   9.343  22.102  0.00  0.00    +0.000 C 
ATOM     21  C   UNL     1       0.594   9.288  23.238  0.00  0.00    +0.000 C 
ENDBRANCH  16  19
ENDBRANCH   6  13
TORSDOF 2
ENDMDL
MODEL 2
REMARK VINA RESULT:      -7.0      2.626      5.444
REMARK  Name = 
REMARK  4 active torsions:
REMARK  status: ('A' for Active; 'I' for Inactive)
REMARK    1  A    between atoms: C_1  and  C_2
REMARK    2  A    between atoms: C_2  and  C_3
REMARK    3  A    between atoms: C_6  and  N_7
REMARK    4  A    between atoms: N_10  and  C_11
REMARK                            x       y       z     vdW  Elec       q    Type
REMARK                         _______ _______ _______ _____ _____    ______ ____
ROOT
ATOM      1  C   UNL     1       2.520   2.839  21.251  0.00  0.00    +0.000 C 
ATOM      2  C   UNL     1       2.165   3.426  19.868  0.00  0.00    +0.000 C 
ATOM      3  C   UNL     1       0.745   2.945  19.487  0.00  0.00    +0.000 C 
ATOM      4  C   UNL     1       3.190   2.849  18.857  0.00  0.00    +0.000 C 
ATOM      5  C   UNL     1       3.208   3.599  17.530  0.00  0.00    +0.000 C 
ATOM      6  C   UNL     1       3.565   5.072  17.742  0.00  0.00    +0.000 C 
ATOM      7  C   UNL     1       2.725   5.708  18.827  0.00  0.00    +0.000 A 
ATOM      8  C   UNL     1       2.542   7.105  18.782  0.00  0.00    +0.000 A 
ATOM      9  C   UNL     1       1.828   7.768  19.777  0.00  0.00    +0.000 A 
ATOM     10  C   UNL     1       1.308   7.047  20.842  0.00  0.00    +0.000 A 
ATOM     11  C   UNL     1       1.461   5.660  20.888  0.00  0.00    +0.000 A 
ATOM     12  C   UNL     1       2.153   4.960  19.878  0.00  0.00    +0.000 A 
ENDROOT
BRANCH   6  13
ATOM     13  N   UNL     1       4.979   5.248  18.057  0.00  0.00    +0.000 N 
ATOM     14  C   UNL     1       5.695   6.260  17.468  0.00  0.00    +0.000 C 
ATOM     15  O   UNL     1       5.203   7.066  16.693  0.00  0.00    +0.000 OA
ATOM     16  N   UNL     1       7.014   6.281  17.865  0.00  0.00    +0.000 N 
ATOM     17  H   UNL     1       5.489   4.438  18.375  0.00  0.00    +0.000 HD
ATOM     18  H   UNL     1       7.211   5.860  18.763  0.00  0.00    +0.000 HD
BRANCH  16  19
ATOM     19  C   UNL     1       7.849   7.371  17.446  0.00  0.00    +0.000 C 
ATOM     20  C   UNL     1       7.501   8.816  17.660  0.00  0.00    +0.000 C 
ATOM     21  C   UNL     1       8.570   8.177  18.495  0.00  0.00    +0.000 C 
ENDBRANCH  16  19
ENDBRANCH   6  13
TORSDOF 2
ENDMDL
MODEL 3
REMARK VINA RESULT:      -6.8      4.070      6.064
REMARK  Name = 
REMARK  4 active torsions:
REMARK  status: ('A' for Active; 'I' for Inactive)
REMARK    1  A    between atoms: C_1  and  C_2
REMARK    2  A    between atoms: C_2  and  C_3
REMARK    3  A    between atoms: C_6  and  N_7
REMARK    4  A    between atoms: N_10  and  C_11
REMARK                            x       y       z     vdW  Elec       q    Type
REMARK                         _______ _______ _______ _____ _____    ______ ____
ROOT
ATOM      1  C   UNL     1       3.150   5.399  17.745  0.00  0.00    +0.000 C 
ATOM      2  C   UNL     1       4.589   4.856  17.880  0.00  0.00    +0.000 C 
ATOM      3  C   UNL     1       4.513   3.405  18.411  0.00  0.00    +0.000 C 
ATOM      4  C   UNL     1       5.310   5.747  18.926  0.00  0.00    +0.000 C 
ATOM      5  C   UNL     1       6.826   5.579  18.911  0.00  0.00    +0.000 C 
ATOM      6  C   UNL     1       7.400   5.940  17.539  0.00  0.00    +0.000 C 
ATOM      7  C   UNL     1       6.666   5.242  16.416  0.00  0.00    +0.000 A 
ATOM      8  C   UNL     1       7.360   5.035  15.207  0.00  0.00    +0.000 A 
ATOM      9  C   UNL     1       6.733   4.450  14.110  0.00  0.00    +0.000 A 
ATOM     10  C   UNL     1       5.398   4.085  14.200  0.00  0.00    +0.000 A 
ATOM     11  C   UNL     1       4.704   4.262  15.398  0.00  0.00    +0.000 A 
ATOM     12  C   UNL     1       5.324   4.824  16.533  0.00  0.00    +0.000 A 
ENDROOT
BRANCH   6  13
ATOM     13  N   UNL     1       7.386   7.380  17.306  0.00  0.00    +0.000 N 
ATOM     14  C   UNL     1       8.105   8.217  18.122  0.00  0.00    +0.000 C 
ATOM     15  O   UNL     1       8.803   7.818  19.043  0.00  0.00    +0.000 OA
ATOM     16  N   UNL     1       7.977   9.544  17.772  0.00  0.00    +0.000 N 
ATOM     17  H   UNL     1       6.584   7.767  16.830  0.00  0.00    +0.000 HD
ATOM     18  H   UNL     1       7.728   9.723  16.810  0.00  0.00    +0.000 HD
BRANCH  16  19
ATOM     19  C   UNL     1       8.787  10.521  18.442  0.00  0.00    +0.000 C 
ATOM     20  C   UNL     1      10.091  11.033  17.902  0.00  0.00    +0.000 C 
ATOM     21  C   UNL     1       8.875  11.909  17.864  0.00  0.00    +0.000 C 
ENDBRANCH  16  19
ENDBRANCH   6  13
TORSDOF 2
ENDMDL
MODEL 4
REMARK VINA RESULT:      -6.6      3.372      6.721
REMARK  Name = 
REMARK  4 active torsions:
REMARK  status: ('A' for Active; 'I' for Inactive)
REMARK    1  A    between atoms: C_1  and  C_2
REMARK    2  A    between atoms: C_2  and  C_3
REMARK    3  A    between atoms: C_6  and  N_7
REMARK    4  A    between atoms: N_10  and  C_11
REMARK                            x       y       z     vdW  Elec       q    Type
REMARK                         _______ _______ _______ _____ _____    ______ ____
ROOT
ATOM      1  C   UNL     1       1.484   6.907  17.847  0.00  0.00    +0.000 C 
ATOM      2  C   UNL     1       2.683   6.156  18.466  0.00  0.00    +0.000 C 
ATOM      3  C   UNL     1       2.715   6.458  19.982  0.00  0.00    +0.000 C 
ATOM      4  C   UNL     1       3.964   6.728  17.802  0.00  0.00    +0.000 C 
ATOM      5  C   UNL     1       5.195   5.857  18.030  0.00  0.00    +0.000 C 
ATOM      6  C   UNL     1       4.981   4.453  17.460  0.00  0.00    +0.000 C 
ATOM      7  C   UNL     1       3.674   3.848  17.919  0.00  0.00    +0.000 A 
ATOM      8  C   UNL     1       3.572   2.442  17.942  0.00  0.00    +0.000 A 
ATOM      9  C   UNL     1       2.383   1.814  18.299  0.00  0.00    +0.000 A 
ATOM     10  C   UNL     1       1.272   2.582  18.617  0.00  0.00    +0.000 A 
ATOM     11  C   UNL     1       1.364   3.975  18.622  0.00  0.00    +0.000 A 
ATOM     12  C   UNL     1       2.565   4.636  18.294  0.00  0.00    +0.000 A 
ENDROOT
BRANCH   6  13
ATOM     13  N   UNL     1       5.034   4.445  16.002  0.00  0.00    +0.000 N 
ATOM     14  C   UNL     1       6.244   4.426  15.356  0.00  0.00    +0.000 C 
ATOM     15  O   UNL     1       7.316   4.385  15.942  0.00  0.00    +0.000 OA
ATOM     16  N   UNL     1       6.117   4.431  13.984  0.00  0.00    +0.000 N 
ATOM     17  H   UNL     1       4.245   4.834  15.506  0.00  0.00    +0.000 HD
ATOM     18  H   UNL     1       5.246   4.070  13.621  0.00  0.00    +0.000 HD
BRANCH  16  19
ATOM     19  C   UNL     1       7.292   4.264  13.176  0.00  0.00    +0.000 C 
ATOM     20  C   UNL     1       7.255   3.937  11.710  0.00  0.00    +0.000 C 
ATOM     21  C   UNL     1       7.626   5.320  12.156  0.00  0.00    +0.000 C 
ENDBRANCH  16  19
ENDBRANCH   6  13
TORSDOF 2
ENDMDL
MODEL 5
REMARK VINA RESULT:      -6.5      1.273      1.354
REMARK  Name = 
REMARK  4 active torsions:
REMARK  status: ('A' for Active; 'I' for Inactive)
REMARK    1  A    between atoms: C_1  and  C_2
REMARK    2  A    between atoms: C_2  and  C_3
REMARK    3  A    between atoms: C_6  and  N_7
REMARK    4  A    between atoms: N_10  and  C_11
REMARK                            x       y       z     vdW  Elec       q    Type
REMARK                         _______ _______ _______ _____ _____    ______ ____
ROOT
ATOM      1  C   UNL     1       6.426   4.737  19.197  0.00  0.00    +0.000 C 
ATOM      2  C   UNL     1       5.504   5.010  17.989  0.00  0.00    +0.000 C 
ATOM      3  C   UNL     1       6.167   4.408  16.727  0.00  0.00    +0.000 C 
ATOM      4  C   UNL     1       5.410   6.551  17.833  0.00  0.00    +0.000 C 
ATOM      5  C   UNL     1       4.266   6.990  16.926  0.00  0.00    +0.000 C 
ATOM      6  C   UNL     1       2.920   6.510  17.476  0.00  0.00    +0.000 C 
ATOM      7  C   UNL     1       2.940   5.036  17.815  0.00  0.00    +0.000 A 
ATOM      8  C   UNL     1       1.712   4.345  17.812  0.00  0.00    +0.000 A 
ATOM      9  C   UNL     1       1.644   3.001  18.167  0.00  0.00    +0.000 A 
ATOM     10  C   UNL     1       2.799   2.335  18.553  0.00  0.00    +0.000 A 
ATOM     11  C   UNL     1       4.026   3.000  18.538  0.00  0.00    +0.000 A 
ATOM     12  C   UNL     1       4.127   4.353  18.153  0.00  0.00    +0.000 A 
ENDROOT
BRANCH   6  13
ATOM     13  N   UNL     1       2.510   7.272  18.651  0.00  0.00    +0.000 N 
ATOM     14  C   UNL     1       1.913   8.498  18.503  0.00  0.00    +0.000 C 
ATOM     15  O   UNL     1       1.668   8.997  17.414  0.00  0.00    +0.000 OA
ATOM     16  N   UNL     1       1.597   9.088  19.708  0.00  0.00    +0.000 N 
ATOM     17  H   UNL     1       2.997   7.091  19.516  0.00  0.00    +0.000 HD
ATOM     18  H   UNL     1       1.471   8.457  20.487  0.00  0.00    +0.000 HD
BRANCH  16  19
ATOM     19  C   UNL     1       0.836  10.304  19.708  0.00  0.00    +0.000 C 
ATOM     20  C   UNL     1      -0.666  10.347  19.714  0.00  0.00    +0.000 C 
ATOM     21  C   UNL     1       0.093  10.694  20.959  0.00  0.00    +0.000 C 
ENDBRANCH  16  19
ENDBRANCH   6  13
TORSDOF 2
ENDMDL
MODEL 6
REMARK VINA RESULT:      -6.3      2.143      3.540
REMARK  Name = 
REMARK  4 active torsions:
REMARK  status: ('A' for Active; 'I' for Inactive)
REMARK    1  A    between atoms: C_1  and  C_2
REMARK    2  A    between atoms: C_2  and  C_3
REMARK    3  A    between atoms: C_6  and  N_7
REMARK    4  A    between atoms: N_10  and  C_11
REMARK                            x       y       z     vdW  Elec       q    Type
REMARK                         _______ _______ _______ _____ _____    ______ ____
ROOT
ATOM      1  C   UNL     1       1.861   3.070  17.843  0.00  0.00    +0.000 C 
ATOM      2  C   UNL     1       2.811   4.074  18.534  0.00  0.00    +0.000 C 
ATOM      3  C   UNL     1       3.742   3.285  19.484  0.00  0.00    +0.000 C 
ATOM      4  C   UNL     1       1.922   5.034  19.367  0.00  0.00    +0.000 C 
ATOM      5  C   UNL     1       2.659   6.292  19.815  0.00  0.00    +0.000 C 
ATOM      6  C   UNL     1       3.168   7.083  18.609  0.00  0.00    +0.000 C 
ATOM      7  C   UNL     1       3.927   6.208  17.636  0.00  0.00    +0.000 A 
ATOM      8  C   UNL     1       4.879   6.826  16.801  0.00  0.00    +0.000 A 
ATOM      9  C   UNL     1       5.576   6.095  15.843  0.00  0.00    +0.000 A 
ATOM     10  C   UNL     1       5.314   4.741  15.691  0.00  0.00    +0.000 A 
ATOM     11  C   UNL     1       4.392   4.110  16.527  0.00  0.00    +0.000 A 
ATOM     12  C   UNL     1       3.694   4.821  17.526  0.00  0.00    +0.000 A 
ENDROOT
BRANCH   6  13
ATOM     13  N   UNL     1       2.084   7.761  17.907  0.00  0.00    +0.000 N 
ATOM     14  C   UNL     1       1.431   8.813  18.498  0.00  0.00    +0.000 C 
ATOM     15  O   UNL     1       1.728   9.251  19.601  0.00  0.00    +0.000 OA
ATOM     16  N   UNL     1       0.430   9.334  17.708  0.00  0.00    +0.000 N 
ATOM     17  H   UNL     1       1.584   7.236  17.205  0.00  0.00    +0.000 HD
ATOM     18  H   UNL     1       0.530   9.182  16.714  0.00  0.00    +0.000 HD
BRANCH  16  19
ATOM     19  C   UNL     1      -0.241  10.529  18.132  0.00  0.00    +0.000 C 
ATOM     20  C   UNL     1      -1.554  10.993  17.567  0.00  0.00    +0.000 C 
ATOM     21  C   UNL     1      -1.503  10.403  18.945  0.00  0.00    +0.000 C 
ENDBRANCH  16  19
ENDBRANCH   6  13
TORSDOF 2
ENDMDL
MODEL 7
REMARK VINA RESULT:      -6.3      1.865      3.428
REMARK  Name = 
REMARK  4 active torsions:
REMARK  status: ('A' for Active; 'I' for Inactive)
REMARK    1  A    between atoms: C_1  and  C_2
REMARK    2  A    between atoms: C_2  and  C_3
REMARK    3  A    between atoms: C_6  and  N_7
REMARK    4  A    between atoms: N_10  and  C_11
REMARK                            x       y       z     vdW  Elec       q    Type
REMARK                         _______ _______ _______ _____ _____    ______ ____
ROOT
ATOM      1  C   UNL     1       0.716   2.854  18.522  0.00  0.00    +0.000 C 
ATOM      2  C   UNL     1       1.859   3.495  19.338  0.00  0.00    +0.000 C 
ATOM      3  C   UNL     1       2.596   2.373  20.106  0.00  0.00    +0.000 C 
ATOM      4  C   UNL     1       1.199   4.464  20.354  0.00  0.00    +0.000 C 
ATOM      5  C   UNL     1       2.190   5.437  20.983  0.00  0.00    +0.000 C 
ATOM      6  C   UNL     1       2.861   6.299  19.911  0.00  0.00    +0.000 C 
ATOM      7  C   UNL     1       3.413   5.465  18.777  0.00  0.00    +0.000 A 
ATOM      8  C   UNL     1       4.478   6.000  18.025  0.00  0.00    +0.000 A 
ATOM      9  C   UNL     1       5.001   5.316  16.932  0.00  0.00    +0.000 A 
ATOM     10  C   UNL     1       4.452   4.097  16.561  0.00  0.00    +0.000 A 
ATOM     11  C   UNL     1       3.413   3.542  17.311  0.00  0.00    +0.000 A 
ATOM     12  C   UNL     1       2.885   4.200  18.440  0.00  0.00    +0.000 A 
ENDROOT
BRANCH   6  13
ATOM     13  N   UNL     1       1.950   7.305  19.375  0.00  0.00    +0.000 N 
ATOM     14  C   UNL     1       1.483   8.311  20.181  0.00  0.00    +0.000 C 
ATOM     15  O   UNL     1       1.813   8.440  21.352  0.00  0.00    +0.000 OA
ATOM     16  N   UNL     1       0.628   9.169  19.524  0.00  0.00    +0.000 N 
ATOM     17  H   UNL     1       1.389   7.046  18.577  0.00  0.00    +0.000 HD
ATOM     18  H   UNL     1       0.737   9.216  18.521  0.00  0.00    +0.000 HD
BRANCH  16  19
ATOM     19  C   UNL     1       0.176  10.352  20.199  0.00  0.00    +0.000 C 
ATOM     20  C   UNL     1       0.850  11.689  20.078  0.00  0.00    +0.000 C 
ATOM     21  C   UNL     1      -0.460  11.451  19.388  0.00  0.00    +0.000 C 
ENDBRANCH  16  19
ENDBRANCH   6  13
TORSDOF 2
ENDMDL
MODEL 8
REMARK VINA RESULT:      -6.1      2.476      6.600
REMARK  Name = 
REMARK  4 active torsions:
REMARK  status: ('A' for Active; 'I' for Inactive)
REMARK    1  A    between atoms: C_1  and  C_2
REMARK    2  A    between atoms: C_2  and  C_3
REMARK    3  A    between atoms: C_6  and  N_7
REMARK    4  A    between atoms: N_10  and  C_11
REMARK                            x       y       z     vdW  Elec       q    Type
REMARK                         _______ _______ _______ _____ _____    ______ ____
ROOT
ATOM      1  C   UNL     1      -1.400  10.303  18.213  0.00  0.00    +0.000 C 
ATOM      2  C   UNL     1       0.050  10.304  18.744  0.00  0.00    +0.000 C 
ATOM      3  C   UNL     1       0.614  11.739  18.613  0.00  0.00    +0.000 C 
ATOM      4  C   UNL     1       0.865   9.348  17.833  0.00  0.00    +0.000 C 
ATOM      5  C   UNL     1       2.212   8.958  18.430  0.00  0.00    +0.000 C 
ATOM      6  C   UNL     1       2.027   8.249  19.774  0.00  0.00    +0.000 C 
ATOM      7  C   UNL     1       1.115   9.022  20.701  0.00  0.00    +0.000 A 
ATOM      8  C   UNL     1       1.261   8.817  22.087  0.00  0.00    +0.000 A 
ATOM      9  C   UNL     1       0.421   9.450  22.999  0.00  0.00    +0.000 A 
ATOM     10  C   UNL     1      -0.591  10.278  22.536  0.00  0.00    +0.000 A 
ATOM     11  C   UNL     1      -0.733  10.510  21.167  0.00  0.00    +0.000 A 
ATOM     12  C   UNL     1       0.124   9.905  20.224  0.00  0.00    +0.000 A 
ENDROOT
BRANCH   6  13
ATOM     13  N   UNL     1       1.514   6.894  19.608  0.00  0.00    +0.000 N 
ATOM     14  C   UNL     1       2.380   5.831  19.557  0.00  0.00    +0.000 C 
ATOM     15  O   UNL     1       3.592   5.947  19.674  0.00  0.00    +0.000 OA
ATOM     16  N   UNL     1       1.736   4.624  19.387  0.00  0.00    +0.000 N 
ATOM     17  H   UNL     1       0.617   6.788  19.158  0.00  0.00    +0.000 HD
ATOM     18  H   UNL     1       0.775   4.592  19.697  0.00  0.00    +0.000 HD
BRANCH  16  19
ATOM     19  C   UNL     1       2.499   3.411  19.463  0.00  0.00    +0.000 C 
ATOM     20  C   UNL     1       2.673   2.614  20.724  0.00  0.00    +0.000 C 
ATOM     21  C   UNL     1       1.770   2.106  19.640  0.00  0.00    +0.000 C 
ENDBRANCH  16  19
ENDBRANCH   6  13
TORSDOF 2
ENDMDL
MODEL 9
REMARK VINA RESULT:      -6.1      2.756      5.803
REMARK  Name = 
REMARK  4 active torsions:
REMARK  status: ('A' for Active; 'I' for Inactive)
REMARK    1  A    between atoms: C_1  and  C_2
REMARK    2  A    between atoms: C_2  and  C_3
REMARK    3  A    between atoms: C_6  and  N_7
REMARK    4  A    between atoms: N_10  and  C_11
REMARK                            x       y       z     vdW  Elec       q    Type
REMARK                         _______ _______ _______ _____ _____    ______ ____
ROOT
ATOM      1  C   UNL     1       1.738   2.517  21.570  0.00  0.00    +0.000 C 
ATOM      2  C   UNL     1       1.526   2.937  20.099  0.00  0.00    +0.000 C 
ATOM      3  C   UNL     1       0.026   2.775  19.760  0.00  0.00    +0.000 C 
ATOM      4  C   UNL     1       2.358   1.960  19.227  0.00  0.00    +0.000 C 
ATOM      5  C   UNL     1       2.548   2.450  17.796  0.00  0.00    +0.000 C 
ATOM      6  C   UNL     1       3.271   3.799  17.774  0.00  0.00    +0.000 C 
ATOM      7  C   UNL     1       2.636   4.798  18.715  0.00  0.00    +0.000 A 
ATOM      8  C   UNL     1       2.813   6.168  18.437  0.00  0.00    +0.000 A 
ATOM      9  C   UNL     1       2.305   7.145  19.287  0.00  0.00    +0.000 A 
ATOM     10  C   UNL     1       1.633   6.767  20.441  0.00  0.00    +0.000 A 
ATOM     11  C   UNL     1       1.428   5.414  20.717  0.00  0.00    +0.000 A 
ATOM     12  C   UNL     1       1.906   4.404  19.857  0.00  0.00    +0.000 A 
ENDROOT
BRANCH   6  13
ATOM     13  N   UNL     1       4.687   3.661  18.098  0.00  0.00    +0.000 N 
ATOM     14  C   UNL     1       5.579   4.630  17.714  0.00  0.00    +0.000 C 
ATOM     15  O   UNL     1       5.249   5.649  17.123  0.00  0.00    +0.000 OA
ATOM     16  N   UNL     1       6.874   4.343  18.088  0.00  0.00    +0.000 N 
ATOM     17  H   UNL     1       5.043   2.727  18.239  0.00  0.00    +0.000 HD
ATOM     18  H   UNL     1       6.976   3.723  18.880  0.00  0.00    +0.000 HD
BRANCH  16  19
ATOM     19  C   UNL     1       7.893   5.333  17.885  0.00  0.00    +0.000 C 
ATOM     20  C   UNL     1       7.611   6.803  17.758  0.00  0.00    +0.000 C 
ATOM     21  C   UNL     1       8.230   6.269  19.015  0.00  0.00    +0.000 C 
ENDBRANCH  16  19
ENDBRANCH   6  13
TORSDOF 2
ENDMDL
