MODEL 1
REMARK VINA RESULT:      -7.5      0.000      0.000
REMARK  Name = 
REMARK  10 active torsions:
REMARK  status: ('A' for Active; 'I' for Inactive)
REMARK    1  A    between atoms: C_1  and  N_2
REMARK    2  A    between atoms: N_2  and  C_3
REMARK    3  A    between atoms: N_2  and  C_4
REMARK    4  A    between atoms: C_4  and  C_5
REMARK    5  A    between atoms: C_5  and  C_6
REMARK    6  A    between atoms: C_12  and  C_13
REMARK    7  A    between atoms: C_13  and  O_15
REMARK    8  A    between atoms: C_19  and  O_20
REMARK    9  A    between atoms: O_20  and  C_21
REMARK   10  A    between atoms: C_21  and  C_22
REMARK                            x       y       z     vdW  Elec       q    Type
REMARK                         _______ _______ _______ _____ _____    ______ ____
ROOT
ATOM      1  C   UNL     1       1.709   8.537  19.184  0.00  0.00    +0.000 A 
ATOM      2  C   UNL     1       2.066   9.080  17.933  0.00  0.00    +0.000 A 
ATOM      3  N   UNL     1       2.973   8.345  17.287  0.00  0.00    +0.000 NA
ATOM      4  N   UNL     1       3.314   7.371  18.180  0.00  0.00    +0.000 N 
ATOM      5  C   UNL     1       4.412   6.496  17.867  0.00  0.00    +0.000 A 
ATOM      6  C   UNL     1       4.683   6.246  16.525  0.00  0.00    +0.000 A 
ATOM      7  C   UNL     1       5.614   5.249  16.220  0.00  0.00    +0.000 A 
ATOM      8  C   UNL     1       6.229   4.530  17.244  0.00  0.00    +0.000 A 
ATOM      9  C   UNL     1       5.938   4.880  18.543  0.00  0.00    +0.000 A 
ATOM     10  N   UNL     1       5.062   5.853  18.869  0.00  0.00    +0.000 NA
ATOM     11  C   UNL     1       2.451   7.372  19.292  0.00  0.00    +0.000 A 
ENDROOT
BRANCH   7  12
ATOM     12  C   UNL     1       5.918   4.854  14.821  0.00  0.00    +0.000 C 
ATOM     13  O   UNL     1       5.197   4.114  14.181  0.00  0.00    +0.000 OA
BRANCH  12  14
ATOM     14  O   UNL     1       7.083   5.350  14.358  0.00  0.00    +0.000 OA
ATOM     15  H   UNL     1       7.872   4.789  14.481  0.00  0.00    +0.000 HD
ENDBRANCH  12  14
ENDBRANCH   7  12
BRANCH   1  16
ATOM     16  C   UNL     1       0.667   9.085  20.113  0.00  0.00    +0.000 C 
BRANCH  16  17
ATOM     17  C   UNL     1      -0.150  10.235  19.498  0.00  0.00    +0.000 C 
BRANCH  17  19
ATOM     18  C   UNL     1      -0.273  11.284  21.662  0.00  0.00    +0.000 C 
ATOM     19  N   UNL     1      -0.059  11.520  20.228  0.00  0.00    +0.000 NA
ATOM     20  C   UNL     1       1.231  12.187  20.035  0.00  0.00    +0.000 C 
ENDBRANCH  17  19
ENDBRANCH  16  17
ENDBRANCH   1  16
BRANCH  11  21
ATOM     21  O   UNL     1       2.327   6.435  20.253  0.00  0.00    +0.000 OA
BRANCH  21  22
ATOM     22  C   UNL     1       1.438   5.340  20.029  0.00  0.00    +0.000 C 
BRANCH  22  23
ATOM     23  C   UNL     1       2.092   4.115  19.445  0.00  0.00    +0.000 A 
ATOM     24  C   UNL     1       1.912   3.849  18.071  0.00  0.00    +0.000 A 
ATOM     25  C   UNL     1       2.543   2.770  17.472  0.00  0.00    +0.000 A 
ATOM     26  C   UNL     1       3.372   1.961  18.238  0.00  0.00    +0.000 A 
ATOM     27  F   UNL     1       3.989   0.922  17.661  0.00  0.00    +0.000 F 
ATOM     28  C   UNL     1       3.575   2.217  19.592  0.00  0.00    +0.000 A 
ATOM     29  C   UNL     1       2.941   3.299  20.197  0.00  0.00    +0.000 A 
ENDBRANCH  22  23
ENDBRANCH  21  22
ENDBRANCH  11  21
TORSDOF 8
ENDMDL
MODEL 2
REMARK VINA RESULT:      -7.3      0.691      1.492
REMARK  Name = 
REMARK  10 active torsions:
REMARK  status: ('A' for Active; 'I' for Inactive)
REMARK    1  A    between atoms: C_1  and  N_2
REMARK    2  A    between atoms: N_2  and  C_3
REMARK    3  A    between atoms: N_2  and  C_4
REMARK    4  A    between atoms: C_4  and  C_5
REMARK    5  A    between atoms: C_5  and  C_6
REMARK    6  A    between atoms: C_12  and  C_13
REMARK    7  A    between atoms: C_13  and  O_15
REMARK    8  A    between atoms: C_19  and  O_20
REMARK    9  A    between atoms: O_20  and  C_21
REMARK   10  A    between atoms: C_21  and  C_22
REMARK                            x       y       z     vdW  Elec       q    Type
REMARK                         _______ _______ _______ _____ _____    ______ ____
ROOT
ATOM      1  C   UNL     1       1.619   8.609  19.235  0.00  0.00    +0.000 A 
ATOM      2  C   UNL     1       1.987   9.153  17.987  0.00  0.00    +0.000 A 
ATOM      3  N   UNL     1       2.905   8.423  17.353  0.00  0.00    +0.000 NA
ATOM      4  N   UNL     1       3.241   7.452  18.250  0.00  0.00    +0.000 N 
ATOM      5  C   UNL     1       4.348   6.583  17.950  0.00  0.00    +0.000 A 
ATOM      6  C   UNL     1       4.636   6.334  16.611  0.00  0.00    +0.000 A 
ATOM      7  C   UNL     1       5.576   5.342  16.318  0.00  0.00    +0.000 A 
ATOM      8  C   UNL     1       6.184   4.627  17.349  0.00  0.00    +0.000 A 
ATOM      9  C   UNL     1       5.876   4.976  18.645  0.00  0.00    +0.000 A 
ATOM     10  N   UNL     1       4.990   5.945  18.960  0.00  0.00    +0.000 NA
ATOM     11  C   UNL     1       2.366   7.449  19.352  0.00  0.00    +0.000 A 
ENDROOT
BRANCH   7  12
ATOM     12  C   UNL     1       5.898   4.948  14.923  0.00  0.00    +0.000 C 
ATOM     13  O   UNL     1       6.906   5.322  14.356  0.00  0.00    +0.000 OA
BRANCH  12  14
ATOM     14  O   UNL     1       4.949   4.188  14.341  0.00  0.00    +0.000 OA
ATOM     15  H   UNL     1       5.138   3.234  14.275  0.00  0.00    +0.000 HD
ENDBRANCH  12  14
ENDBRANCH   7  12
BRANCH   1  16
ATOM     16  C   UNL     1       0.563   9.151  20.152  0.00  0.00    +0.000 C 
BRANCH  16  17
ATOM     17  C   UNL     1       1.118  10.125  21.207  0.00  0.00    +0.000 C 
BRANCH  17  19
ATOM     18  C   UNL     1      -0.930  11.366  21.459  0.00  0.00    +0.000 C 
ATOM     19  N   UNL     1       0.116  10.625  22.176  0.00  0.00    +0.000 NA
ATOM     20  C   UNL     1      -0.500   9.549  22.955  0.00  0.00    +0.000 C 
ENDBRANCH  17  19
ENDBRANCH  16  17
ENDBRANCH   1  16
BRANCH  11  21
ATOM     21  O   UNL     1       2.237   6.511  20.312  0.00  0.00    +0.000 OA
BRANCH  21  22
ATOM     22  C   UNL     1       1.400   5.382  20.057  0.00  0.00    +0.000 C 
BRANCH  22  23
ATOM     23  C   UNL     1       2.107   4.213  19.423  0.00  0.00    +0.000 A 
ATOM     24  C   UNL     1       2.892   3.377  20.246  0.00  0.00    +0.000 A 
ATOM     25  C   UNL     1       3.513   2.253  19.723  0.00  0.00    +0.000 A 
ATOM     26  C   UNL     1       3.340   1.949  18.378  0.00  0.00    +0.000 A 
ATOM     27  F   UNL     1       3.932   0.860  17.872  0.00  0.00    +0.000 F 
ATOM     28  C   UNL     1       2.556   2.753  17.554  0.00  0.00    +0.000 A 
ATOM     29  C   UNL     1       1.932   3.883  18.076  0.00  0.00    +0.000 A 
ENDBRANCH  22  23
ENDBRANCH  21  22
ENDBRANCH  11  21
TORSDOF 8
ENDMDL
MODEL 3
REMARK VINA RESULT:      -7.3      0.363      1.165
REMARK  Name = 
REMARK  10 active torsions:
REMARK  status: ('A' for Active; 'I' for Inactive)
REMARK    1  A    between atoms: C_1  and  N_2
REMARK    2  A    between atoms: N_2  and  C_3
REMARK    3  A    between atoms: N_2  and  C_4
REMARK    4  A    between atoms: C_4  and  C_5
REMARK    5  A    between atoms: C_5  and  C_6
REMARK    6  A    between atoms: C_12  and  C_13
REMARK    7  A    between atoms: C_13  and  O_15
REMARK    8  A    between atoms: C_19  and  O_20
REMARK    9  A    between atoms: O_20  and  C_21
REMARK   10  A    between atoms: C_21  and  C_22
REMARK                            x       y       z     vdW  Elec       q    Type
REMARK                         _______ _______ _______ _____ _____    ______ ____
ROOT
ATOM      1  C   UNL     1       1.719   8.578  19.167  0.00  0.00    +0.000 A 
ATOM      2  C   UNL     1       2.072   9.122  17.915  0.00  0.00    +0.000 A 
ATOM      3  N   UNL     1       2.978   8.387  17.268  0.00  0.00    +0.000 NA
ATOM      4  N   UNL     1       3.321   7.413  18.159  0.00  0.00    +0.000 N 
ATOM      5  C   UNL     1       4.419   6.539  17.842  0.00  0.00    +0.000 A 
ATOM      6  C   UNL     1       4.688   6.290  16.500  0.00  0.00    +0.000 A 
ATOM      7  C   UNL     1       5.618   5.294  16.192  0.00  0.00    +0.000 A 
ATOM      8  C   UNL     1       6.235   4.574  17.214  0.00  0.00    +0.000 A 
ATOM      9  C   UNL     1       5.947   4.923  18.514  0.00  0.00    +0.000 A 
ATOM     10  N   UNL     1       5.072   5.896  18.843  0.00  0.00    +0.000 NA
ATOM     11  C   UNL     1       2.461   7.414  19.273  0.00  0.00    +0.000 A 
ENDROOT
BRANCH   7  12
ATOM     12  C   UNL     1       5.919   4.900  14.793  0.00  0.00    +0.000 C 
ATOM     13  O   UNL     1       5.198   4.158  14.154  0.00  0.00    +0.000 OA
BRANCH  12  14
ATOM     14  O   UNL     1       7.081   5.398  14.327  0.00  0.00    +0.000 OA
ATOM     15  H   UNL     1       7.830   4.775  14.274  0.00  0.00    +0.000 HD
ENDBRANCH  12  14
ENDBRANCH   7  12
BRANCH   1  16
ATOM     16  C   UNL     1       0.678   9.125  20.099  0.00  0.00    +0.000 C 
BRANCH  16  17
ATOM     17  C   UNL     1       0.260  10.567  19.762  0.00  0.00    +0.000 C 
BRANCH  17  19
ATOM     18  C   UNL     1       1.622  12.537  19.515  0.00  0.00    +0.000 C 
ATOM     19  N   UNL     1       1.016  11.616  20.485  0.00  0.00    +0.000 NA
ATOM     20  C   UNL     1       0.176  12.376  21.414  0.00  0.00    +0.000 C 
ENDBRANCH  17  19
ENDBRANCH  16  17
ENDBRANCH   1  16
BRANCH  11  21
ATOM     21  O   UNL     1       2.340   6.475  20.233  0.00  0.00    +0.000 OA
BRANCH  21  22
ATOM     22  C   UNL     1       1.493   5.351  19.988  0.00  0.00    +0.000 C 
BRANCH  22  23
ATOM     23  C   UNL     1       2.185   4.181  19.339  0.00  0.00    +0.000 A 
ATOM     24  C   UNL     1       2.994   3.351  20.143  0.00  0.00    +0.000 A 
ATOM     25  C   UNL     1       3.603   2.225  19.607  0.00  0.00    +0.000 A 
ATOM     26  C   UNL     1       3.391   1.914  18.269  0.00  0.00    +0.000 A 
ATOM     27  F   UNL     1       3.971   0.825  17.751  0.00  0.00    +0.000 F 
ATOM     28  C   UNL     1       2.583   2.713  17.465  0.00  0.00    +0.000 A 
ATOM     29  C   UNL     1       1.971   3.845  18.000  0.00  0.00    +0.000 A 
ENDBRANCH  22  23
ENDBRANCH  21  22
ENDBRANCH  11  21
TORSDOF 8
ENDMDL
MODEL 4
REMARK VINA RESULT:      -6.9      2.411      6.677
REMARK  Name = 
REMARK  10 active torsions:
REMARK  status: ('A' for Active; 'I' for Inactive)
REMARK    1  A    between atoms: C_1  and  N_2
REMARK    2  A    between atoms: N_2  and  C_3
REMARK    3  A    between atoms: N_2  and  C_4
REMARK    4  A    between atoms: C_4  and  C_5
REMARK    5  A    between atoms: C_5  and  C_6
REMARK    6  A    between atoms: C_12  and  C_13
REMARK    7  A    between atoms: C_13  and  O_15
REMARK    8  A    between atoms: C_19  and  O_20
REMARK    9  A    between atoms: O_20  and  C_21
REMARK   10  A    between atoms: C_21  and  C_22
REMARK                            x       y       z     vdW  Elec       q    Type
REMARK                         _______ _______ _______ _____ _____    ______ ____
ROOT
ATOM      1  C   UNL     1       2.666   7.339  18.214  0.00  0.00    +0.000 A 
ATOM      2  C   UNL     1       2.361   8.557  17.574  0.00  0.00    +0.000 A 
ATOM      3  N   UNL     1       1.717   9.414  18.368  0.00  0.00    +0.000 NA
ATOM      4  N   UNL     1       1.480   8.703  19.508  0.00  0.00    +0.000 N 
ATOM      5  C   UNL     1       0.639   9.279  20.523  0.00  0.00    +0.000 A 
ATOM      6  C   UNL     1       0.595  10.667  20.623  0.00  0.00    +0.000 A 
ATOM      7  C   UNL     1      -0.060  11.223  21.724  0.00  0.00    +0.000 A 
ATOM      8  C   UNL     1      -0.632  10.396  22.690  0.00  0.00    +0.000 A 
ATOM      9  C   UNL     1      -0.585   9.035  22.483  0.00  0.00    +0.000 A 
ATOM     10  N   UNL     1       0.019   8.469  21.417  0.00  0.00    +0.000 NA
ATOM     11  C   UNL     1       2.178   7.481  19.503  0.00  0.00    +0.000 A 
ENDROOT
BRANCH   7  12
ATOM     12  C   UNL     1      -0.098  12.688  21.963  0.00  0.00    +0.000 C 
ATOM     13  O   UNL     1      -1.092  13.258  22.367  0.00  0.00    +0.000 OA
BRANCH  12  14
ATOM     14  O   UNL     1       1.049  13.320  21.640  0.00  0.00    +0.000 OA
ATOM     15  H   UNL     1       1.129  13.628  20.718  0.00  0.00    +0.000 HD
ENDBRANCH  12  14
ENDBRANCH   7  12
BRANCH   1  16
ATOM     16  C   UNL     1       3.445   6.204  17.617  0.00  0.00    +0.000 C 
BRANCH  16  17
ATOM     17  C   UNL     1       4.965   6.445  17.623  0.00  0.00    +0.000 C 
BRANCH  17  19
ATOM     18  C   UNL     1       6.670   4.918  16.874  0.00  0.00    +0.000 C 
ATOM     19  N   UNL     1       5.779   5.262  17.989  0.00  0.00    +0.000 NA
ATOM     20  C   UNL     1       6.577   5.480  19.197  0.00  0.00    +0.000 C 
ENDBRANCH  17  19
ENDBRANCH  16  17
ENDBRANCH   1  16
BRANCH  11  21
ATOM     21  O   UNL     1       2.376   6.629  20.529  0.00  0.00    +0.000 OA
BRANCH  21  22
ATOM     22  C   UNL     1       1.522   5.490  20.647  0.00  0.00    +0.000 C 
BRANCH  22  23
ATOM     23  C   UNL     1       2.094   4.222  20.069  0.00  0.00    +0.000 A 
ATOM     24  C   UNL     1       1.317   3.499  19.140  0.00  0.00    +0.000 A 
ATOM     25  C   UNL     1       1.822   2.358  18.532  0.00  0.00    +0.000 A 
ATOM     26  C   UNL     1       3.113   1.945  18.838  0.00  0.00    +0.000 A 
ATOM     27  F   UNL     1       3.606   0.849  18.248  0.00  0.00    +0.000 F 
ATOM     28  C   UNL     1       3.900   2.656  19.741  0.00  0.00    +0.000 A 
ATOM     29  C   UNL     1       3.395   3.800  20.353  0.00  0.00    +0.000 A 
ENDBRANCH  22  23
ENDBRANCH  21  22
ENDBRANCH  11  21
TORSDOF 8
ENDMDL
MODEL 5
REMARK VINA RESULT:      -6.9      2.393      6.720
REMARK  Name = 
REMARK  10 active torsions:
REMARK  status: ('A' for Active; 'I' for Inactive)
REMARK    1  A    between atoms: C_1  and  N_2
REMARK    2  A    between atoms: N_2  and  C_3
REMARK    3  A    between atoms: N_2  and  C_4
REMARK    4  A    between atoms: C_4  and  C_5
REMARK    5  A    between atoms: C_5  and  C_6
REMARK    6  A    between atoms: C_12  and  C_13
REMARK    7  A    between atoms: C_13  and  O_15
REMARK    8  A    between atoms: C_19  and  O_20
REMARK    9  A    between atoms: O_20  and  C_21
REMARK   10  A    between atoms: C_21  and  C_22
REMARK                            x       y       z     vdW  Elec       q    Type
REMARK                         _______ _______ _______ _____ _____    ______ ____
ROOT
ATOM      1  C   UNL     1       2.791   7.249  18.166  0.00  0.00    +0.000 A 
ATOM      2  C   UNL     1       2.501   8.465  17.516  0.00  0.00    +0.000 A 
ATOM      3  N   UNL     1       1.842   9.326  18.294  0.00  0.00    +0.000 NA
ATOM      4  N   UNL     1       1.582   8.619  19.432  0.00  0.00    +0.000 N 
ATOM      5  C   UNL     1       0.722   9.200  20.428  0.00  0.00    +0.000 A 
ATOM      6  C   UNL     1       0.678  10.588  20.521  0.00  0.00    +0.000 A 
ATOM      7  C   UNL     1       0.003  11.149  21.608  0.00  0.00    +0.000 A 
ATOM      8  C   UNL     1      -0.589  10.326  22.565  0.00  0.00    +0.000 A 
ATOM      9  C   UNL     1      -0.540   8.965  22.365  0.00  0.00    +0.000 A 
ATOM     10  N   UNL     1       0.084   8.394  21.313  0.00  0.00    +0.000 NA
ATOM     11  C   UNL     1       2.279   7.397  19.445  0.00  0.00    +0.000 A 
ENDROOT
BRANCH   7  12
ATOM     12  C   UNL     1      -0.038  12.616  21.841  0.00  0.00    +0.000 C 
ATOM     13  O   UNL     1      -1.061  13.202  22.131  0.00  0.00    +0.000 OA
BRANCH  12  14
ATOM     14  O   UNL     1       1.148  13.228  21.649  0.00  0.00    +0.000 OA
ATOM     15  H   UNL     1       1.721  12.855  20.954  0.00  0.00    +0.000 HD
ENDBRANCH  12  14
ENDBRANCH   7  12
BRANCH   1  16
ATOM     16  C   UNL     1       3.581   6.112  17.589  0.00  0.00    +0.000 C 
BRANCH  16  17
ATOM     17  C   UNL     1       5.026   6.049  18.114  0.00  0.00    +0.000 C 
BRANCH  17  19
ATOM     18  C   UNL     1       5.126   4.173  16.607  0.00  0.00    +0.000 C 
ATOM     19  N   UNL     1       5.756   4.806  17.773  0.00  0.00    +0.000 NA
ATOM     20  C   UNL     1       7.172   5.046  17.486  0.00  0.00    +0.000 C 
ENDBRANCH  17  19
ENDBRANCH  16  17
ENDBRANCH   1  16
BRANCH  11  21
ATOM     21  O   UNL     1       2.456   6.548  20.477  0.00  0.00    +0.000 OA
BRANCH  21  22
ATOM     22  C   UNL     1       1.622   5.392  20.563  0.00  0.00    +0.000 C 
BRANCH  22  23
ATOM     23  C   UNL     1       2.182   4.170  19.883  0.00  0.00    +0.000 A 
ATOM     24  C   UNL     1       3.380   3.614  20.381  0.00  0.00    +0.000 A 
ATOM     25  C   UNL     1       3.903   2.454  19.829  0.00  0.00    +0.000 A 
ATOM     26  C   UNL     1       3.223   1.834  18.789  0.00  0.00    +0.000 A 
ATOM     27  F   UNL     1       3.722   0.709  18.260  0.00  0.00    +0.000 F 
ATOM     28  C   UNL     1       2.031   2.358  18.296  0.00  0.00    +0.000 A 
ATOM     29  C   UNL     1       1.503   3.523  18.846  0.00  0.00    +0.000 A 
ENDBRANCH  22  23
ENDBRANCH  21  22
ENDBRANCH  11  21
TORSDOF 8
ENDMDL
MODEL 6
REMARK VINA RESULT:      -6.9      2.493      6.836
REMARK  Name = 
REMARK  10 active torsions:
REMARK  status: ('A' for Active; 'I' for Inactive)
REMARK    1  A    between atoms: C_1  and  N_2
REMARK    2  A    between atoms: N_2  and  C_3
REMARK    3  A    between atoms: N_2  and  C_4
REMARK    4  A    between atoms: C_4  and  C_5
REMARK    5  A    between atoms: C_5  and  C_6
REMARK    6  A    between atoms: C_12  and  C_13
REMARK    7  A    between atoms: C_13  and  O_15
REMARK    8  A    between atoms: C_19  and  O_20
REMARK    9  A    between atoms: O_20  and  C_21
REMARK   10  A    between atoms: C_21  and  C_22
REMARK                            x       y       z     vdW  Elec       q    Type
REMARK                         _______ _______ _______ _____ _____    ______ ____
ROOT
ATOM      1  C   UNL     1       2.557   7.540  18.196  0.00  0.00    +0.000 A 
ATOM      2  C   UNL     1       2.192   8.765  17.599  0.00  0.00    +0.000 A 
ATOM      3  N   UNL     1       1.541   9.576  18.434  0.00  0.00    +0.000 NA
ATOM      4  N   UNL     1       1.360   8.825  19.560  0.00  0.00    +0.000 N 
ATOM      5  C   UNL     1       0.528   9.344  20.612  0.00  0.00    +0.000 A 
ATOM      6  C   UNL     1       0.438  10.725  20.753  0.00  0.00    +0.000 A 
ATOM      7  C   UNL     1      -0.204  11.227  21.887  0.00  0.00    +0.000 A 
ATOM      8  C   UNL     1      -0.721  10.354  22.843  0.00  0.00    +0.000 A 
ATOM      9  C   UNL     1      -0.632   9.002  22.596  0.00  0.00    +0.000 A 
ATOM     10  N   UNL     1      -0.039   8.488  21.499  0.00  0.00    +0.000 NA
ATOM     11  C   UNL     1       2.100   7.630  19.501  0.00  0.00    +0.000 A 
ENDROOT
BRANCH   7  12
ATOM     12  C   UNL     1      -0.286  12.683  22.168  0.00  0.00    +0.000 C 
ATOM     13  O   UNL     1       0.245  13.515  21.460  0.00  0.00    +0.000 OA
BRANCH  12  14
ATOM     14  O   UNL     1      -0.955  12.981  23.300  0.00  0.00    +0.000 OA
ATOM     15  H   UNL     1      -1.177  13.920  23.438  0.00  0.00    +0.000 HD
ENDBRANCH  12  14
ENDBRANCH   7  12
BRANCH   1  16
ATOM     16  C   UNL     1       3.358   6.451  17.547  0.00  0.00    +0.000 C 
BRANCH  16  17
ATOM     17  C   UNL     1       4.745   6.921  17.071  0.00  0.00    +0.000 C 
BRANCH  17  19
ATOM     18  C   UNL     1       6.908   5.881  16.873  0.00  0.00    +0.000 C 
ATOM     19  N   UNL     1       5.534   5.893  16.354  0.00  0.00    +0.000 NA
ATOM     20  C   UNL     1       4.958   4.553  16.478  0.00  0.00    +0.000 C 
ENDBRANCH  17  19
ENDBRANCH  16  17
ENDBRANCH   1  16
BRANCH  11  21
ATOM     21  O   UNL     1       2.355   6.757  20.496  0.00  0.00    +0.000 OA
BRANCH  21  22
ATOM     22  C   UNL     1       1.542   5.588  20.607  0.00  0.00    +0.000 C 
BRANCH  22  23
ATOM     23  C   UNL     1       2.092   4.379  19.897  0.00  0.00    +0.000 A 
ATOM     24  C   UNL     1       3.388   3.935  20.234  0.00  0.00    +0.000 A 
ATOM     25  C   UNL     1       3.916   2.791  19.655  0.00  0.00    +0.000 A 
ATOM     26  C   UNL     1       3.145   2.074  18.748  0.00  0.00    +0.000 A 
ATOM     27  F   UNL     1       3.649   0.965  18.193  0.00  0.00    +0.000 F 
ATOM     28  C   UNL     1       1.857   2.488  18.415  0.00  0.00    +0.000 A 
ATOM     29  C   UNL     1       1.325   3.638  18.994  0.00  0.00    +0.000 A 
ENDBRANCH  22  23
ENDBRANCH  21  22
ENDBRANCH  11  21
TORSDOF 8
ENDMDL
MODEL 7
REMARK VINA RESULT:      -6.7      2.334      4.185
REMARK  Name = 
REMARK  10 active torsions:
REMARK  status: ('A' for Active; 'I' for Inactive)
REMARK    1  A    between atoms: C_1  and  N_2
REMARK    2  A    between atoms: N_2  and  C_3
REMARK    3  A    between atoms: N_2  and  C_4
REMARK    4  A    between atoms: C_4  and  C_5
REMARK    5  A    between atoms: C_5  and  C_6
REMARK    6  A    between atoms: C_12  and  C_13
REMARK    7  A    between atoms: C_13  and  O_15
REMARK    8  A    between atoms: C_19  and  O_20
REMARK    9  A    between atoms: O_20  and  C_21
REMARK   10  A    between atoms: C_21  and  C_22
REMARK                            x       y       z     vdW  Elec       q    Type
REMARK                         _______ _______ _______ _____ _____    ______ ____
ROOT
ATOM      1  C   UNL     1       1.617   8.108  19.776  0.00  0.00    +0.000 A 
ATOM      2  C   UNL     1       1.506   7.331  20.947  0.00  0.00    +0.000 A 
ATOM      3  N   UNL     1       1.979   6.093  20.795  0.00  0.00    +0.000 NA
ATOM      4  N   UNL     1       2.289   6.011  19.469  0.00  0.00    +0.000 N 
ATOM      5  C   UNL     1       2.668   4.735  18.923  0.00  0.00    +0.000 A 
ATOM      6  C   UNL     1       3.279   3.818  19.773  0.00  0.00    +0.000 A 
ATOM      7  C   UNL     1       3.824   2.663  19.206  0.00  0.00    +0.000 A 
ATOM      8  C   UNL     1       3.760   2.463  17.828  0.00  0.00    +0.000 A 
ATOM      9  C   UNL     1       3.093   3.399  17.070  0.00  0.00    +0.000 A 
ATOM     10  N   UNL     1       2.535   4.512  17.592  0.00  0.00    +0.000 NA
ATOM     11  C   UNL     1       2.220   7.272  18.849  0.00  0.00    +0.000 A 
ENDROOT
BRANCH   7  12
ATOM     12  C   UNL     1       4.563   1.660  20.014  0.00  0.00    +0.000 C 
ATOM     13  O   UNL     1       4.922   1.877  21.154  0.00  0.00    +0.000 OA
BRANCH  12  14
ATOM     14  O   UNL     1       4.835   0.520  19.348  0.00  0.00    +0.000 OA
ATOM     15  H   UNL     1       5.587   0.550  18.727  0.00  0.00    +0.000 HD
ENDBRANCH  12  14
ENDBRANCH   7  12
BRANCH   1  16
ATOM     16  C   UNL     1       1.245   9.555  19.643  0.00  0.00    +0.000 C 
BRANCH  16  17
ATOM     17  C   UNL     1       0.460   9.864  18.357  0.00  0.00    +0.000 C 
BRANCH  17  19
ATOM     18  C   UNL     1      -1.909  10.204  18.092  0.00  0.00    +0.000 C 
ATOM     19  N   UNL     1      -0.653  10.827  18.526  0.00  0.00    +0.000 NA
ATOM     20  C   UNL     1      -0.793  11.287  19.909  0.00  0.00    +0.000 C 
ENDBRANCH  17  19
ENDBRANCH  16  17
ENDBRANCH   1  16
BRANCH  11  21
ATOM     21  O   UNL     1       2.670   7.628  17.629  0.00  0.00    +0.000 OA
BRANCH  21  22
ATOM     22  C   UNL     1       4.043   7.998  17.488  0.00  0.00    +0.000 C 
BRANCH  22  23
ATOM     23  C   UNL     1       4.940   6.888  17.007  0.00  0.00    +0.000 A 
ATOM     24  C   UNL     1       5.708   6.186  17.959  0.00  0.00    +0.000 A 
ATOM     25  C   UNL     1       6.503   5.116  17.576  0.00  0.00    +0.000 A 
ATOM     26  C   UNL     1       6.520   4.730  16.242  0.00  0.00    +0.000 A 
ATOM     27  F   UNL     1       7.280   3.692  15.870  0.00  0.00    +0.000 F 
ATOM     28  C   UNL     1       5.755   5.400  15.290  0.00  0.00    +0.000 A 
ATOM     29  C   UNL     1       4.957   6.476  15.671  0.00  0.00    +0.000 A 
ENDBRANCH  22  23
ENDBRANCH  21  22
ENDBRANCH  11  21
TORSDOF 8
ENDMDL
MODEL 8
REMARK VINA RESULT:      -6.5      2.303      6.481
REMARK  Name = 
REMARK  10 active torsions:
REMARK  status: ('A' for Active; 'I' for Inactive)
REMARK    1  A    between atoms: C_1  and  N_2
REMARK    2  A    between atoms: N_2  and  C_3
REMARK    3  A    between atoms: N_2  and  C_4
REMARK    4  A    between atoms: C_4  and  C_5
REMARK    5  A    between atoms: C_5  and  C_6
REMARK    6  A    between atoms: C_12  and  C_13
REMARK    7  A    between atoms: C_13  and  O_15
REMARK    8  A    between atoms: C_19  and  O_20
REMARK    9  A    between atoms: O_20  and  C_21
REMARK   10  A    between atoms: C_21  and  C_22
REMARK                            x       y       z     vdW  Elec       q    Type
REMARK                         _______ _______ _______ _____ _____    ______ ____
ROOT
ATOM      1  C   UNL     1       5.506   5.798  16.616  0.00  0.00    +0.000 A 
ATOM      2  C   UNL     1       4.864   6.705  15.749  0.00  0.00    +0.000 A 
ATOM      3  N   UNL     1       3.937   7.443  16.362  0.00  0.00    +0.000 NA
ATOM      4  N   UNL     1       3.877   6.927  17.624  0.00  0.00    +0.000 N 
ATOM      5  C   UNL     1       2.841   7.383  18.511  0.00  0.00    +0.000 A 
ATOM      6  C   UNL     1       2.351   8.673  18.332  0.00  0.00    +0.000 A 
ATOM      7  C   UNL     1       1.493   9.188  19.308  0.00  0.00    +0.000 A 
ATOM      8  C   UNL     1       1.163   8.422  20.424  0.00  0.00    +0.000 A 
ATOM      9  C   UNL     1       1.654   7.138  20.493  0.00  0.00    +0.000 A 
ATOM     10  N   UNL     1       2.464   6.604  19.556  0.00  0.00    +0.000 NA
ATOM     11  C   UNL     1       4.928   6.020  17.855  0.00  0.00    +0.000 A 
ENDROOT
BRANCH   7  12
ATOM     12  C   UNL     1       0.977  10.579  19.249  0.00  0.00    +0.000 C 
ATOM     13  O   UNL     1       0.670  11.204  20.245  0.00  0.00    +0.000 OA
BRANCH  12  14
ATOM     14  O   UNL     1       0.835  11.053  17.995  0.00  0.00    +0.000 OA
ATOM     15  H   UNL     1       1.547  10.834  17.366  0.00  0.00    +0.000 HD
ENDBRANCH  12  14
ENDBRANCH   7  12
BRANCH   1  16
ATOM     16  C   UNL     1       6.639   4.886  16.250  0.00  0.00    +0.000 C 
BRANCH  16  17
ATOM     17  C   UNL     1       6.274   3.881  15.142  0.00  0.00    +0.000 C 
BRANCH  17  19
ATOM     18  C   UNL     1       7.633   5.060  13.541  0.00  0.00    +0.000 C 
ATOM     19  N   UNL     1       6.326   4.429  13.767  0.00  0.00    +0.000 NA
ATOM     20  C   UNL     1       6.099   3.406  12.744  0.00  0.00    +0.000 C 
ENDBRANCH  17  19
ENDBRANCH  16  17
ENDBRANCH   1  16
BRANCH  11  21
ATOM     21  O   UNL     1       5.331   5.492  19.029  0.00  0.00    +0.000 OA
BRANCH  21  22
ATOM     22  C   UNL     1       5.342   4.071  19.172  0.00  0.00    +0.000 C 
BRANCH  22  23
ATOM     23  C   UNL     1       3.993   3.419  19.011  0.00  0.00    +0.000 A 
ATOM     24  C   UNL     1       3.088   3.477  20.091  0.00  0.00    +0.000 A 
ATOM     25  C   UNL     1       1.812   2.946  19.972  0.00  0.00    +0.000 A 
ATOM     26  C   UNL     1       1.429   2.371  18.767  0.00  0.00    +0.000 A 
ATOM     27  F   UNL     1       0.195   1.865  18.647  0.00  0.00    +0.000 F 
ATOM     28  C   UNL     1       2.304   2.319  17.685  0.00  0.00    +0.000 A 
ATOM     29  C   UNL     1       3.586   2.850  17.802  0.00  0.00    +0.000 A 
ENDBRANCH  22  23
ENDBRANCH  21  22
ENDBRANCH  11  21
TORSDOF 8
ENDMDL
MODEL 9
REMARK VINA RESULT:      -6.5      2.347      4.020
REMARK  Name = 
REMARK  10 active torsions:
REMARK  status: ('A' for Active; 'I' for Inactive)
REMARK    1  A    between atoms: C_1  and  N_2
REMARK    2  A    between atoms: N_2  and  C_3
REMARK    3  A    between atoms: N_2  and  C_4
REMARK    4  A    between atoms: C_4  and  C_5
REMARK    5  A    between atoms: C_5  and  C_6
REMARK    6  A    between atoms: C_12  and  C_13
REMARK    7  A    between atoms: C_13  and  O_15
REMARK    8  A    between atoms: C_19  and  O_20
REMARK    9  A    between atoms: O_20  and  C_21
REMARK   10  A    between atoms: C_21  and  C_22
REMARK                            x       y       z     vdW  Elec       q    Type
REMARK                         _______ _______ _______ _____ _____    ______ ____
ROOT
ATOM      1  C   UNL     1       1.614   8.199  19.800  0.00  0.00    +0.000 A 
ATOM      2  C   UNL     1       1.542   7.434  20.982  0.00  0.00    +0.000 A 
ATOM      3  N   UNL     1       1.999   6.191  20.825  0.00  0.00    +0.000 NA
ATOM      4  N   UNL     1       2.258   6.094  19.488  0.00  0.00    +0.000 N 
ATOM      5  C   UNL     1       2.606   4.811  18.941  0.00  0.00    +0.000 A 
ATOM      6  C   UNL     1       3.242   3.896  19.775  0.00  0.00    +0.000 A 
ATOM      7  C   UNL     1       3.757   2.732  19.199  0.00  0.00    +0.000 A 
ATOM      8  C   UNL     1       3.639   2.520  17.826  0.00  0.00    +0.000 A 
ATOM      9  C   UNL     1       2.949   3.454  17.086  0.00  0.00    +0.000 A 
ATOM     10  N   UNL     1       2.420   4.576  17.618  0.00  0.00    +0.000 NA
ATOM     11  C   UNL     1       2.175   7.350  18.860  0.00  0.00    +0.000 A 
ENDROOT
BRANCH   7  12
ATOM     12  C   UNL     1       4.518   1.731  19.988  0.00  0.00    +0.000 C 
ATOM     13  O   UNL     1       4.902   1.948  21.120  0.00  0.00    +0.000 OA
BRANCH  12  14
ATOM     14  O   UNL     1       4.781   0.594  19.313  0.00  0.00    +0.000 OA
ATOM     15  H   UNL     1       5.239   0.694  18.457  0.00  0.00    +0.000 HD
ENDBRANCH  12  14
ENDBRANCH   7  12
BRANCH   1  16
ATOM     16  C   UNL     1       1.248   9.648  19.668  0.00  0.00    +0.000 C 
BRANCH  16  17
ATOM     17  C   UNL     1       0.018   9.884  18.773  0.00  0.00    +0.000 C 
BRANCH  17  19
ATOM     18  C   UNL     1      -1.669  11.541  19.225  0.00  0.00    +0.000 C 
ATOM     19  N   UNL     1      -0.360  11.305  18.602  0.00  0.00    +0.000 NA
ATOM     20  C   UNL     1       0.624  12.223  19.180  0.00  0.00    +0.000 C 
ENDBRANCH  17  19
ENDBRANCH  16  17
ENDBRANCH   1  16
BRANCH  11  21
ATOM     21  O   UNL     1       2.580   7.691  17.620  0.00  0.00    +0.000 OA
BRANCH  21  22
ATOM     22  C   UNL     1       3.950   8.041  17.421  0.00  0.00    +0.000 C 
BRANCH  22  23
ATOM     23  C   UNL     1       4.847   6.880  17.080  0.00  0.00    +0.000 A 
ATOM     24  C   UNL     1       4.956   6.492  15.728  0.00  0.00    +0.000 A 
ATOM     25  C   UNL     1       5.815   5.468  15.354  0.00  0.00    +0.000 A 
ATOM     26  C   UNL     1       6.582   4.840  16.328  0.00  0.00    +0.000 A 
ATOM     27  F   UNL     1       7.417   3.857  15.969  0.00  0.00    +0.000 F 
ATOM     28  C   UNL     1       6.498   5.220  17.665  0.00  0.00    +0.000 A 
ATOM     29  C   UNL     1       5.636   6.246  18.043  0.00  0.00    +0.000 A 
ENDBRANCH  22  23
ENDBRANCH  21  22
ENDBRANCH  11  21
TORSDOF 8
ENDMDL
