MODEL 1
REMARK VINA RESULT:      -6.3      0.000      0.000
REMARK  Name = 
REMARK  5 active torsions:
REMARK  status: ('A' for Active; 'I' for Inactive)
REMARK    1  A    between atoms: C_1  and  O_2
REMARK    2  A    between atoms: O_2  and  C_3
REMARK    3  A    between atoms: C_3  and  C_4
REMARK    4  A    between atoms: C_4  and  C_5
REMARK    5  A    between atoms: N_7  and  C_8
REMARK                            x       y       z     vdW  Elec       q    Type
REMARK                         _______ _______ _______ _____ _____    ______ ____
ROOT
ATOM      1  C   UNL     1       2.815   4.965  18.026  0.00  0.00    +0.000 C 
ATOM      2  O   UNL     1       1.635   4.767  17.715  0.00  0.00    +0.000 OA
ATOM      3  N   UNL     1       3.259   6.176  18.549  0.00  0.00    +0.000 N 
ATOM      4  H   UNL     1       4.263   6.248  18.697  0.00  0.00    +0.000 HD
ENDROOT
BRANCH   3   5
ATOM      5  C   UNL     1       2.499   7.267  18.911  0.00  0.00    +0.000 A 
ATOM      6  C   UNL     1       2.244   8.263  17.865  0.00  0.00    +0.000 A 
ATOM      7  C   UNL     1       1.510   9.355  18.149  0.00  0.00    +0.000 A 
ATOM      8  N   UNL     1       1.036   9.533  19.444  0.00  0.00    +0.000 N 
ATOM      9  C   UNL     1       0.300  10.558  19.979  0.00  0.00    +0.000 A 
ATOM     10  C   UNL     1       0.139  10.239  21.308  0.00  0.00    +0.000 A 
ATOM     11  N   UNL     1       0.738   9.044  21.604  0.00  0.00    +0.000 NA
ATOM     12  C   UNL     1       1.265   8.627  20.470  0.00  0.00    +0.000 A 
ATOM     13  C   UNL     1       2.012   7.461  20.157  0.00  0.00    +0.000 A 
ENDBRANCH   3   5
BRANCH   1  14
ATOM     14  C   UNL     1       3.930   3.855  17.813  0.00  0.00    +0.000 C 
ATOM     15  C   UNL     1       3.373   2.387  17.821  0.00  0.00    +0.000 C 
ATOM     16  C   UNL     1       3.748   2.290  19.308  0.00  0.00    +0.000 C 
ATOM     17  C   UNL     1       4.723   3.459  19.102  0.00  0.00    +0.000 C 
BRANCH  14  18
ATOM     18  C   UNL     1       4.848   4.081  16.603  0.00  0.00    +0.000 C 
BRANCH  18  20
ATOM     19  C   UNL     1       6.513   5.767  16.651  0.00  0.00    +0.000 C 
ATOM     20  O   UNL     1       6.146   4.461  17.077  0.00  0.00    +0.000 OA
ENDBRANCH  18  20
ENDBRANCH  14  18
ENDBRANCH   1  14
TORSDOF 4
ENDMDL
MODEL 2
REMARK VINA RESULT:      -6.3      1.596      1.934
REMARK  Name = 
REMARK  5 active torsions:
REMARK  status: ('A' for Active; 'I' for Inactive)
REMARK    1  A    between atoms: C_1  and  O_2
REMARK    2  A    between atoms: O_2  and  C_3
REMARK    3  A    between atoms: C_3  and  C_4
REMARK    4  A    between atoms: C_4  and  C_5
REMARK    5  A    between atoms: N_7  and  C_8
REMARK                            x       y       z     vdW  Elec       q    Type
REMARK                         _______ _______ _______ _____ _____    ______ ____
ROOT
ATOM      1  C   UNL     1       2.216   4.992  19.318  0.00  0.00    +0.000 C 
ATOM      2  O   UNL     1       1.529   4.961  18.291  0.00  0.00    +0.000 OA
ATOM      3  N   UNL     1       2.554   6.182  19.956  0.00  0.00    +0.000 N 
ATOM      4  H   UNL     1       3.185   6.091  20.750  0.00  0.00    +0.000 HD
ENDROOT
BRANCH   3   5
ATOM      5  C   UNL     1       2.115   7.453  19.658  0.00  0.00    +0.000 A 
ATOM      6  C   UNL     1       2.464   7.972  18.330  0.00  0.00    +0.000 A 
ATOM      7  C   UNL     1       2.068   9.207  17.972  0.00  0.00    +0.000 A 
ATOM      8  N   UNL     1       1.364   9.983  18.885  0.00  0.00    +0.000 N 
ATOM      9  C   UNL     1       0.881  11.261  18.768  0.00  0.00    +0.000 A 
ATOM     10  C   UNL     1       0.296  11.544  19.981  0.00  0.00    +0.000 A 
ATOM     11  N   UNL     1       0.388  10.477  20.834  0.00  0.00    +0.000 NA
ATOM     12  C   UNL     1       1.025   9.543  20.157  0.00  0.00    +0.000 A 
ATOM     13  C   UNL     1       1.415   8.227  20.519  0.00  0.00    +0.000 A 
ENDBRANCH   3   5
BRANCH   1  14
ATOM     14  C   UNL     1       2.803   3.669  19.969  0.00  0.00    +0.000 C 
ATOM     15  C   UNL     1       1.876   2.413  19.798  0.00  0.00    +0.000 C 
ATOM     16  C   UNL     1       1.302   2.689  21.197  0.00  0.00    +0.000 C 
ATOM     17  C   UNL     1       2.554   3.524  21.508  0.00  0.00    +0.000 C 
BRANCH  14  18
ATOM     18  C   UNL     1       4.248   3.335  19.573  0.00  0.00    +0.000 C 
BRANCH  18  20
ATOM     19  C   UNL     1       5.856   4.496  18.276  0.00  0.00    +0.000 C 
ATOM     20  O   UNL     1       4.966   4.560  19.383  0.00  0.00    +0.000 OA
ENDBRANCH  18  20
ENDBRANCH  14  18
ENDBRANCH   1  14
TORSDOF 4
ENDMDL
MODEL 3
REMARK VINA RESULT:      -6.3      2.676      6.329
REMARK  Name = 
REMARK  5 active torsions:
REMARK  status: ('A' for Active; 'I' for Inactive)
REMARK    1  A    between atoms: C_1  and  O_2
REMARK    2  A    between atoms: O_2  and  C_3
REMARK    3  A    between atoms: C_3  and  C_4
REMARK    4  A    between atoms: C_4  and  C_5
REMARK    5  A    between atoms: N_7  and  C_8
REMARK                            x       y       z     vdW  Elec       q    Type
REMARK                         _______ _______ _______ _____ _____    ______ ____
ROOT
ATOM      1  C   UNL     1       3.580   4.206  19.518  0.00  0.00    +0.000 C 
ATOM      2  O   UNL     1       4.442   3.357  19.772  0.00  0.00    +0.000 OA
ATOM      3  N   UNL     1       3.667   5.056  18.420  0.00  0.00    +0.000 N 
ATOM      4  H   UNL     1       2.939   5.764  18.353  0.00  0.00    +0.000 HD
ENDROOT
BRANCH   3   5
ATOM      5  C   UNL     1       4.602   5.033  17.407  0.00  0.00    +0.000 A 
ATOM      6  C   UNL     1       5.800   5.856  17.604  0.00  0.00    +0.000 A 
ATOM      7  C   UNL     1       6.755   5.882  16.655  0.00  0.00    +0.000 A 
ATOM      8  N   UNL     1       6.566   5.151  15.487  0.00  0.00    +0.000 N 
ATOM      9  C   UNL     1       7.368   5.037  14.380  0.00  0.00    +0.000 A 
ATOM     10  C   UNL     1       6.682   4.216  13.515  0.00  0.00    +0.000 A 
ATOM     11  N   UNL     1       5.494   3.808  14.059  0.00  0.00    +0.000 NA
ATOM     12  C   UNL     1       5.443   4.371  15.249  0.00  0.00    +0.000 A 
ATOM     13  C   UNL     1       4.455   4.321  16.267  0.00  0.00    +0.000 A 
ENDBRANCH   3   5
BRANCH   1  14
ATOM     14  C   UNL     1       2.317   4.418  20.456  0.00  0.00    +0.000 C 
ATOM     15  C   UNL     1       2.190   3.350  21.599  0.00  0.00    +0.000 C 
ATOM     16  C   UNL     1       1.225   2.556  20.703  0.00  0.00    +0.000 C 
ATOM     17  C   UNL     1       0.975   3.840  19.897  0.00  0.00    +0.000 C 
BRANCH  14  18
ATOM     18  C   UNL     1       2.157   5.838  21.019  0.00  0.00    +0.000 C 
BRANCH  18  20
ATOM     19  C   UNL     1       1.653   8.056  20.355  0.00  0.00    +0.000 C 
ATOM     20  O   UNL     1       2.028   6.753  19.925  0.00  0.00    +0.000 OA
ENDBRANCH  18  20
ENDBRANCH  14  18
ENDBRANCH   1  14
TORSDOF 4
ENDMDL
MODEL 4
REMARK VINA RESULT:      -6.3      0.676      1.593
REMARK  Name = 
REMARK  5 active torsions:
REMARK  status: ('A' for Active; 'I' for Inactive)
REMARK    1  A    between atoms: C_1  and  O_2
REMARK    2  A    between atoms: O_2  and  C_3
REMARK    3  A    between atoms: C_3  and  C_4
REMARK    4  A    between atoms: C_4  and  C_5
REMARK    5  A    between atoms: N_7  and  C_8
REMARK                            x       y       z     vdW  Elec       q    Type
REMARK                         _______ _______ _______ _____ _____    ______ ____
ROOT
ATOM      1  C   UNL     1       2.710   4.811  18.031  0.00  0.00    +0.000 C 
ATOM      2  O   UNL     1       1.533   4.713  17.664  0.00  0.00    +0.000 OA
ATOM      3  N   UNL     1       3.209   5.955  18.647  0.00  0.00    +0.000 N 
ATOM      4  H   UNL     1       4.208   5.950  18.838  0.00  0.00    +0.000 HD
ENDROOT
BRANCH   3   5
ATOM      5  C   UNL     1       2.507   7.070  19.050  0.00  0.00    +0.000 A 
ATOM      6  C   UNL     1       1.975   7.051  20.417  0.00  0.00    +0.000 A 
ATOM      7  C   UNL     1       1.279   8.106  20.877  0.00  0.00    +0.000 A 
ATOM      8  N   UNL     1       1.047   9.184  20.029  0.00  0.00    +0.000 N 
ATOM      9  C   UNL     1       0.355  10.347  20.252  0.00  0.00    +0.000 A 
ATOM     10  C   UNL     1       0.414  11.041  19.065  0.00  0.00    +0.000 A 
ATOM     11  N   UNL     1       1.133  10.352  18.126  0.00  0.00    +0.000 NA
ATOM     12  C   UNL     1       1.515   9.242  18.724  0.00  0.00    +0.000 A 
ATOM     13  C   UNL     1       2.278   8.140  18.255  0.00  0.00    +0.000 A 
ENDBRANCH   3   5
BRANCH   1  14
ATOM     14  C   UNL     1       3.758   3.644  17.789  0.00  0.00    +0.000 C 
ATOM     15  C   UNL     1       3.103   2.227  17.624  0.00  0.00    +0.000 C 
ATOM     16  C   UNL     1       3.361   1.971  19.117  0.00  0.00    +0.000 C 
ATOM     17  C   UNL     1       4.427   3.078  19.086  0.00  0.00    +0.000 C 
BRANCH  14  18
ATOM     18  C   UNL     1       4.775   3.906  16.669  0.00  0.00    +0.000 C 
BRANCH  18  20
ATOM     19  C   UNL     1       7.034   4.583  16.907  0.00  0.00    +0.000 C 
ATOM     20  O   UNL     1       5.670   4.940  17.095  0.00  0.00    +0.000 OA
ENDBRANCH  18  20
ENDBRANCH  14  18
ENDBRANCH   1  14
TORSDOF 4
ENDMDL
MODEL 5
REMARK VINA RESULT:      -6.2      1.387      2.498
REMARK  Name = 
REMARK  5 active torsions:
REMARK  status: ('A' for Active; 'I' for Inactive)
REMARK    1  A    between atoms: C_1  and  O_2
REMARK    2  A    between atoms: O_2  and  C_3
REMARK    3  A    between atoms: C_3  and  C_4
REMARK    4  A    between atoms: C_4  and  C_5
REMARK    5  A    between atoms: N_7  and  C_8
REMARK                            x       y       z     vdW  Elec       q    Type
REMARK                         _______ _______ _______ _____ _____    ______ ____
ROOT
ATOM      1  C   UNL     1       2.601   5.124  18.463  0.00  0.00    +0.000 C 
ATOM      2  O   UNL     1       1.552   5.038  17.815  0.00  0.00    +0.000 OA
ATOM      3  N   UNL     1       3.003   6.301  19.086  0.00  0.00    +0.000 N 
ATOM      4  H   UNL     1       3.920   6.274  19.527  0.00  0.00    +0.000 HD
ENDROOT
BRANCH   3   5
ATOM      5  C   UNL     1       2.297   7.480  19.198  0.00  0.00    +0.000 A 
ATOM      6  C   UNL     1       2.257   8.334  18.006  0.00  0.00    +0.000 A 
ATOM      7  C   UNL     1       1.586   9.500  18.044  0.00  0.00    +0.000 A 
ATOM      8  N   UNL     1       0.972   9.888  19.229  0.00  0.00    +0.000 N 
ATOM      9  C   UNL     1       0.263  11.025  19.522  0.00  0.00    +0.000 A 
ATOM     10  C   UNL     1      -0.088  10.906  20.848  0.00  0.00    +0.000 A 
ATOM     11  N   UNL     1       0.369   9.727  21.375  0.00  0.00    +0.000 NA
ATOM     12  C   UNL     1       0.996   9.123  20.386  0.00  0.00    +0.000 A 
ATOM     13  C   UNL     1       1.677   7.878  20.331  0.00  0.00    +0.000 A 
ENDBRANCH   3   5
BRANCH   1  14
ATOM     14  C   UNL     1       3.598   3.896  18.600  0.00  0.00    +0.000 C 
ATOM     15  C   UNL     1       5.081   4.236  18.215  0.00  0.00    +0.000 C 
ATOM     16  C   UNL     1       4.806   3.686  16.806  0.00  0.00    +0.000 C 
ATOM     17  C   UNL     1       3.608   2.914  17.380  0.00  0.00    +0.000 C 
BRANCH  14  18
ATOM     18  C   UNL     1       3.541   3.160  19.946  0.00  0.00    +0.000 C 
BRANCH  18  20
ATOM     19  C   UNL     1       1.602   2.969  21.295  0.00  0.00    +0.000 C 
ATOM     20  O   UNL     1       2.613   3.839  20.801  0.00  0.00    +0.000 OA
ENDBRANCH  18  20
ENDBRANCH  14  18
ENDBRANCH   1  14
TORSDOF 4
ENDMDL
MODEL 6
REMARK VINA RESULT:      -6.2      1.286      2.640
REMARK  Name = 
REMARK  5 active torsions:
REMARK  status: ('A' for Active; 'I' for Inactive)
REMARK    1  A    between atoms: C_1  and  O_2
REMARK    2  A    between atoms: O_2  and  C_3
REMARK    3  A    between atoms: C_3  and  C_4
REMARK    4  A    between atoms: C_4  and  C_5
REMARK    5  A    between atoms: N_7  and  C_8
REMARK                            x       y       z     vdW  Elec       q    Type
REMARK                         _______ _______ _______ _____ _____    ______ ____
ROOT
ATOM      1  C   UNL     1       4.645   6.067  17.348  0.00  0.00    +0.000 C 
ATOM      2  O   UNL     1       5.399   7.037  17.481  0.00  0.00    +0.000 OA
ATOM      3  N   UNL     1       3.349   6.052  17.856  0.00  0.00    +0.000 N 
ATOM      4  H   UNL     1       2.847   5.173  17.750  0.00  0.00    +0.000 HD
ENDROOT
BRANCH   3   5
ATOM      5  C   UNL     1       2.665   7.088  18.454  0.00  0.00    +0.000 A 
ATOM      6  C   UNL     1       2.351   8.242  17.604  0.00  0.00    +0.000 A 
ATOM      7  C   UNL     1       1.686   9.290  18.123  0.00  0.00    +0.000 A 
ATOM      8  N   UNL     1       1.339   9.271  19.469  0.00  0.00    +0.000 N 
ATOM      9  C   UNL     1       0.692  10.215  20.225  0.00  0.00    +0.000 A 
ATOM     10  C   UNL     1       0.642   9.694  21.498  0.00  0.00    +0.000 A 
ATOM     11  N   UNL     1       1.222   8.454  21.546  0.00  0.00    +0.000 NA
ATOM     12  C   UNL     1       1.628   8.211  20.316  0.00  0.00    +0.000 A 
ATOM     13  C   UNL     1       2.301   7.093  19.756  0.00  0.00    +0.000 A 
ENDBRANCH   3   5
BRANCH   1  14
ATOM     14  C   UNL     1       5.115   4.740  16.614  0.00  0.00    +0.000 C 
ATOM     15  C   UNL     1       6.638   4.415  16.805  0.00  0.00    +0.000 C 
ATOM     16  C   UNL     1       6.919   5.102  15.459  0.00  0.00    +0.000 C 
ATOM     17  C   UNL     1       5.439   4.907  15.092  0.00  0.00    +0.000 C 
BRANCH  14  18
ATOM     18  C   UNL     1       4.255   3.501  16.900  0.00  0.00    +0.000 C 
BRANCH  18  20
ATOM     19  C   UNL     1       3.607   2.081  18.684  0.00  0.00    +0.000 C 
ATOM     20  O   UNL     1       4.108   3.361  18.318  0.00  0.00    +0.000 OA
ENDBRANCH  18  20
ENDBRANCH  14  18
ENDBRANCH   1  14
TORSDOF 4
ENDMDL
MODEL 7
REMARK VINA RESULT:      -6.1      1.387      2.135
REMARK  Name = 
REMARK  5 active torsions:
REMARK  status: ('A' for Active; 'I' for Inactive)
REMARK    1  A    between atoms: C_1  and  O_2
REMARK    2  A    between atoms: O_2  and  C_3
REMARK    3  A    between atoms: C_3  and  C_4
REMARK    4  A    between atoms: C_4  and  C_5
REMARK    5  A    between atoms: N_7  and  C_8
REMARK                            x       y       z     vdW  Elec       q    Type
REMARK                         _______ _______ _______ _____ _____    ______ ____
ROOT
ATOM      1  C   UNL     1       3.674   5.591  17.673  0.00  0.00    +0.000 C 
ATOM      2  O   UNL     1       2.613   4.959  17.634  0.00  0.00    +0.000 OA
ATOM      3  N   UNL     1       3.740   6.920  18.081  0.00  0.00    +0.000 N 
ATOM      4  H   UNL     1       4.655   7.359  18.002  0.00  0.00    +0.000 HD
ENDROOT
BRANCH   3   5
ATOM      5  C   UNL     1       2.725   7.693  18.601  0.00  0.00    +0.000 A 
ATOM      6  C   UNL     1       2.151   8.706  17.708  0.00  0.00    +0.000 A 
ATOM      7  C   UNL     1       1.156   9.498  18.150  0.00  0.00    +0.000 A 
ATOM      8  N   UNL     1       0.717   9.362  19.462  0.00  0.00    +0.000 N 
ATOM      9  C   UNL     1      -0.249  10.057  20.144  0.00  0.00    +0.000 A 
ATOM     10  C   UNL     1      -0.249   9.533  21.416  0.00  0.00    +0.000 A 
ATOM     11  N   UNL     1       0.674   8.527  21.535  0.00  0.00    +0.000 NA
ATOM     12  C   UNL     1       1.239   8.431  20.349  0.00  0.00    +0.000 A 
ATOM     13  C   UNL     1       2.265   7.575  19.867  0.00  0.00    +0.000 A 
ENDBRANCH   3   5
BRANCH   1  14
ATOM     14  C   UNL     1       5.049   4.939  17.220  0.00  0.00    +0.000 C 
ATOM     15  C   UNL     1       5.884   5.838  16.240  0.00  0.00    +0.000 C 
ATOM     16  C   UNL     1       5.277   5.057  15.062  0.00  0.00    +0.000 C 
ATOM     17  C   UNL     1       4.938   3.920  16.038  0.00  0.00    +0.000 C 
BRANCH  14  18
ATOM     18  C   UNL     1       5.931   4.420  18.365  0.00  0.00    +0.000 C 
BRANCH  18  20
ATOM     19  C   UNL     1       7.550   5.706  19.521  0.00  0.00    +0.000 C 
ATOM     20  O   UNL     1       6.164   5.492  19.286  0.00  0.00    +0.000 OA
ENDBRANCH  18  20
ENDBRANCH  14  18
ENDBRANCH   1  14
TORSDOF 4
ENDMDL
MODEL 8
REMARK VINA RESULT:      -6.0      0.816      1.096
REMARK  Name = 
REMARK  5 active torsions:
REMARK  status: ('A' for Active; 'I' for Inactive)
REMARK    1  A    between atoms: C_1  and  O_2
REMARK    2  A    between atoms: O_2  and  C_3
REMARK    3  A    between atoms: C_3  and  C_4
REMARK    4  A    between atoms: C_4  and  C_5
REMARK    5  A    between atoms: N_7  and  C_8
REMARK                            x       y       z     vdW  Elec       q    Type
REMARK                         _______ _______ _______ _____ _____    ______ ____
ROOT
ATOM      1  C   UNL     1       2.875   5.218  18.474  0.00  0.00    +0.000 C 
ATOM      2  O   UNL     1       1.842   5.014  17.826  0.00  0.00    +0.000 OA
ATOM      3  N   UNL     1       3.148   6.439  19.082  0.00  0.00    +0.000 N 
ATOM      4  H   UNL     1       4.061   6.514  19.526  0.00  0.00    +0.000 HD
ENDROOT
BRANCH   3   5
ATOM      5  C   UNL     1       2.322   7.538  19.177  0.00  0.00    +0.000 A 
ATOM      6  C   UNL     1       2.169   8.348  17.963  0.00  0.00    +0.000 A 
ATOM      7  C   UNL     1       1.377   9.436  17.984  0.00  0.00    +0.000 A 
ATOM      8  N   UNL     1       0.746   9.791  19.171  0.00  0.00    +0.000 N 
ATOM      9  C   UNL     1      -0.076  10.853  19.448  0.00  0.00    +0.000 A 
ATOM     10  C   UNL     1      -0.388  10.736  20.783  0.00  0.00    +0.000 A 
ATOM     11  N   UNL     1       0.202   9.629  21.333  0.00  0.00    +0.000 NA
ATOM     12  C   UNL     1       0.873   9.066  20.348  0.00  0.00    +0.000 A 
ATOM     13  C   UNL     1       1.683   7.900  20.312  0.00  0.00    +0.000 A 
ENDBRANCH   3   5
BRANCH   1  14
ATOM     14  C   UNL     1       3.995   4.103  18.629  0.00  0.00    +0.000 C 
ATOM     15  C   UNL     1       4.231   3.256  17.329  0.00  0.00    +0.000 C 
ATOM     16  C   UNL     1       3.278   2.190  17.891  0.00  0.00    +0.000 C 
ATOM     17  C   UNL     1       3.513   2.771  19.294  0.00  0.00    +0.000 C 
BRANCH  14  18
ATOM     18  C   UNL     1       5.329   4.599  19.205  0.00  0.00    +0.000 C 
BRANCH  18  20
ATOM     19  C   UNL     1       7.358   5.227  18.154  0.00  0.00    +0.000 C 
ATOM     20  O   UNL     1       6.385   4.204  18.321  0.00  0.00    +0.000 OA
ENDBRANCH  18  20
ENDBRANCH  14  18
ENDBRANCH   1  14
TORSDOF 4
ENDMDL
MODEL 9
REMARK VINA RESULT:      -6.0      1.448      2.942
REMARK  Name = 
REMARK  5 active torsions:
REMARK  status: ('A' for Active; 'I' for Inactive)
REMARK    1  A    between atoms: C_1  and  O_2
REMARK    2  A    between atoms: O_2  and  C_3
REMARK    3  A    between atoms: C_3  and  C_4
REMARK    4  A    between atoms: C_4  and  C_5
REMARK    5  A    between atoms: N_7  and  C_8
REMARK                            x       y       z     vdW  Elec       q    Type
REMARK                         _______ _______ _______ _____ _____    ______ ____
ROOT
ATOM      1  C   UNL     1       2.678   5.094  18.604  0.00  0.00    +0.000 C 
ATOM      2  O   UNL     1       1.659   5.041  17.906  0.00  0.00    +0.000 OA
ATOM      3  N   UNL     1       3.003   6.208  19.372  0.00  0.00    +0.000 N 
ATOM      4  H   UNL     1       3.903   6.167  19.846  0.00  0.00    +0.000 HD
ENDROOT
BRANCH   3   5
ATOM      5  C   UNL     1       2.242   7.337  19.585  0.00  0.00    +0.000 A 
ATOM      6  C   UNL     1       1.574   7.439  20.887  0.00  0.00    +0.000 A 
ATOM      7  C   UNL     1       0.813   8.515  21.163  0.00  0.00    +0.000 A 
ATOM      8  N   UNL     1       0.648   9.493  20.189  0.00  0.00    +0.000 N 
ATOM      9  C   UNL     1      -0.087  10.651  20.220  0.00  0.00    +0.000 A 
ATOM     10  C   UNL     1       0.080  11.224  18.980  0.00  0.00    +0.000 A 
ATOM     11  N   UNL     1       0.905  10.465  18.193  0.00  0.00    +0.000 NA
ATOM     12  C   UNL     1       1.245   9.433  18.938  0.00  0.00    +0.000 A 
ATOM     13  C   UNL     1       2.074   8.313  18.664  0.00  0.00    +0.000 A 
ENDBRANCH   3   5
BRANCH   1  14
ATOM     14  C   UNL     1       3.723   3.899  18.644  0.00  0.00    +0.000 C 
ATOM     15  C   UNL     1       5.195   4.332  18.315  0.00  0.00    +0.000 C 
ATOM     16  C   UNL     1       4.960   3.902  16.858  0.00  0.00    +0.000 C 
ATOM     17  C   UNL     1       3.787   3.034  17.341  0.00  0.00    +0.000 C 
BRANCH  14  18
ATOM     18  C   UNL     1       3.680   3.042  19.918  0.00  0.00    +0.000 C 
BRANCH  18  20
ATOM     19  C   UNL     1       1.783   2.729  21.304  0.00  0.00    +0.000 C 
ATOM     20  O   UNL     1       2.770   3.645  20.846  0.00  0.00    +0.000 OA
ENDBRANCH  18  20
ENDBRANCH  14  18
ENDBRANCH   1  14
TORSDOF 4
ENDMDL
