MODEL 1
REMARK VINA RESULT:      -7.7      0.000      0.000
REMARK  Name = 
REMARK  11 active torsions:
REMARK  status: ('A' for Active; 'I' for Inactive)
REMARK    1  A    between atoms: C_1  and  O_2
REMARK    2  A    between atoms: O_2  and  C_3
REMARK    3  A    between atoms: C_7  and  N_8
REMARK    4  A    between atoms: C_10  and  C_11
REMARK    5  A    between atoms: C_11  and  N_12
REMARK    6  A    between atoms: N_15  and  C_16
REMARK    7  A    between atoms: C_16  and  C_17
REMARK    8  A    between atoms: C_20  and  N_21
REMARK    9  A    between atoms: C_22  and  C_24
REMARK   10  A    between atoms: C_24  and  C_25
REMARK   11  A    between atoms: C_24  and  C_26
REMARK                            x       y       z     vdW  Elec       q    Type
REMARK                         _______ _______ _______ _____ _____    ______ ____
ROOT
ATOM      1  N   UNL     1       8.675   8.645  18.879  0.00  0.00    +0.000 N 
ATOM      2  C   UNL     1       9.031   9.965  18.936  0.00  0.00    +0.000 C 
ATOM      3  O   UNL     1       8.856  10.752  18.014  0.00  0.00    +0.000 OA
ATOM      4  N   UNL     1       9.586  10.307  20.136  0.00  0.00    +0.000 N 
ATOM      5  H   UNL     1       9.103   8.005  19.530  0.00  0.00    +0.000 HD
ATOM      6  H   UNL     1       9.607   9.631  20.881  0.00  0.00    +0.000 HD
ENDROOT
BRANCH   1   7
ATOM      7  C   UNL     1       8.077   8.079  17.683  0.00  0.00    +0.000 C 
BRANCH   7  10
ATOM      8  N   UNL     1       5.575   5.499  18.320  0.00  0.00    +0.000 N 
ATOM      9  C   UNL     1       5.893   6.684  17.703  0.00  0.00    +0.000 A 
ATOM     10  C   UNL     1       7.212   6.920  18.024  0.00  0.00    +0.000 A 
ATOM     11  N   UNL     1       7.665   5.892  18.804  0.00  0.00    +0.000 NA
ATOM     12  N   UNL     1       6.668   5.031  18.976  0.00  0.00    +0.000 NA
BRANCH   8  17
ATOM     13  C   UNL     1       2.286   4.151  19.433  0.00  0.00    +0.000 A 
ATOM     14  C   UNL     1       1.953   3.354  18.334  0.00  0.00    +0.000 A 
ATOM     15  C   UNL     1       2.791   3.288  17.223  0.00  0.00    +0.000 A 
ATOM     16  C   UNL     1       3.984   4.009  17.205  0.00  0.00    +0.000 A 
ATOM     17  C   UNL     1       4.339   4.800  18.308  0.00  0.00    +0.000 A 
ATOM     18  C   UNL     1       3.475   4.884  19.414  0.00  0.00    +0.000 A 
BRANCH  13  20
ATOM     19  C   UNL     1       1.286   2.903  21.196  0.00  0.00    +0.000 C 
ATOM     20  O   UNL     1       1.376   4.113  20.455  0.00  0.00    +0.000 OA
ENDBRANCH  13  20
ENDBRANCH   8  17
ENDBRANCH   7  10
ENDBRANCH   1   7
BRANCH   4  21
ATOM     21  C   UNL     1       9.976  11.668  20.443  0.00  0.00    +0.000 C 
BRANCH  21  22
ATOM     22  C   UNL     1       9.201  12.209  21.617  0.00  0.00    +0.000 A 
ATOM     23  C   UNL     1       8.475  11.329  22.423  0.00  0.00    +0.000 A 
ATOM     24  C   UNL     1       7.781  11.788  23.545  0.00  0.00    +0.000 A 
ATOM     25  C   UNL     1       7.799  13.136  23.901  0.00  0.00    +0.000 A 
ATOM     26  C   UNL     1       8.517  14.026  23.092  0.00  0.00    +0.000 A 
ATOM     27  C   UNL     1       9.215  13.566  21.960  0.00  0.00    +0.000 A 
BRANCH  25  28
ATOM     28  N   UNL     1       7.143  13.648  25.049  0.00  0.00    +0.000 N 
ATOM     29  C   UNL     1       5.799  13.981  25.143  0.00  0.00    +0.000 C 
ATOM     30  O   UNL     1       4.993  13.951  24.216  0.00  0.00    +0.000 OA
ATOM     31  H   UNL     1       7.713  13.762  25.877  0.00  0.00    +0.000 HD
BRANCH  29  32
ATOM     32  C   UNL     1       5.356  14.437  26.537  0.00  0.00    +0.000 C 
ATOM     33  C   UNL     1       5.716  13.358  27.567  0.00  0.00    +0.000 C 
ATOM     34  C   UNL     1       6.009  15.757  26.937  0.00  0.00    +0.000 C 
ENDBRANCH  29  32
ENDBRANCH  25  28
ENDBRANCH  21  22
ENDBRANCH   4  21
TORSDOF 8
ENDMDL
MODEL 2
REMARK VINA RESULT:      -7.6      4.339      8.665
REMARK  Name = 
REMARK  11 active torsions:
REMARK  status: ('A' for Active; 'I' for Inactive)
REMARK    1  A    between atoms: C_1  and  O_2
REMARK    2  A    between atoms: O_2  and  C_3
REMARK    3  A    between atoms: C_7  and  N_8
REMARK    4  A    between atoms: C_10  and  C_11
REMARK    5  A    between atoms: C_11  and  N_12
REMARK    6  A    between atoms: N_15  and  C_16
REMARK    7  A    between atoms: C_16  and  C_17
REMARK    8  A    between atoms: C_20  and  N_21
REMARK    9  A    between atoms: C_22  and  C_24
REMARK   10  A    between atoms: C_24  and  C_25
REMARK   11  A    between atoms: C_24  and  C_26
REMARK                            x       y       z     vdW  Elec       q    Type
REMARK                         _______ _______ _______ _____ _____    ______ ____
ROOT
ATOM      1  N   UNL     1       6.504   5.349  19.361  0.00  0.00    +0.000 N 
ATOM      2  C   UNL     1       5.235   5.412  18.856  0.00  0.00    +0.000 C 
ATOM      3  O   UNL     1       4.986   5.572  17.667  0.00  0.00    +0.000 OA
ATOM      4  N   UNL     1       4.280   5.263  19.821  0.00  0.00    +0.000 N 
ATOM      5  H   UNL     1       6.638   5.513  20.346  0.00  0.00    +0.000 HD
ATOM      6  H   UNL     1       4.559   5.036  20.761  0.00  0.00    +0.000 HD
ENDROOT
BRANCH   1   7
ATOM      7  C   UNL     1       7.663   5.497  18.498  0.00  0.00    +0.000 C 
BRANCH   7  10
ATOM      8  N   UNL     1       8.511   9.046  18.366  0.00  0.00    +0.000 N 
ATOM      9  C   UNL     1       8.544   7.867  19.070  0.00  0.00    +0.000 A 
ATOM     10  C   UNL     1       7.954   6.933  18.247  0.00  0.00    +0.000 A 
ATOM     11  N   UNL     1       7.592   7.543  17.078  0.00  0.00    +0.000 NA
ATOM     12  N   UNL     1       7.936   8.824  17.156  0.00  0.00    +0.000 NA
BRANCH   8  17
ATOM     13  C   UNL     1       9.086  12.725  18.408  0.00  0.00    +0.000 A 
ATOM     14  C   UNL     1      10.010  12.826  19.452  0.00  0.00    +0.000 A 
ATOM     15  C   UNL     1      10.414  11.694  20.156  0.00  0.00    +0.000 A 
ATOM     16  C   UNL     1       9.909  10.441  19.812  0.00  0.00    +0.000 A 
ATOM     17  C   UNL     1       8.994  10.322  18.756  0.00  0.00    +0.000 A 
ATOM     18  C   UNL     1       8.569  11.473  18.067  0.00  0.00    +0.000 A 
BRANCH  13  20
ATOM     19  C   UNL     1       7.412  14.217  17.612  0.00  0.00    +0.000 C 
ATOM     20  O   UNL     1       8.788  13.915  17.801  0.00  0.00    +0.000 OA
ENDBRANCH  13  20
ENDBRANCH   8  17
ENDBRANCH   7  10
ENDBRANCH   1   7
BRANCH   4  21
ATOM     21  C   UNL     1       2.866   5.229  19.505  0.00  0.00    +0.000 C 
BRANCH  21  22
ATOM     22  C   UNL     1       2.258   6.606  19.563  0.00  0.00    +0.000 A 
ATOM     23  C   UNL     1       1.668   7.046  20.751  0.00  0.00    +0.000 A 
ATOM     24  C   UNL     1       1.135   8.332  20.855  0.00  0.00    +0.000 A 
ATOM     25  C   UNL     1       1.181   9.221  19.782  0.00  0.00    +0.000 A 
ATOM     26  C   UNL     1       1.763   8.784  18.584  0.00  0.00    +0.000 A 
ATOM     27  C   UNL     1       2.300   7.488  18.476  0.00  0.00    +0.000 A 
BRANCH  25  28
ATOM     28  N   UNL     1       0.689  10.549  19.847  0.00  0.00    +0.000 N 
ATOM     29  C   UNL     1      -0.490  11.012  19.279  0.00  0.00    +0.000 C 
ATOM     30  O   UNL     1      -1.246  10.351  18.569  0.00  0.00    +0.000 OA
ATOM     31  H   UNL     1       1.247  11.209  20.371  0.00  0.00    +0.000 HD
BRANCH  29  32
ATOM     32  C   UNL     1      -0.803  12.481  19.581  0.00  0.00    +0.000 C 
ATOM     33  C   UNL     1      -0.515  13.332  18.337  0.00  0.00    +0.000 C 
ATOM     34  C   UNL     1      -2.256  12.678  20.004  0.00  0.00    +0.000 C 
ENDBRANCH  29  32
ENDBRANCH  25  28
ENDBRANCH  21  22
ENDBRANCH   4  21
TORSDOF 8
ENDMDL
MODEL 3
REMARK VINA RESULT:      -7.5      1.146      1.509
REMARK  Name = 
REMARK  11 active torsions:
REMARK  status: ('A' for Active; 'I' for Inactive)
REMARK    1  A    between atoms: C_1  and  O_2
REMARK    2  A    between atoms: O_2  and  C_3
REMARK    3  A    between atoms: C_7  and  N_8
REMARK    4  A    between atoms: C_10  and  C_11
REMARK    5  A    between atoms: C_11  and  N_12
REMARK    6  A    between atoms: N_15  and  C_16
REMARK    7  A    between atoms: C_16  and  C_17
REMARK    8  A    between atoms: C_20  and  N_21
REMARK    9  A    between atoms: C_22  and  C_24
REMARK   10  A    between atoms: C_24  and  C_25
REMARK   11  A    between atoms: C_24  and  C_26
REMARK                            x       y       z     vdW  Elec       q    Type
REMARK                         _______ _______ _______ _____ _____    ______ ____
ROOT
ATOM      1  N   UNL     1       8.609   8.642  18.779  0.00  0.00    +0.000 N 
ATOM      2  C   UNL     1       9.038   9.940  18.804  0.00  0.00    +0.000 C 
ATOM      3  O   UNL     1       8.862  10.729  17.885  0.00  0.00    +0.000 OA
ATOM      4  N   UNL     1       9.669  10.260  19.973  0.00  0.00    +0.000 N 
ATOM      5  H   UNL     1       9.032   7.984  19.414  0.00  0.00    +0.000 HD
ATOM      6  H   UNL     1       9.690   9.589  20.723  0.00  0.00    +0.000 HD
ENDROOT
BRANCH   1   7
ATOM      7  C   UNL     1       7.923   8.101  17.619  0.00  0.00    +0.000 C 
BRANCH   7  10
ATOM      8  N   UNL     1       5.758   5.242  18.305  0.00  0.00    +0.000 N 
ATOM      9  C   UNL     1       5.908   6.473  17.715  0.00  0.00    +0.000 A 
ATOM     10  C   UNL     1       7.211   6.844  17.967  0.00  0.00    +0.000 A 
ATOM     11  N   UNL     1       7.821   5.848  18.678  0.00  0.00    +0.000 NA
ATOM     12  N   UNL     1       6.935   4.877  18.876  0.00  0.00    +0.000 NA
BRANCH   8  17
ATOM     13  C   UNL     1       3.058   3.026  19.597  0.00  0.00    +0.000 A 
ATOM     14  C   UNL     1       2.403   2.702  18.406  0.00  0.00    +0.000 A 
ATOM     15  C   UNL     1       2.830   3.236  17.192  0.00  0.00    +0.000 A 
ATOM     16  C   UNL     1       3.930   4.090  17.153  0.00  0.00    +0.000 A 
ATOM     17  C   UNL     1       4.608   4.412  18.339  0.00  0.00    +0.000 A 
ATOM     18  C   UNL     1       4.155   3.892  19.565  0.00  0.00    +0.000 A 
BRANCH  13  20
ATOM     19  C   UNL     1       1.261   2.870  21.150  0.00  0.00    +0.000 C 
ATOM     20  O   UNL     1       2.537   2.423  20.710  0.00  0.00    +0.000 OA
ENDBRANCH  13  20
ENDBRANCH   8  17
ENDBRANCH   7  10
ENDBRANCH   1   7
BRANCH   4  21
ATOM     21  C   UNL     1      10.148  11.600  20.247  0.00  0.00    +0.000 C 
BRANCH  21  22
ATOM     22  C   UNL     1       9.456  12.195  21.445  0.00  0.00    +0.000 A 
ATOM     23  C   UNL     1       9.652  13.544  21.750  0.00  0.00    +0.000 A 
ATOM     24  C   UNL     1       8.992  14.141  22.827  0.00  0.00    +0.000 A 
ATOM     25  C   UNL     1       8.111  13.412  23.625  0.00  0.00    +0.000 A 
ATOM     26  C   UNL     1       7.916  12.057  23.332  0.00  0.00    +0.000 A 
ATOM     27  C   UNL     1       8.581  11.453  22.248  0.00  0.00    +0.000 A 
BRANCH  25  28
ATOM     28  N   UNL     1       7.388  13.978  24.706  0.00  0.00    +0.000 N 
ATOM     29  C   UNL     1       7.888  14.247  25.972  0.00  0.00    +0.000 C 
ATOM     30  O   UNL     1       9.017  13.962  26.366  0.00  0.00    +0.000 OA
ATOM     31  H   UNL     1       6.423  14.220  24.522  0.00  0.00    +0.000 HD
BRANCH  29  32
ATOM     32  C   UNL     1       6.892  14.933  26.913  0.00  0.00    +0.000 C 
ATOM     33  C   UNL     1       5.491  14.900  26.288  0.00  0.00    +0.000 C 
ATOM     34  C   UNL     1       6.852  14.265  28.284  0.00  0.00    +0.000 C 
ENDBRANCH  29  32
ENDBRANCH  25  28
ENDBRANCH  21  22
ENDBRANCH   4  21
TORSDOF 8
ENDMDL
MODEL 4
REMARK VINA RESULT:      -7.4      4.176      8.624
REMARK  Name = 
REMARK  11 active torsions:
REMARK  status: ('A' for Active; 'I' for Inactive)
REMARK    1  A    between atoms: C_1  and  O_2
REMARK    2  A    between atoms: O_2  and  C_3
REMARK    3  A    between atoms: C_7  and  N_8
REMARK    4  A    between atoms: C_10  and  C_11
REMARK    5  A    between atoms: C_11  and  N_12
REMARK    6  A    between atoms: N_15  and  C_16
REMARK    7  A    between atoms: C_16  and  C_17
REMARK    8  A    between atoms: C_20  and  N_21
REMARK    9  A    between atoms: C_22  and  C_24
REMARK   10  A    between atoms: C_24  and  C_25
REMARK   11  A    between atoms: C_24  and  C_26
REMARK                            x       y       z     vdW  Elec       q    Type
REMARK                         _______ _______ _______ _____ _____    ______ ____
ROOT
ATOM      1  N   UNL     1       6.225   5.247  17.758  0.00  0.00    +0.000 N 
ATOM      2  C   UNL     1       5.178   5.286  18.637  0.00  0.00    +0.000 C 
ATOM      3  O   UNL     1       5.299   5.574  19.821  0.00  0.00    +0.000 OA
ATOM      4  N   UNL     1       3.986   4.983  18.045  0.00  0.00    +0.000 N 
ATOM      5  H   UNL     1       6.113   4.730  16.901  0.00  0.00    +0.000 HD
ATOM      6  H   UNL     1       3.948   4.853  17.047  0.00  0.00    +0.000 HD
ENDROOT
BRANCH   1   7
ATOM      7  C   UNL     1       7.582   5.529  18.193  0.00  0.00    +0.000 C 
BRANCH   7  10
ATOM      8  N   UNL     1       8.535   9.048  18.384  0.00  0.00    +0.000 N 
ATOM      9  C   UNL     1       8.656   7.780  18.898  0.00  0.00    +0.000 A 
ATOM     10  C   UNL     1       7.878   6.982  18.089  0.00  0.00    +0.000 A 
ATOM     11  N   UNL     1       7.319   7.759  17.112  0.00  0.00    +0.000 NA
ATOM     12  N   UNL     1       7.726   9.011  17.295  0.00  0.00    +0.000 NA
BRANCH   8  17
ATOM     13  C   UNL     1       9.679  11.762  20.664  0.00  0.00    +0.000 A 
ATOM     14  C   UNL     1      10.236  12.652  19.742  0.00  0.00    +0.000 A 
ATOM     15  C   UNL     1      10.263  12.343  18.383  0.00  0.00    +0.000 A 
ATOM     16  C   UNL     1       9.716  11.144  17.929  0.00  0.00    +0.000 A 
ATOM     17  C   UNL     1       9.138  10.249  18.842  0.00  0.00    +0.000 A 
ATOM     18  C   UNL     1       9.140  10.554  20.215  0.00  0.00    +0.000 A 
BRANCH  13  20
ATOM     19  C   UNL     1       8.514  12.746  22.491  0.00  0.00    +0.000 C 
ATOM     20  O   UNL     1       9.714  12.198  21.961  0.00  0.00    +0.000 OA
ENDBRANCH  13  20
ENDBRANCH   8  17
ENDBRANCH   7  10
ENDBRANCH   1   7
BRANCH   4  21
ATOM     21  C   UNL     1       2.733   5.027  18.771  0.00  0.00    +0.000 C 
BRANCH  21  22
ATOM     22  C   UNL     1       2.298   6.446  19.029  0.00  0.00    +0.000 A 
ATOM     23  C   UNL     1       2.301   7.366  17.977  0.00  0.00    +0.000 A 
ATOM     24  C   UNL     1       1.862   8.678  18.169  0.00  0.00    +0.000 A 
ATOM     25  C   UNL     1       1.401   9.109  19.412  0.00  0.00    +0.000 A 
ATOM     26  C   UNL     1       1.404   8.195  20.474  0.00  0.00    +0.000 A 
ATOM     27  C   UNL     1       1.846   6.873  20.284  0.00  0.00    +0.000 A 
BRANCH  25  28
ATOM     28  N   UNL     1       0.910  10.418  19.651  0.00  0.00    +0.000 N 
ATOM     29  C   UNL     1      -0.197  10.998  19.049  0.00  0.00    +0.000 C 
ATOM     30  O   UNL     1      -0.874  10.485  18.160  0.00  0.00    +0.000 OA
ATOM     31  H   UNL     1       1.411  10.966  20.337  0.00  0.00    +0.000 HD
BRANCH  29  32
ATOM     32  C   UNL     1      -0.534  12.402  19.562  0.00  0.00    +0.000 C 
ATOM     33  C   UNL     1      -0.429  13.407  18.408  0.00  0.00    +0.000 C 
ATOM     34  C   UNL     1      -1.935  12.466  20.164  0.00  0.00    +0.000 C 
ENDBRANCH  29  32
ENDBRANCH  25  28
ENDBRANCH  21  22
ENDBRANCH   4  21
TORSDOF 8
ENDMDL
MODEL 5
REMARK VINA RESULT:      -7.4      7.300      8.855
REMARK  Name = 
REMARK  11 active torsions:
REMARK  status: ('A' for Active; 'I' for Inactive)
REMARK    1  A    between atoms: C_1  and  O_2
REMARK    2  A    between atoms: O_2  and  C_3
REMARK    3  A    between atoms: C_7  and  N_8
REMARK    4  A    between atoms: C_10  and  C_11
REMARK    5  A    between atoms: C_11  and  N_12
REMARK    6  A    between atoms: N_15  and  C_16
REMARK    7  A    between atoms: C_16  and  C_17
REMARK    8  A    between atoms: C_20  and  N_21
REMARK    9  A    between atoms: C_22  and  C_24
REMARK   10  A    between atoms: C_24  and  C_25
REMARK   11  A    between atoms: C_24  and  C_26
REMARK                            x       y       z     vdW  Elec       q    Type
REMARK                         _______ _______ _______ _____ _____    ______ ____
ROOT
ATOM      1  N   UNL     1       1.041   8.143  20.480  0.00  0.00    +0.000 N 
ATOM      2  C   UNL     1       0.912   9.215  21.321  0.00  0.00    +0.000 C 
ATOM      3  O   UNL     1       0.966   9.128  22.541  0.00  0.00    +0.000 OA
ATOM      4  N   UNL     1       0.731  10.389  20.647  0.00  0.00    +0.000 N 
ATOM      5  H   UNL     1       0.700   8.230  19.536  0.00  0.00    +0.000 HD
ATOM      6  H   UNL     1       0.796  10.398  19.643  0.00  0.00    +0.000 HD
ENDROOT
BRANCH   1   7
ATOM      7  C   UNL     1       1.231   6.801  20.999  0.00  0.00    +0.000 C 
BRANCH   7  10
ATOM      8  N   UNL     1       3.578   5.300  18.638  0.00  0.00    +0.000 N 
ATOM      9  C   UNL     1       3.140   6.430  19.286  0.00  0.00    +0.000 A 
ATOM     10  C   UNL     1       2.115   6.009  20.104  0.00  0.00    +0.000 A 
ATOM     11  N   UNL     1       1.958   4.659  19.953  0.00  0.00    +0.000 NA
ATOM     12  N   UNL     1       2.852   4.235  19.065  0.00  0.00    +0.000 NA
BRANCH   8  17
ATOM     13  C   UNL     1       6.676   6.023  16.701  0.00  0.00    +0.000 A 
ATOM     14  C   UNL     1       6.629   4.996  15.755  0.00  0.00    +0.000 A 
ATOM     15  C   UNL     1       5.602   4.055  15.776  0.00  0.00    +0.000 A 
ATOM     16  C   UNL     1       4.597   4.140  16.739  0.00  0.00    +0.000 A 
ATOM     17  C   UNL     1       4.622   5.175  17.685  0.00  0.00    +0.000 A 
ATOM     18  C   UNL     1       5.677   6.106  17.675  0.00  0.00    +0.000 A 
BRANCH  13  20
ATOM     19  C   UNL     1       7.849   7.933  17.501  0.00  0.00    +0.000 C 
ATOM     20  O   UNL     1       7.734   6.878  16.555  0.00  0.00    +0.000 OA
ENDBRANCH  13  20
ENDBRANCH   8  17
ENDBRANCH   7  10
ENDBRANCH   1   7
BRANCH   4  21
ATOM     21  C   UNL     1       0.637  11.662  21.333  0.00  0.00    +0.000 C 
BRANCH  21  22
ATOM     22  C   UNL     1      -0.794  12.009  21.652  0.00  0.00    +0.000 A 
ATOM     23  C   UNL     1      -1.646  12.415  20.622  0.00  0.00    +0.000 A 
ATOM     24  C   UNL     1      -2.990  12.701  20.872  0.00  0.00    +0.000 A 
ATOM     25  C   UNL     1      -3.525  12.584  22.154  0.00  0.00    +0.000 A 
ATOM     26  C   UNL     1      -2.675  12.187  23.194  0.00  0.00    +0.000 A 
ATOM     27  C   UNL     1      -1.320  11.899  22.945  0.00  0.00    +0.000 A 
BRANCH  25  28
ATOM     28  N   UNL     1      -4.890  12.826  22.455  0.00  0.00    +0.000 N 
ATOM     29  C   UNL     1      -5.441  14.045  22.824  0.00  0.00    +0.000 C 
ATOM     30  O   UNL     1      -4.810  15.082  23.018  0.00  0.00    +0.000 OA
ATOM     31  H   UNL     1      -5.514  12.035  22.375  0.00  0.00    +0.000 HD
BRANCH  29  32
ATOM     32  C   UNL     1      -6.962  14.021  23.012  0.00  0.00    +0.000 C 
ATOM     33  C   UNL     1      -7.639  13.735  21.666  0.00  0.00    +0.000 C 
ATOM     34  C   UNL     1      -7.392  12.968  24.030  0.00  0.00    +0.000 C 
ENDBRANCH  29  32
ENDBRANCH  25  28
ENDBRANCH  21  22
ENDBRANCH   4  21
TORSDOF 8
ENDMDL
MODEL 6
REMARK VINA RESULT:      -7.3      4.573      6.434
REMARK  Name = 
REMARK  11 active torsions:
REMARK  status: ('A' for Active; 'I' for Inactive)
REMARK    1  A    between atoms: C_1  and  O_2
REMARK    2  A    between atoms: O_2  and  C_3
REMARK    3  A    between atoms: C_7  and  N_8
REMARK    4  A    between atoms: C_10  and  C_11
REMARK    5  A    between atoms: C_11  and  N_12
REMARK    6  A    between atoms: N_15  and  C_16
REMARK    7  A    between atoms: C_16  and  C_17
REMARK    8  A    between atoms: C_20  and  N_21
REMARK    9  A    between atoms: C_22  and  C_24
REMARK   10  A    between atoms: C_24  and  C_25
REMARK   11  A    between atoms: C_24  and  C_26
REMARK                            x       y       z     vdW  Elec       q    Type
REMARK                         _______ _______ _______ _____ _____    ______ ____
ROOT
ATOM      1  N   UNL     1       1.486  12.039  19.763  0.00  0.00    +0.000 N 
ATOM      2  C   UNL     1       2.048  13.102  19.109  0.00  0.00    +0.000 C 
ATOM      3  O   UNL     1       1.887  13.324  17.916  0.00  0.00    +0.000 OA
ATOM      4  N   UNL     1       2.792  13.891  19.938  0.00  0.00    +0.000 N 
ATOM      5  H   UNL     1       1.884  11.751  20.642  0.00  0.00    +0.000 HD
ATOM      6  H   UNL     1       2.799  13.702  20.927  0.00  0.00    +0.000 HD
ENDROOT
BRANCH   1   7
ATOM      7  C   UNL     1       0.664  11.073  19.056  0.00  0.00    +0.000 C 
BRANCH   7  10
ATOM      8  N   UNL     1       2.198   7.780  18.690  0.00  0.00    +0.000 N 
ATOM      9  C   UNL     1       1.852   8.974  18.106  0.00  0.00    +0.000 A 
ATOM     10  C   UNL     1       1.276   9.719  19.111  0.00  0.00    +0.000 A 
ATOM     11  N   UNL     1       1.293   8.987  20.266  0.00  0.00    +0.000 NA
ATOM     12  N   UNL     1       1.857   7.813  20.004  0.00  0.00    +0.000 NA
BRANCH   8  17
ATOM     13  C   UNL     1       2.782   4.303  17.488  0.00  0.00    +0.000 A 
ATOM     14  C   UNL     1       4.094   4.413  17.020  0.00  0.00    +0.000 A 
ATOM     15  C   UNL     1       4.768   5.631  17.072  0.00  0.00    +0.000 A 
ATOM     16  C   UNL     1       4.140   6.754  17.609  0.00  0.00    +0.000 A 
ATOM     17  C   UNL     1       2.829   6.655  18.097  0.00  0.00    +0.000 A 
ATOM     18  C   UNL     1       2.144   5.429  18.016  0.00  0.00    +0.000 A 
BRANCH  13  20
ATOM     19  C   UNL     1       2.814   2.034  18.204  0.00  0.00    +0.000 C 
ATOM     20  O   UNL     1       2.248   3.047  17.383  0.00  0.00    +0.000 OA
ENDBRANCH  13  20
ENDBRANCH   8  17
ENDBRANCH   7  10
ENDBRANCH   1   7
BRANCH   4  21
ATOM     21  C   UNL     1       3.426  15.110  19.476  0.00  0.00    +0.000 C 
BRANCH  21  22
ATOM     22  C   UNL     1       4.898  14.905  19.234  0.00  0.00    +0.000 A 
ATOM     23  C   UNL     1       5.345  14.592  17.948  0.00  0.00    +0.000 A 
ATOM     24  C   UNL     1       6.706  14.440  17.677  0.00  0.00    +0.000 A 
ATOM     25  C   UNL     1       7.663  14.603  18.678  0.00  0.00    +0.000 A 
ATOM     26  C   UNL     1       7.223  14.907  19.973  0.00  0.00    +0.000 A 
ATOM     27  C   UNL     1       5.851  15.060  20.248  0.00  0.00    +0.000 A 
BRANCH  25  28
ATOM     28  N   UNL     1       9.058  14.495  18.449  0.00  0.00    +0.000 N 
ATOM     29  C   UNL     1       9.805  13.327  18.488  0.00  0.00    +0.000 C 
ATOM     30  O   UNL     1       9.377  12.218  18.803  0.00  0.00    +0.000 OA
ATOM     31  H   UNL     1       9.542  15.353  18.220  0.00  0.00    +0.000 HD
BRANCH  29  32
ATOM     32  C   UNL     1      11.282  13.507  18.121  0.00  0.00    +0.000 C 
ATOM     33  C   UNL     1      11.438  13.472  16.595  0.00  0.00    +0.000 C 
ATOM     34  C   UNL     1      11.845  14.820  18.657  0.00  0.00    +0.000 C 
ENDBRANCH  29  32
ENDBRANCH  25  28
ENDBRANCH  21  22
ENDBRANCH   4  21
TORSDOF 8
ENDMDL
MODEL 7
REMARK VINA RESULT:      -7.3      1.590      2.018
REMARK  Name = 
REMARK  11 active torsions:
REMARK  status: ('A' for Active; 'I' for Inactive)
REMARK    1  A    between atoms: C_1  and  O_2
REMARK    2  A    between atoms: O_2  and  C_3
REMARK    3  A    between atoms: C_7  and  N_8
REMARK    4  A    between atoms: C_10  and  C_11
REMARK    5  A    between atoms: C_11  and  N_12
REMARK    6  A    between atoms: N_15  and  C_16
REMARK    7  A    between atoms: C_16  and  C_17
REMARK    8  A    between atoms: C_20  and  N_21
REMARK    9  A    between atoms: C_22  and  C_24
REMARK   10  A    between atoms: C_24  and  C_25
REMARK   11  A    between atoms: C_24  and  C_26
REMARK                            x       y       z     vdW  Elec       q    Type
REMARK                         _______ _______ _______ _____ _____    ______ ____
ROOT
ATOM      1  N   UNL     1       8.562   8.569  18.830  0.00  0.00    +0.000 N 
ATOM      2  C   UNL     1       9.076   9.836  18.803  0.00  0.00    +0.000 C 
ATOM      3  O   UNL     1       9.019  10.569  17.824  0.00  0.00    +0.000 OA
ATOM      4  N   UNL     1       9.644  10.195  19.992  0.00  0.00    +0.000 N 
ATOM      5  H   UNL     1       8.893   7.931  19.536  0.00  0.00    +0.000 HD
ATOM      6  H   UNL     1       9.566   9.578  20.784  0.00  0.00    +0.000 HD
ENDROOT
BRANCH   1   7
ATOM      7  C   UNL     1       7.923   7.993  17.659  0.00  0.00    +0.000 C 
BRANCH   7  10
ATOM      8  N   UNL     1       5.443   5.403  18.346  0.00  0.00    +0.000 N 
ATOM      9  C   UNL     1       5.777   6.540  17.651  0.00  0.00    +0.000 A 
ATOM     10  C   UNL     1       7.063   6.843  18.040  0.00  0.00    +0.000 A 
ATOM     11  N   UNL     1       7.485   5.899  18.936  0.00  0.00    +0.000 NA
ATOM     12  N   UNL     1       6.498   5.027  19.113  0.00  0.00    +0.000 NA
BRANCH   8  17
ATOM     13  C   UNL     1       2.244   3.844  19.442  0.00  0.00    +0.000 A 
ATOM     14  C   UNL     1       1.887   3.152  18.281  0.00  0.00    +0.000 A 
ATOM     15  C   UNL     1       2.679   3.226  17.138  0.00  0.00    +0.000 A 
ATOM     16  C   UNL     1       3.850   3.983  17.147  0.00  0.00    +0.000 A 
ATOM     17  C   UNL     1       4.229   4.670  18.310  0.00  0.00    +0.000 A 
ATOM     18  C   UNL     1       3.410   4.613  19.453  0.00  0.00    +0.000 A 
BRANCH  13  20
ATOM     19  C   UNL     1       1.903   3.076  21.669  0.00  0.00    +0.000 C 
ATOM     20  O   UNL     1       1.379   3.672  20.489  0.00  0.00    +0.000 OA
ENDBRANCH  13  20
ENDBRANCH   8  17
ENDBRANCH   7  10
ENDBRANCH   1   7
BRANCH   4  21
ATOM     21  C   UNL     1      10.193  11.518  20.214  0.00  0.00    +0.000 C 
BRANCH  21  22
ATOM     22  C   UNL     1       9.176  12.436  20.839  0.00  0.00    +0.000 A 
ATOM     23  C   UNL     1       8.748  13.565  20.136  0.00  0.00    +0.000 A 
ATOM     24  C   UNL     1       7.773  14.414  20.665  0.00  0.00    +0.000 A 
ATOM     25  C   UNL     1       7.191  14.158  21.906  0.00  0.00    +0.000 A 
ATOM     26  C   UNL     1       7.621  13.033  22.621  0.00  0.00    +0.000 A 
ATOM     27  C   UNL     1       8.604  12.177  22.090  0.00  0.00    +0.000 A 
BRANCH  25  28
ATOM     28  N   UNL     1       6.172  14.967  22.471  0.00  0.00    +0.000 N 
ATOM     29  C   UNL     1       4.819  14.663  22.517  0.00  0.00    +0.000 C 
ATOM     30  O   UNL     1       4.294  13.676  22.005  0.00  0.00    +0.000 OA
ATOM     31  H   UNL     1       6.471  15.837  22.891  0.00  0.00    +0.000 HD
BRANCH  29  32
ATOM     32  C   UNL     1       3.964  15.694  23.260  0.00  0.00    +0.000 C 
ATOM     33  C   UNL     1       4.846  16.482  24.237  0.00  0.00    +0.000 C 
ATOM     34  C   UNL     1       3.280  16.664  22.301  0.00  0.00    +0.000 C 
ENDBRANCH  29  32
ENDBRANCH  25  28
ENDBRANCH  21  22
ENDBRANCH   4  21
TORSDOF 8
ENDMDL
MODEL 8
REMARK VINA RESULT:      -7.3      6.251      7.700
REMARK  Name = 
REMARK  11 active torsions:
REMARK  status: ('A' for Active; 'I' for Inactive)
REMARK    1  A    between atoms: C_1  and  O_2
REMARK    2  A    between atoms: O_2  and  C_3
REMARK    3  A    between atoms: C_7  and  N_8
REMARK    4  A    between atoms: C_10  and  C_11
REMARK    5  A    between atoms: C_11  and  N_12
REMARK    6  A    between atoms: N_15  and  C_16
REMARK    7  A    between atoms: C_16  and  C_17
REMARK    8  A    between atoms: C_20  and  N_21
REMARK    9  A    between atoms: C_22  and  C_24
REMARK   10  A    between atoms: C_24  and  C_25
REMARK   11  A    between atoms: C_24  and  C_26
REMARK                            x       y       z     vdW  Elec       q    Type
REMARK                         _______ _______ _______ _____ _____    ______ ____
ROOT
ATOM      1  N   UNL     1       3.876   5.610  19.784  0.00  0.00    +0.000 N 
ATOM      2  C   UNL     1       2.540   5.804  20.003  0.00  0.00    +0.000 C 
ATOM      3  O   UNL     1       1.678   4.993  19.689  0.00  0.00    +0.000 OA
ATOM      4  N   UNL     1       2.279   6.993  20.622  0.00  0.00    +0.000 N 
ATOM      5  H   UNL     1       4.485   6.412  19.790  0.00  0.00    +0.000 HD
ATOM      6  H   UNL     1       3.045   7.564  20.940  0.00  0.00    +0.000 HD
ENDROOT
BRANCH   1   7
ATOM      7  C   UNL     1       4.362   4.410  19.126  0.00  0.00    +0.000 C 
BRANCH   7  10
ATOM      8  N   UNL     1       5.935   4.809  15.856  0.00  0.00    +0.000 N 
ATOM      9  C   UNL     1       5.052   4.113  16.645  0.00  0.00    +0.000 A 
ATOM     10  C   UNL     1       5.074   4.750  17.867  0.00  0.00    +0.000 A 
ATOM     11  N   UNL     1       5.941   5.805  17.797  0.00  0.00    +0.000 NA
ATOM     12  N   UNL     1       6.456   5.837  16.572  0.00  0.00    +0.000 NA
BRANCH   8  17
ATOM     13  C   UNL     1       5.865   3.437  12.394  0.00  0.00    +0.000 A 
ATOM     14  C   UNL     1       7.017   4.024  11.864  0.00  0.00    +0.000 A 
ATOM     15  C   UNL     1       7.791   4.890  12.633  0.00  0.00    +0.000 A 
ATOM     16  C   UNL     1       7.430   5.167  13.950  0.00  0.00    +0.000 A 
ATOM     17  C   UNL     1       6.285   4.572  14.501  0.00  0.00    +0.000 A 
ATOM     18  C   UNL     1       5.492   3.720  13.710  0.00  0.00    +0.000 A 
BRANCH  13  20
ATOM     19  C   UNL     1       3.908   2.996  11.114  0.00  0.00    +0.000 C 
ATOM     20  O   UNL     1       5.209   2.602  11.530  0.00  0.00    +0.000 OA
ENDBRANCH  13  20
ENDBRANCH   8  17
ENDBRANCH   7  10
ENDBRANCH   1   7
BRANCH   4  21
ATOM     21  C   UNL     1       0.938   7.379  21.013  0.00  0.00    +0.000 C 
BRANCH  21  22
ATOM     22  C   UNL     1       0.686   8.838  20.740  0.00  0.00    +0.000 A 
ATOM     23  C   UNL     1       0.121   9.635  21.739  0.00  0.00    +0.000 A 
ATOM     24  C   UNL     1      -0.086  11.001  21.537  0.00  0.00    +0.000 A 
ATOM     25  C   UNL     1       0.272  11.615  20.337  0.00  0.00    +0.000 A 
ATOM     26  C   UNL     1       0.830  10.821  19.327  0.00  0.00    +0.000 A 
ATOM     27  C   UNL     1       1.038   9.444  19.528  0.00  0.00    +0.000 A 
BRANCH  25  28
ATOM     28  N   UNL     1       0.118  13.004  20.096  0.00  0.00    +0.000 N 
ATOM     29  C   UNL     1      -1.085  13.678  19.942  0.00  0.00    +0.000 C 
ATOM     30  O   UNL     1      -2.197  13.154  19.918  0.00  0.00    +0.000 OA
ATOM     31  H   UNL     1       0.969  13.548  20.049  0.00  0.00    +0.000 HD
BRANCH  29  32
ATOM     32  C   UNL     1      -0.943  15.194  19.768  0.00  0.00    +0.000 C 
ATOM     33  C   UNL     1      -0.755  15.851  21.142  0.00  0.00    +0.000 C 
ATOM     34  C   UNL     1       0.234  15.556  18.868  0.00  0.00    +0.000 C 
ENDBRANCH  29  32
ENDBRANCH  25  28
ENDBRANCH  21  22
ENDBRANCH   4  21
TORSDOF 8
ENDMDL
MODEL 9
REMARK VINA RESULT:      -7.2      7.841     11.842
REMARK  Name = 
REMARK  11 active torsions:
REMARK  status: ('A' for Active; 'I' for Inactive)
REMARK    1  A    between atoms: C_1  and  O_2
REMARK    2  A    between atoms: O_2  and  C_3
REMARK    3  A    between atoms: C_7  and  N_8
REMARK    4  A    between atoms: C_10  and  C_11
REMARK    5  A    between atoms: C_11  and  N_12
REMARK    6  A    between atoms: N_15  and  C_16
REMARK    7  A    between atoms: C_16  and  C_17
REMARK    8  A    between atoms: C_20  and  N_21
REMARK    9  A    between atoms: C_22  and  C_24
REMARK   10  A    between atoms: C_24  and  C_25
REMARK   11  A    between atoms: C_24  and  C_26
REMARK                            x       y       z     vdW  Elec       q    Type
REMARK                         _______ _______ _______ _____ _____    ______ ____
ROOT
ATOM      1  N   UNL     1       0.233  11.258  20.661  0.00  0.00    +0.000 N 
ATOM      2  C   UNL     1       0.755  10.134  21.240  0.00  0.00    +0.000 C 
ATOM      3  O   UNL     1       1.187  10.102  22.386  0.00  0.00    +0.000 OA
ATOM      4  N   UNL     1       0.728   9.055  20.405  0.00  0.00    +0.000 N 
ATOM      5  H   UNL     1       0.175  11.297  19.656  0.00  0.00    +0.000 HD
ATOM      6  H   UNL     1       0.269   9.131  19.512  0.00  0.00    +0.000 HD
ENDROOT
BRANCH   1   7
ATOM      7  C   UNL     1       0.180  12.518  21.381  0.00  0.00    +0.000 C 
BRANCH   7  10
ATOM      8  N   UNL     1      -3.232  12.817  22.647  0.00  0.00    +0.000 N 
ATOM      9  C   UNL     1      -2.402  12.477  21.606  0.00  0.00    +0.000 A 
ATOM     10  C   UNL     1      -1.123  12.671  22.080  0.00  0.00    +0.000 A 
ATOM     11  N   UNL     1      -1.195  13.104  23.375  0.00  0.00    +0.000 NA
ATOM     12  N   UNL     1      -2.478  13.187  23.714  0.00  0.00    +0.000 NA
BRANCH   8  17
ATOM     13  C   UNL     1      -6.781  12.608  21.538  0.00  0.00    +0.000 A 
ATOM     14  C   UNL     1      -7.440  12.842  22.748  0.00  0.00    +0.000 A 
ATOM     15  C   UNL     1      -6.719  13.034  23.925  0.00  0.00    +0.000 A 
ATOM     16  C   UNL     1      -5.325  13.011  23.901  0.00  0.00    +0.000 A 
ATOM     17  C   UNL     1      -4.650  12.794  22.691  0.00  0.00    +0.000 A 
ATOM     18  C   UNL     1      -5.385  12.573  21.512  0.00  0.00    +0.000 A 
BRANCH  13  20
ATOM     19  C   UNL     1      -7.026  11.988  19.253  0.00  0.00    +0.000 C 
ATOM     20  O   UNL     1      -7.614  12.445  20.464  0.00  0.00    +0.000 OA
ENDBRANCH  13  20
ENDBRANCH   8  17
ENDBRANCH   7  10
ENDBRANCH   1   7
BRANCH   4  21
ATOM     21  C   UNL     1       1.170   7.741  20.830  0.00  0.00    +0.000 C 
BRANCH  21  22
ATOM     22  C   UNL     1       2.202   7.178  19.889  0.00  0.00    +0.000 A 
ATOM     23  C   UNL     1       2.869   5.999  20.229  0.00  0.00    +0.000 A 
ATOM     24  C   UNL     1       3.800   5.423  19.361  0.00  0.00    +0.000 A 
ATOM     25  C   UNL     1       4.087   6.003  18.125  0.00  0.00    +0.000 A 
ATOM     26  C   UNL     1       3.429   7.191  17.781  0.00  0.00    +0.000 A 
ATOM     27  C   UNL     1       2.492   7.773  18.655  0.00  0.00    +0.000 A 
BRANCH  25  28
ATOM     28  N   UNL     1       4.994   5.440  17.192  0.00  0.00    +0.000 N 
ATOM     29  C   UNL     1       4.813   4.260  16.485  0.00  0.00    +0.000 C 
ATOM     30  O   UNL     1       3.866   3.487  16.621  0.00  0.00    +0.000 OA
ATOM     31  H   UNL     1       5.843   5.962  17.021  0.00  0.00    +0.000 HD
BRANCH  29  32
ATOM     32  C   UNL     1       5.932   3.941  15.488  0.00  0.00    +0.000 C 
ATOM     33  C   UNL     1       5.421   4.164  14.058  0.00  0.00    +0.000 C 
ATOM     34  C   UNL     1       7.168   4.804  15.725  0.00  0.00    +0.000 C 
ENDBRANCH  29  32
ENDBRANCH  25  28
ENDBRANCH  21  22
ENDBRANCH   4  21
TORSDOF 8
ENDMDL
