MODEL 1
REMARK VINA RESULT:      -8.1      0.000      0.000
REMARK  Name = 
REMARK  13 active torsions:
REMARK  status: ('A' for Active; 'I' for Inactive)
REMARK    1  A    between atoms: C_1  and  N_2
REMARK    2  A    between atoms: N_2  and  C_3
REMARK    3  A    between atoms: N_2  and  C_4
REMARK    4  A    between atoms: C_7  and  C_8
REMARK    5  A    between atoms: N_10  and  N_11
REMARK    6  A    between atoms: C_14  and  C_15
REMARK    7  A    between atoms: C_15  and  C_16
REMARK    8  A    between atoms: C_15  and  C_17
REMARK    9  A    between atoms: C_15  and  C_18
REMARK   10  A    between atoms: C_21  and  C_22
REMARK   11  A    between atoms: C_22  and  C_23
REMARK   12  A    between atoms: C_22  and  C_24
REMARK   13  A    between atoms: C_22  and  C_25
REMARK                            x       y       z     vdW  Elec       q    Type
REMARK                         _______ _______ _______ _____ _____    ______ ____
ROOT
ATOM      1  N   UNL     1       2.979   8.378  17.825  0.00  0.00    +0.000 NA
ATOM      2  C   UNL     1       3.192   7.096  17.833  0.00  0.00    +0.000 C 
ATOM      3  C   UNL     1       4.388   6.587  17.129  0.00  0.00    +0.000 C 
ATOM      4  C   UNL     1       4.815   5.312  17.177  0.00  0.00    +0.000 C 
ATOM      5  C   UNL     1       3.997   4.324  17.965  0.00  0.00    +0.000 C 
ATOM      6  O   UNL     1       4.342   3.150  18.038  0.00  0.00    +0.000 OA
ATOM      7  C   UNL     1       2.749   4.790  18.668  0.00  0.00    +0.000 C 
ATOM      8  C   UNL     1       2.401   6.080  18.553  0.00  0.00    +0.000 C 
ENDROOT
BRANCH   1  11
ATOM      9  C   UNL     1       1.648  10.234  18.498  0.00  0.00    +0.000 C 
ATOM     10  O   UNL     1       2.267  11.070  17.846  0.00  0.00    +0.000 OA
ATOM     11  N   UNL     1       1.895   8.871  18.492  0.00  0.00    +0.000 N 
ATOM     12  H   UNL     1       1.227   8.230  18.897  0.00  0.00    +0.000 HD
BRANCH   9  16
ATOM     13  C   UNL     1      -1.497  11.769  21.081  0.00  0.00    +0.000 A 
ATOM     14  C   UNL     1      -1.554  11.854  19.679  0.00  0.00    +0.000 A 
ATOM     15  C   UNL     1      -0.546  11.336  18.853  0.00  0.00    +0.000 A 
ATOM     16  C   UNL     1       0.555  10.686  19.408  0.00  0.00    +0.000 A 
ATOM     17  C   UNL     1       0.636  10.566  20.796  0.00  0.00    +0.000 A 
ATOM     18  C   UNL     1      -0.383  11.096  21.611  0.00  0.00    +0.000 A 
BRANCH  13  20
ATOM     19  C   UNL     1      -2.551  11.942  23.314  0.00  0.00    +0.000 C 
ATOM     20  N   UNL     1      -2.488  12.311  21.902  0.00  0.00    +0.000 N 
ATOM     21  C   UNL     1      -3.722  12.815  21.305  0.00  0.00    +0.000 C 
ENDBRANCH  13  20
ENDBRANCH   9  16
ENDBRANCH   1  11
BRANCH   4  22
ATOM     22  C   UNL     1       6.121   4.825  16.493  0.00  0.00    +0.000 C 
ATOM     23  C   UNL     1       6.750   5.901  15.569  0.00  0.00    +0.000 C 
ATOM     24  C   UNL     1       7.197   4.483  17.549  0.00  0.00    +0.000 C 
ATOM     25  C   UNL     1       5.869   3.589  15.604  0.00  0.00    +0.000 C 
ENDBRANCH   4  22
BRANCH   7  26
ATOM     26  C   UNL     1       1.946   3.786  19.532  0.00  0.00    +0.000 C 
ATOM     27  C   UNL     1       2.896   3.039  20.490  0.00  0.00    +0.000 C 
ATOM     28  C   UNL     1       0.881   4.480  20.430  0.00  0.00    +0.000 C 
ATOM     29  C   UNL     1       1.171   2.775  18.664  0.00  0.00    +0.000 C 
ENDBRANCH   7  26
TORSDOF 5
ENDMDL
MODEL 2
REMARK VINA RESULT:      -8.1      0.133      1.061
REMARK  Name = 
REMARK  13 active torsions:
REMARK  status: ('A' for Active; 'I' for Inactive)
REMARK    1  A    between atoms: C_1  and  N_2
REMARK    2  A    between atoms: N_2  and  C_3
REMARK    3  A    between atoms: N_2  and  C_4
REMARK    4  A    between atoms: C_7  and  C_8
REMARK    5  A    between atoms: N_10  and  N_11
REMARK    6  A    between atoms: C_14  and  C_15
REMARK    7  A    between atoms: C_15  and  C_16
REMARK    8  A    between atoms: C_15  and  C_17
REMARK    9  A    between atoms: C_15  and  C_18
REMARK   10  A    between atoms: C_21  and  C_22
REMARK   11  A    between atoms: C_22  and  C_23
REMARK   12  A    between atoms: C_22  and  C_24
REMARK   13  A    between atoms: C_22  and  C_25
REMARK                            x       y       z     vdW  Elec       q    Type
REMARK                         _______ _______ _______ _____ _____    ______ ____
ROOT
ATOM      1  N   UNL     1       2.963   8.384  17.794  0.00  0.00    +0.000 NA
ATOM      2  C   UNL     1       3.192   7.105  17.821  0.00  0.00    +0.000 C 
ATOM      3  C   UNL     1       4.402   6.602  17.138  0.00  0.00    +0.000 C 
ATOM      4  C   UNL     1       4.843   5.333  17.206  0.00  0.00    +0.000 C 
ATOM      5  C   UNL     1       4.028   4.345  17.997  0.00  0.00    +0.000 C 
ATOM      6  O   UNL     1       4.386   3.176  18.088  0.00  0.00    +0.000 OA
ATOM      7  C   UNL     1       2.767   4.804  18.679  0.00  0.00    +0.000 C 
ATOM      8  C   UNL     1       2.405   6.088  18.545  0.00  0.00    +0.000 C 
ENDROOT
BRANCH   1  11
ATOM      9  C   UNL     1       1.645  10.239  18.495  0.00  0.00    +0.000 C 
ATOM     10  O   UNL     1       2.302  11.087  17.900  0.00  0.00    +0.000 OA
ATOM     11  N   UNL     1       1.866   8.872  18.443  0.00  0.00    +0.000 N 
ATOM     12  H   UNL     1       1.172   8.229  18.798  0.00  0.00    +0.000 HD
BRANCH   9  16
ATOM     13  C   UNL     1      -1.578  11.730  21.008  0.00  0.00    +0.000 A 
ATOM     14  C   UNL     1      -1.635  11.753  19.603  0.00  0.00    +0.000 A 
ATOM     15  C   UNL     1      -0.600  11.249  18.801  0.00  0.00    +0.000 A 
ATOM     16  C   UNL     1       0.529  10.676  19.385  0.00  0.00    +0.000 A 
ATOM     17  C   UNL     1       0.611  10.619  20.776  0.00  0.00    +0.000 A 
ATOM     18  C   UNL     1      -0.435  11.134  21.567  0.00  0.00    +0.000 A 
BRANCH  13  20
ATOM     19  C   UNL     1      -3.494  13.275  21.262  0.00  0.00    +0.000 C 
ATOM     20  N   UNL     1      -2.596  12.258  21.804  0.00  0.00    +0.000 N 
ATOM     21  C   UNL     1      -2.477  12.203  23.258  0.00  0.00    +0.000 C 
ENDBRANCH  13  20
ENDBRANCH   9  16
ENDBRANCH   1  11
BRANCH   4  22
ATOM     22  C   UNL     1       6.163   4.853  16.544  0.00  0.00    +0.000 C 
ATOM     23  C   UNL     1       6.815   5.942  15.650  0.00  0.00    +0.000 C 
ATOM     24  C   UNL     1       7.214   4.492  17.617  0.00  0.00    +0.000 C 
ATOM     25  C   UNL     1       5.928   3.632  15.630  0.00  0.00    +0.000 C 
ENDBRANCH   4  22
BRANCH   7  26
ATOM     26  C   UNL     1       1.966   3.801  19.546  0.00  0.00    +0.000 C 
ATOM     27  C   UNL     1       1.241   2.785  18.640  0.00  0.00    +0.000 C 
ATOM     28  C   UNL     1       2.873   2.966  20.496  0.00  0.00    +0.000 C 
ATOM     29  C   UNL     1       0.947   4.515  20.457  0.00  0.00    +0.000 C 
ENDBRANCH   7  26
TORSDOF 5
ENDMDL
MODEL 3
REMARK VINA RESULT:      -8.1      0.106      1.157
REMARK  Name = 
REMARK  13 active torsions:
REMARK  status: ('A' for Active; 'I' for Inactive)
REMARK    1  A    between atoms: C_1  and  N_2
REMARK    2  A    between atoms: N_2  and  C_3
REMARK    3  A    between atoms: N_2  and  C_4
REMARK    4  A    between atoms: C_7  and  C_8
REMARK    5  A    between atoms: N_10  and  N_11
REMARK    6  A    between atoms: C_14  and  C_15
REMARK    7  A    between atoms: C_15  and  C_16
REMARK    8  A    between atoms: C_15  and  C_17
REMARK    9  A    between atoms: C_15  and  C_18
REMARK   10  A    between atoms: C_21  and  C_22
REMARK   11  A    between atoms: C_22  and  C_23
REMARK   12  A    between atoms: C_22  and  C_24
REMARK   13  A    between atoms: C_22  and  C_25
REMARK                            x       y       z     vdW  Elec       q    Type
REMARK                         _______ _______ _______ _____ _____    ______ ____
ROOT
ATOM      1  N   UNL     1       2.962   8.388  17.814  0.00  0.00    +0.000 NA
ATOM      2  C   UNL     1       3.184   7.108  17.837  0.00  0.00    +0.000 C 
ATOM      3  C   UNL     1       4.384   6.599  17.140  0.00  0.00    +0.000 C 
ATOM      4  C   UNL     1       4.819   5.328  17.202  0.00  0.00    +0.000 C 
ATOM      5  C   UNL     1       4.008   4.344  18.001  0.00  0.00    +0.000 C 
ATOM      6  O   UNL     1       4.361   3.173  18.088  0.00  0.00    +0.000 OA
ATOM      7  C   UNL     1       2.757   4.809  18.699  0.00  0.00    +0.000 C 
ATOM      8  C   UNL     1       2.400   6.095  18.569  0.00  0.00    +0.000 C 
ENDROOT
BRANCH   1  11
ATOM      9  C   UNL     1       1.633  10.246  18.487  0.00  0.00    +0.000 C 
ATOM     10  O   UNL     1       2.260  11.083  17.845  0.00  0.00    +0.000 OA
ATOM     11  N   UNL     1       1.875   8.882  18.476  0.00  0.00    +0.000 N 
ATOM     12  H   UNL     1       1.201   8.241  18.872  0.00  0.00    +0.000 HD
BRANCH   9  16
ATOM     13  C   UNL     1      -1.497  11.778  21.091  0.00  0.00    +0.000 A 
ATOM     14  C   UNL     1      -1.432  12.080  19.719  0.00  0.00    +0.000 A 
ATOM     15  C   UNL     1      -0.432  11.563  18.883  0.00  0.00    +0.000 A 
ATOM     16  C   UNL     1       0.535  10.696  19.391  0.00  0.00    +0.000 A 
ATOM     17  C   UNL     1       0.490  10.360  20.745  0.00  0.00    +0.000 A 
ATOM     18  C   UNL     1      -0.518  10.892  21.572  0.00  0.00    +0.000 A 
BRANCH  13  20
ATOM     19  C   UNL     1      -2.531  11.929  23.334  0.00  0.00    +0.000 C 
ATOM     20  N   UNL     1      -2.476  12.317  21.927  0.00  0.00    +0.000 N 
ATOM     21  C   UNL     1      -3.711  12.840  21.347  0.00  0.00    +0.000 C 
ENDBRANCH  13  20
ENDBRANCH   9  16
ENDBRANCH   1  11
BRANCH   4  22
ATOM     22  C   UNL     1       6.128   4.842  16.524  0.00  0.00    +0.000 C 
ATOM     23  C   UNL     1       5.920   3.565  15.667  0.00  0.00    +0.000 C 
ATOM     24  C   UNL     1       6.680   5.919  15.563  0.00  0.00    +0.000 C 
ATOM     25  C   UNL     1       7.210   4.488  17.566  0.00  0.00    +0.000 C 
ENDBRANCH   4  22
BRANCH   7  26
ATOM     26  C   UNL     1       1.961   3.810  19.574  0.00  0.00    +0.000 C 
ATOM     27  C   UNL     1       0.932   4.570  20.436  0.00  0.00    +0.000 C 
ATOM     28  C   UNL     1       1.148   2.784  18.731  0.00  0.00    +0.000 C 
ATOM     29  C   UNL     1       2.888   2.972  20.477  0.00  0.00    +0.000 C 
ENDBRANCH   7  26
TORSDOF 5
ENDMDL
MODEL 4
REMARK VINA RESULT:      -8.0      0.147      1.063
REMARK  Name = 
REMARK  13 active torsions:
REMARK  status: ('A' for Active; 'I' for Inactive)
REMARK    1  A    between atoms: C_1  and  N_2
REMARK    2  A    between atoms: N_2  and  C_3
REMARK    3  A    between atoms: N_2  and  C_4
REMARK    4  A    between atoms: C_7  and  C_8
REMARK    5  A    between atoms: N_10  and  N_11
REMARK    6  A    between atoms: C_14  and  C_15
REMARK    7  A    between atoms: C_15  and  C_16
REMARK    8  A    between atoms: C_15  and  C_17
REMARK    9  A    between atoms: C_15  and  C_18
REMARK   10  A    between atoms: C_21  and  C_22
REMARK   11  A    between atoms: C_22  and  C_23
REMARK   12  A    between atoms: C_22  and  C_24
REMARK   13  A    between atoms: C_22  and  C_25
REMARK                            x       y       z     vdW  Elec       q    Type
REMARK                         _______ _______ _______ _____ _____    ______ ____
ROOT
ATOM      1  N   UNL     1       2.945   8.403  17.763  0.00  0.00    +0.000 NA
ATOM      2  C   UNL     1       3.170   7.123  17.786  0.00  0.00    +0.000 C 
ATOM      3  C   UNL     1       4.374   6.618  17.094  0.00  0.00    +0.000 C 
ATOM      4  C   UNL     1       4.812   5.348  17.158  0.00  0.00    +0.000 C 
ATOM      5  C   UNL     1       4.000   4.361  17.952  0.00  0.00    +0.000 C 
ATOM      6  O   UNL     1       4.355   3.191  18.039  0.00  0.00    +0.000 OA
ATOM      7  C   UNL     1       2.745   4.822  18.644  0.00  0.00    +0.000 C 
ATOM      8  C   UNL     1       2.385   6.108  18.514  0.00  0.00    +0.000 C 
ENDROOT
BRANCH   1  11
ATOM      9  C   UNL     1       1.638  10.260  18.478  0.00  0.00    +0.000 C 
ATOM     10  O   UNL     1       2.294  11.108  17.881  0.00  0.00    +0.000 OA
ATOM     11  N   UNL     1       1.854   8.893  18.421  0.00  0.00    +0.000 N 
ATOM     12  H   UNL     1       1.160   8.252  18.779  0.00  0.00    +0.000 HD
BRANCH   9  16
ATOM     13  C   UNL     1      -1.574  11.752  21.004  0.00  0.00    +0.000 A 
ATOM     14  C   UNL     1      -1.668  11.704  19.602  0.00  0.00    +0.000 A 
ATOM     15  C   UNL     1      -0.636  11.200  18.797  0.00  0.00    +0.000 A 
ATOM     16  C   UNL     1       0.529  10.699  19.376  0.00  0.00    +0.000 A 
ATOM     17  C   UNL     1       0.649  10.714  20.766  0.00  0.00    +0.000 A 
ATOM     18  C   UNL     1      -0.395  11.228  21.559  0.00  0.00    +0.000 A 
BRANCH  13  20
ATOM     19  C   UNL     1      -3.461  13.330  21.275  0.00  0.00    +0.000 C 
ATOM     20  N   UNL     1      -2.591  12.281  21.801  0.00  0.00    +0.000 N 
ATOM     21  C   UNL     1      -2.492  12.185  23.255  0.00  0.00    +0.000 C 
ENDBRANCH  13  20
ENDBRANCH   9  16
ENDBRANCH   1  11
BRANCH   4  22
ATOM     22  C   UNL     1       6.126   4.865  16.485  0.00  0.00    +0.000 C 
ATOM     23  C   UNL     1       5.923   3.592  15.621  0.00  0.00    +0.000 C 
ATOM     24  C   UNL     1       6.682   5.947  15.532  0.00  0.00    +0.000 C 
ATOM     25  C   UNL     1       7.201   4.507  17.532  0.00  0.00    +0.000 C 
ENDBRANCH   4  22
BRANCH   7  26
ATOM     26  C   UNL     1       1.947   3.820  19.515  0.00  0.00    +0.000 C 
ATOM     27  C   UNL     1       2.903   3.073  20.467  0.00  0.00    +0.000 C 
ATOM     28  C   UNL     1       0.890   4.516  20.421  0.00  0.00    +0.000 C 
ATOM     29  C   UNL     1       1.163   2.809  18.655  0.00  0.00    +0.000 C 
ENDBRANCH   7  26
TORSDOF 5
ENDMDL
MODEL 5
REMARK VINA RESULT:      -8.0      1.591      2.202
REMARK  Name = 
REMARK  13 active torsions:
REMARK  status: ('A' for Active; 'I' for Inactive)
REMARK    1  A    between atoms: C_1  and  N_2
REMARK    2  A    between atoms: N_2  and  C_3
REMARK    3  A    between atoms: N_2  and  C_4
REMARK    4  A    between atoms: C_7  and  C_8
REMARK    5  A    between atoms: N_10  and  N_11
REMARK    6  A    between atoms: C_14  and  C_15
REMARK    7  A    between atoms: C_15  and  C_16
REMARK    8  A    between atoms: C_15  and  C_17
REMARK    9  A    between atoms: C_15  and  C_18
REMARK   10  A    between atoms: C_21  and  C_22
REMARK   11  A    between atoms: C_22  and  C_23
REMARK   12  A    between atoms: C_22  and  C_24
REMARK   13  A    between atoms: C_22  and  C_25
REMARK                            x       y       z     vdW  Elec       q    Type
REMARK                         _______ _______ _______ _____ _____    ______ ____
ROOT
ATOM      1  N   UNL     1       2.954   8.760  17.483  0.00  0.00    +0.000 NA
ATOM      2  C   UNL     1       3.315   7.551  17.791  0.00  0.00    +0.000 C 
ATOM      3  C   UNL     1       4.746   7.201  17.668  0.00  0.00    +0.000 C 
ATOM      4  C   UNL     1       5.286   6.043  18.089  0.00  0.00    +0.000 C 
ATOM      5  C   UNL     1       4.366   5.013  18.688  0.00  0.00    +0.000 C 
ATOM      6  O   UNL     1       4.808   3.940  19.084  0.00  0.00    +0.000 OA
ATOM      7  C   UNL     1       2.894   5.310  18.799  0.00  0.00    +0.000 C 
ATOM      8  C   UNL     1       2.450   6.491  18.343  0.00  0.00    +0.000 C 
ENDROOT
BRANCH   1  11
ATOM      9  C   UNL     1       1.308  10.393  18.024  0.00  0.00    +0.000 C 
ATOM     10  O   UNL     1       2.100  11.317  18.178  0.00  0.00    +0.000 OA
ATOM     11  N   UNL     1       1.642   9.112  17.617  0.00  0.00    +0.000 N 
ATOM     12  H   UNL     1       0.922   8.465  17.325  0.00  0.00    +0.000 HD
BRANCH   9  16
ATOM     13  C   UNL     1      -2.932  11.120  18.670  0.00  0.00    +0.000 A 
ATOM     14  C   UNL     1      -2.454  10.163  17.757  0.00  0.00    +0.000 A 
ATOM     15  C   UNL     1      -1.085   9.920  17.572  0.00  0.00    +0.000 A 
ATOM     16  C   UNL     1      -0.138  10.616  18.321  0.00  0.00    +0.000 A 
ATOM     17  C   UNL     1      -0.577  11.560  19.250  0.00  0.00    +0.000 A 
ATOM     18  C   UNL     1      -1.955  11.796  19.420  0.00  0.00    +0.000 A 
BRANCH  13  20
ATOM     19  C   UNL     1      -5.232  11.059  17.758  0.00  0.00    +0.000 C 
ATOM     20  N   UNL     1      -4.294  11.380  18.831  0.00  0.00    +0.000 N 
ATOM     21  C   UNL     1      -4.727  12.391  19.792  0.00  0.00    +0.000 C 
ENDBRANCH  13  20
ENDBRANCH   9  16
ENDBRANCH   1  11
BRANCH   4  22
ATOM     22  C   UNL     1       6.806   5.737  18.019  0.00  0.00    +0.000 C 
ATOM     23  C   UNL     1       7.628   6.917  17.436  0.00  0.00    +0.000 C 
ATOM     24  C   UNL     1       7.377   5.473  19.431  0.00  0.00    +0.000 C 
ATOM     25  C   UNL     1       7.101   4.522  17.116  0.00  0.00    +0.000 C 
ENDBRANCH   4  22
BRANCH   7  26
ATOM     26  C   UNL     1       1.961   4.276  19.476  0.00  0.00    +0.000 C 
ATOM     27  C   UNL     1       1.261   3.417  18.402  0.00  0.00    +0.000 C 
ATOM     28  C   UNL     1       2.728   3.281  20.395  0.00  0.00    +0.000 C 
ATOM     29  C   UNL     1       0.909   4.954  20.375  0.00  0.00    +0.000 C 
ENDBRANCH   7  26
TORSDOF 5
ENDMDL
MODEL 6
REMARK VINA RESULT:      -7.8      1.592      2.200
REMARK  Name = 
REMARK  13 active torsions:
REMARK  status: ('A' for Active; 'I' for Inactive)
REMARK    1  A    between atoms: C_1  and  N_2
REMARK    2  A    between atoms: N_2  and  C_3
REMARK    3  A    between atoms: N_2  and  C_4
REMARK    4  A    between atoms: C_7  and  C_8
REMARK    5  A    between atoms: N_10  and  N_11
REMARK    6  A    between atoms: C_14  and  C_15
REMARK    7  A    between atoms: C_15  and  C_16
REMARK    8  A    between atoms: C_15  and  C_17
REMARK    9  A    between atoms: C_15  and  C_18
REMARK   10  A    between atoms: C_21  and  C_22
REMARK   11  A    between atoms: C_22  and  C_23
REMARK   12  A    between atoms: C_22  and  C_24
REMARK   13  A    between atoms: C_22  and  C_25
REMARK                            x       y       z     vdW  Elec       q    Type
REMARK                         _______ _______ _______ _____ _____    ______ ____
ROOT
ATOM      1  N   UNL     1       2.940   8.770  17.459  0.00  0.00    +0.000 NA
ATOM      2  C   UNL     1       3.307   7.563  17.770  0.00  0.00    +0.000 C 
ATOM      3  C   UNL     1       4.738   7.218  17.640  0.00  0.00    +0.000 C 
ATOM      4  C   UNL     1       5.284   6.063  18.062  0.00  0.00    +0.000 C 
ATOM      5  C   UNL     1       4.371   5.033  18.670  0.00  0.00    +0.000 C 
ATOM      6  O   UNL     1       4.819   3.963  19.068  0.00  0.00    +0.000 OA
ATOM      7  C   UNL     1       2.899   5.325  18.789  0.00  0.00    +0.000 C 
ATOM      8  C   UNL     1       2.448   6.503  18.331  0.00  0.00    +0.000 C 
ENDROOT
BRANCH   1  11
ATOM      9  C   UNL     1       1.291  10.399  18.007  0.00  0.00    +0.000 C 
ATOM     10  O   UNL     1       2.081  11.326  18.156  0.00  0.00    +0.000 OA
ATOM     11  N   UNL     1       1.627   9.118  17.599  0.00  0.00    +0.000 N 
ATOM     12  H   UNL     1       0.908   8.469  17.311  0.00  0.00    +0.000 HD
BRANCH   9  16
ATOM     13  C   UNL     1      -2.948  11.113  18.672  0.00  0.00    +0.000 A 
ATOM     14  C   UNL     1      -2.472  10.157  17.758  0.00  0.00    +0.000 A 
ATOM     15  C   UNL     1      -1.102   9.918  17.567  0.00  0.00    +0.000 A 
ATOM     16  C   UNL     1      -0.153  10.618  18.310  0.00  0.00    +0.000 A 
ATOM     17  C   UNL     1      -0.591  11.562  19.240  0.00  0.00    +0.000 A 
ATOM     18  C   UNL     1      -1.969  11.793  19.416  0.00  0.00    +0.000 A 
BRANCH  13  20
ATOM     19  C   UNL     1      -5.250  11.058  17.765  0.00  0.00    +0.000 C 
ATOM     20  N   UNL     1      -4.310  11.370  18.839  0.00  0.00    +0.000 N 
ATOM     21  C   UNL     1      -4.741  12.370  19.812  0.00  0.00    +0.000 C 
ENDBRANCH  13  20
ENDBRANCH   9  16
ENDBRANCH   1  11
BRANCH   4  22
ATOM     22  C   UNL     1       6.805   5.762  17.985  0.00  0.00    +0.000 C 
ATOM     23  C   UNL     1       7.434   5.497  19.379  0.00  0.00    +0.000 C 
ATOM     24  C   UNL     1       7.070   4.492  17.146  0.00  0.00    +0.000 C 
ATOM     25  C   UNL     1       7.588   6.946  17.380  0.00  0.00    +0.000 C 
ENDBRANCH   4  22
BRANCH   7  26
ATOM     26  C   UNL     1       1.973   4.291  19.475  0.00  0.00    +0.000 C 
ATOM     27  C   UNL     1       2.783   3.441  20.475  0.00  0.00    +0.000 C 
ATOM     28  C   UNL     1       0.830   4.955  20.296  0.00  0.00    +0.000 C 
ATOM     29  C   UNL     1       1.276   3.375  18.449  0.00  0.00    +0.000 C 
ENDBRANCH   7  26
TORSDOF 5
ENDMDL
MODEL 7
REMARK VINA RESULT:      -7.8      1.572      2.254
REMARK  Name = 
REMARK  13 active torsions:
REMARK  status: ('A' for Active; 'I' for Inactive)
REMARK    1  A    between atoms: C_1  and  N_2
REMARK    2  A    between atoms: N_2  and  C_3
REMARK    3  A    between atoms: N_2  and  C_4
REMARK    4  A    between atoms: C_7  and  C_8
REMARK    5  A    between atoms: N_10  and  N_11
REMARK    6  A    between atoms: C_14  and  C_15
REMARK    7  A    between atoms: C_15  and  C_16
REMARK    8  A    between atoms: C_15  and  C_17
REMARK    9  A    between atoms: C_15  and  C_18
REMARK   10  A    between atoms: C_21  and  C_22
REMARK   11  A    between atoms: C_22  and  C_23
REMARK   12  A    between atoms: C_22  and  C_24
REMARK   13  A    between atoms: C_22  and  C_25
REMARK                            x       y       z     vdW  Elec       q    Type
REMARK                         _______ _______ _______ _____ _____    ______ ____
ROOT
ATOM      1  N   UNL     1       2.911   8.795  17.422  0.00  0.00    +0.000 NA
ATOM      2  C   UNL     1       3.260   7.590  17.760  0.00  0.00    +0.000 C 
ATOM      3  C   UNL     1       4.684   7.217  17.628  0.00  0.00    +0.000 C 
ATOM      4  C   UNL     1       5.214   6.064  18.074  0.00  0.00    +0.000 C 
ATOM      5  C   UNL     1       4.289   5.064  18.713  0.00  0.00    +0.000 C 
ATOM      6  O   UNL     1       4.722   3.997  19.133  0.00  0.00    +0.000 OA
ATOM      7  C   UNL     1       2.823   5.385  18.835  0.00  0.00    +0.000 C 
ATOM      8  C   UNL     1       2.388   6.558  18.352  0.00  0.00    +0.000 C 
ENDROOT
BRANCH   1  11
ATOM      9  C   UNL     1       1.295  10.447  17.999  0.00  0.00    +0.000 C 
ATOM     10  O   UNL     1       2.104  11.352  18.174  0.00  0.00    +0.000 OA
ATOM     11  N   UNL     1       1.606   9.169  17.563  0.00  0.00    +0.000 N 
ATOM     12  H   UNL     1       0.874   8.542  17.257  0.00  0.00    +0.000 HD
BRANCH   9  16
ATOM     13  C   UNL     1      -2.933  11.233  18.656  0.00  0.00    +0.000 A 
ATOM     14  C   UNL     1      -2.471  10.265  17.745  0.00  0.00    +0.000 A 
ATOM     15  C   UNL     1      -1.105  10.003  17.557  0.00  0.00    +0.000 A 
ATOM     16  C   UNL     1      -0.146  10.690  18.299  0.00  0.00    +0.000 A 
ATOM     17  C   UNL     1      -0.570  11.644  19.225  0.00  0.00    +0.000 A 
ATOM     18  C   UNL     1      -1.944  11.899  19.398  0.00  0.00    +0.000 A 
BRANCH  13  20
ATOM     19  C   UNL     1      -4.733  12.369  19.917  0.00  0.00    +0.000 C 
ATOM     20  N   UNL     1      -4.290  11.512  18.820  0.00  0.00    +0.000 N 
ATOM     21  C   UNL     1      -5.286  10.601  18.263  0.00  0.00    +0.000 C 
ENDBRANCH  13  20
ENDBRANCH   9  16
ENDBRANCH   1  11
BRANCH   4  22
ATOM     22  C   UNL     1       6.730   5.736  17.993  0.00  0.00    +0.000 C 
ATOM     23  C   UNL     1       7.023   4.464  17.154  0.00  0.00    +0.000 C 
ATOM     24  C   UNL     1       7.504   6.888  17.313  0.00  0.00    +0.000 C 
ATOM     25  C   UNL     1       7.329   5.475  19.391  0.00  0.00    +0.000 C 
ENDBRANCH   4  22
BRANCH   7  26
ATOM     26  C   UNL     1       1.885   4.382  19.552  0.00  0.00    +0.000 C 
ATOM     27  C   UNL     1       1.271   3.409  18.525  0.00  0.00    +0.000 C 
ATOM     28  C   UNL     1       2.629   3.500  20.596  0.00  0.00    +0.000 C 
ATOM     29  C   UNL     1       0.765   5.101  20.331  0.00  0.00    +0.000 C 
ENDBRANCH   7  26
TORSDOF 5
ENDMDL
MODEL 8
REMARK VINA RESULT:      -7.7      0.453      1.386
REMARK  Name = 
REMARK  13 active torsions:
REMARK  status: ('A' for Active; 'I' for Inactive)
REMARK    1  A    between atoms: C_1  and  N_2
REMARK    2  A    between atoms: N_2  and  C_3
REMARK    3  A    between atoms: N_2  and  C_4
REMARK    4  A    between atoms: C_7  and  C_8
REMARK    5  A    between atoms: N_10  and  N_11
REMARK    6  A    between atoms: C_14  and  C_15
REMARK    7  A    between atoms: C_15  and  C_16
REMARK    8  A    between atoms: C_15  and  C_17
REMARK    9  A    between atoms: C_15  and  C_18
REMARK   10  A    between atoms: C_21  and  C_22
REMARK   11  A    between atoms: C_22  and  C_23
REMARK   12  A    between atoms: C_22  and  C_24
REMARK   13  A    between atoms: C_22  and  C_25
REMARK                            x       y       z     vdW  Elec       q    Type
REMARK                         _______ _______ _______ _____ _____    ______ ____
ROOT
ATOM      1  N   UNL     1       3.078   8.466  17.452  0.00  0.00    +0.000 NA
ATOM      2  C   UNL     1       3.286   7.190  17.580  0.00  0.00    +0.000 C 
ATOM      3  C   UNL     1       4.476   6.611  16.921  0.00  0.00    +0.000 C 
ATOM      4  C   UNL     1       4.898   5.345  17.086  0.00  0.00    +0.000 C 
ATOM      5  C   UNL     1       4.082   4.440  17.970  0.00  0.00    +0.000 C 
ATOM      6  O   UNL     1       4.423   3.276  18.151  0.00  0.00    +0.000 OA
ATOM      7  C   UNL     1       2.841   4.975  18.633  0.00  0.00    +0.000 C 
ATOM      8  C   UNL     1       2.497   6.250  18.399  0.00  0.00    +0.000 C 
ENDROOT
BRANCH   1  11
ATOM      9  C   UNL     1       1.879  10.403  18.144  0.00  0.00    +0.000 C 
ATOM     10  O   UNL     1       2.613  11.208  17.581  0.00  0.00    +0.000 OA
ATOM     11  N   UNL     1       2.001   9.025  18.077  0.00  0.00    +0.000 N 
ATOM     12  H   UNL     1       1.251   8.430  18.402  0.00  0.00    +0.000 HD
BRANCH   9  16
ATOM     13  C   UNL     1      -1.287  11.720  20.821  0.00  0.00    +0.000 A 
ATOM     14  C   UNL     1       0.078  11.847  21.136  0.00  0.00    +0.000 A 
ATOM     15  C   UNL     1       1.092  11.440  20.256  0.00  0.00    +0.000 A 
ATOM     16  C   UNL     1       0.772  10.909  19.007  0.00  0.00    +0.000 A 
ATOM     17  C   UNL     1      -0.573  10.787  18.654  0.00  0.00    +0.000 A 
ATOM     18  C   UNL     1      -1.578  11.195  19.552  0.00  0.00    +0.000 A 
BRANCH  13  20
ATOM     19  C   UNL     1      -3.228  13.162  21.348  0.00  0.00    +0.000 C 
ATOM     20  N   UNL     1      -2.294  12.099  21.711  0.00  0.00    +0.000 N 
ATOM     21  C   UNL     1      -2.134  11.833  23.138  0.00  0.00    +0.000 C 
ENDBRANCH  13  20
ENDBRANCH   9  16
ENDBRANCH   1  11
BRANCH   4  22
ATOM     22  C   UNL     1       6.198   4.789  16.444  0.00  0.00    +0.000 C 
ATOM     23  C   UNL     1       6.845   5.786  15.445  0.00  0.00    +0.000 C 
ATOM     24  C   UNL     1       7.266   4.509  17.525  0.00  0.00    +0.000 C 
ATOM     25  C   UNL     1       5.929   3.497  15.646  0.00  0.00    +0.000 C 
ENDBRANCH   4  22
BRANCH   7  26
ATOM     26  C   UNL     1       2.040   4.061  19.593  0.00  0.00    +0.000 C 
ATOM     27  C   UNL     1       1.096   4.914  20.465  0.00  0.00    +0.000 C 
ATOM     28  C   UNL     1       1.134   3.042  18.841  0.00  0.00    +0.000 C 
ATOM     29  C   UNL     1       2.967   3.217  20.490  0.00  0.00    +0.000 C 
ENDBRANCH   7  26
TORSDOF 5
ENDMDL
MODEL 9
REMARK VINA RESULT:      -7.7      0.450      1.474
REMARK  Name = 
REMARK  13 active torsions:
REMARK  status: ('A' for Active; 'I' for Inactive)
REMARK    1  A    between atoms: C_1  and  N_2
REMARK    2  A    between atoms: N_2  and  C_3
REMARK    3  A    between atoms: N_2  and  C_4
REMARK    4  A    between atoms: C_7  and  C_8
REMARK    5  A    between atoms: N_10  and  N_11
REMARK    6  A    between atoms: C_14  and  C_15
REMARK    7  A    between atoms: C_15  and  C_16
REMARK    8  A    between atoms: C_15  and  C_17
REMARK    9  A    between atoms: C_15  and  C_18
REMARK   10  A    between atoms: C_21  and  C_22
REMARK   11  A    between atoms: C_22  and  C_23
REMARK   12  A    between atoms: C_22  and  C_24
REMARK   13  A    between atoms: C_22  and  C_25
REMARK                            x       y       z     vdW  Elec       q    Type
REMARK                         _______ _______ _______ _____ _____    ______ ____
ROOT
ATOM      1  N   UNL     1       3.102   8.532  17.547  0.00  0.00    +0.000 NA
ATOM      2  C   UNL     1       3.293   7.250  17.642  0.00  0.00    +0.000 C 
ATOM      3  C   UNL     1       4.475   6.672  16.970  0.00  0.00    +0.000 C 
ATOM      4  C   UNL     1       4.879   5.397  17.103  0.00  0.00    +0.000 C 
ATOM      5  C   UNL     1       4.050   4.481  17.962  0.00  0.00    +0.000 C 
ATOM      6  O   UNL     1       4.374   3.308  18.114  0.00  0.00    +0.000 OA
ATOM      7  C   UNL     1       2.815   5.016  18.637  0.00  0.00    +0.000 C 
ATOM      8  C   UNL     1       2.489   6.301  18.436  0.00  0.00    +0.000 C 
ENDROOT
BRANCH   1  11
ATOM      9  C   UNL     1       1.849  10.463  18.158  0.00  0.00    +0.000 C 
ATOM     10  O   UNL     1       2.518  11.254  17.501  0.00  0.00    +0.000 OA
ATOM     11  N   UNL     1       2.031   9.090  18.185  0.00  0.00    +0.000 N 
ATOM     12  H   UNL     1       1.327   8.489  18.590  0.00  0.00    +0.000 HD
BRANCH   9  16
ATOM     13  C   UNL     1      -1.245  11.833  20.892  0.00  0.00    +0.000 A 
ATOM     14  C   UNL     1       0.127  12.001  21.149  0.00  0.00    +0.000 A 
ATOM     15  C   UNL     1       1.117  11.576  20.251  0.00  0.00    +0.000 A 
ATOM     16  C   UNL     1       0.764  10.984  19.039  0.00  0.00    +0.000 A 
ATOM     17  C   UNL     1      -0.590  10.819  18.742  0.00  0.00    +0.000 A 
ATOM     18  C   UNL     1      -1.571  11.246  19.658  0.00  0.00    +0.000 A 
BRANCH  13  20
ATOM     19  C   UNL     1      -2.187  11.749  23.178  0.00  0.00    +0.000 C 
ATOM     20  N   UNL     1      -2.227  12.231  21.800  0.00  0.00    +0.000 N 
ATOM     21  C   UNL     1      -3.525  12.683  21.307  0.00  0.00    +0.000 C 
ENDBRANCH  13  20
ENDBRANCH   9  16
ENDBRANCH   1  11
BRANCH   4  22
ATOM     22  C   UNL     1       6.172   4.840  16.448  0.00  0.00    +0.000 C 
ATOM     23  C   UNL     1       7.247   4.436  17.492  0.00  0.00    +0.000 C 
ATOM     24  C   UNL     1       5.865   3.564  15.631  0.00  0.00    +0.000 C 
ATOM     25  C   UNL     1       6.838   5.885  15.529  0.00  0.00    +0.000 C 
ENDBRANCH   4  22
BRANCH   7  26
ATOM     26  C   UNL     1       2.000   4.089  19.573  0.00  0.00    +0.000 C 
ATOM     27  C   UNL     1       1.175   3.090  18.735  0.00  0.00    +0.000 C 
ATOM     28  C   UNL     1       2.902   3.230  20.507  0.00  0.00    +0.000 C 
ATOM     29  C   UNL     1       1.069   4.889  20.506  0.00  0.00    +0.000 C 
ENDBRANCH   7  26
TORSDOF 5
ENDMDL
