MODEL 1
REMARK VINA RESULT:      -7.7      0.000      0.000
REMARK  Name = 
REMARK  8 active torsions:
REMARK  status: ('A' for Active; 'I' for Inactive)
REMARK    1  A    between atoms: C_1  and  C_2
REMARK    2  A    between atoms: C_5  and  N_6
REMARK    3  A    between atoms: C_7  and  C_9
REMARK    4  A    between atoms: C_9  and  C_10
REMARK    5  A    between atoms: C_14  and  C_16
REMARK    6  A    between atoms: C_16  and  C_17
REMARK    7  A    between atoms: C_17  and  C_18
REMARK    8  A    between atoms: C_24  and  C_25
REMARK                            x       y       z     vdW  Elec       q    Type
REMARK                         _______ _______ _______ _____ _____    ______ ____
ROOT
ATOM      1  C   UNL     1       4.730   5.387  16.829  0.00  0.00    +0.000 C 
ATOM      2  C   UNL     1       4.359   4.099  16.069  0.00  0.00    +0.000 C 
ATOM      3  C   UNL     1       5.672   6.294  15.984  0.00  0.00    +0.000 C 
ATOM      4  C   UNL     1       6.856   5.559  16.627  0.00  0.00    +0.000 C 
ATOM      5  N   UNL     1       5.916   5.190  17.678  0.00  0.00    +0.000 N 
ATOM      6  C   UNL     1       6.190   4.905  18.987  0.00  0.00    +0.000 C 
ATOM      7  O   UNL     1       7.348   4.942  19.410  0.00  0.00    +0.000 OA
ENDROOT
BRANCH   1   9
ATOM      8  N   UNL     1       3.495   7.398  17.774  0.00  0.00    +0.000 N 
ATOM      9  C   UNL     1       3.439   6.045  17.440  0.00  0.00    +0.000 C 
ATOM     10  O   UNL     1       2.403   5.368  17.568  0.00  0.00    +0.000 OA
ATOM     11  H   UNL     1       4.319   7.921  17.503  0.00  0.00    +0.000 HD
BRANCH   8  16
ATOM     12  C   UNL     1      -0.609  10.544  20.296  0.00  0.00    +0.000 C 
ATOM     13  C   UNL     1       0.425   9.663  19.653  0.00  0.00    +0.000 A 
ATOM     14  C   UNL     1       0.688   9.822  18.292  0.00  0.00    +0.000 A 
ATOM     15  C   UNL     1       1.668   9.058  17.662  0.00  0.00    +0.000 A 
ATOM     16  C   UNL     1       2.432   8.128  18.370  0.00  0.00    +0.000 A 
ATOM     17  C   UNL     1       2.132   7.920  19.723  0.00  0.00    +0.000 A 
ATOM     18  C   UNL     1       1.144   8.689  20.377  0.00  0.00    +0.000 A 
ATOM     19  C   UNL     1       0.877   8.475  21.842  0.00  0.00    +0.000 C 
ENDBRANCH   8  16
ENDBRANCH   1   9
BRANCH   6  20
ATOM     20  C   UNL     1       5.018   4.547  19.874  0.00  0.00    +0.000 C 
BRANCH  20  21
ATOM     21  C   UNL     1       4.584   3.082  19.733  0.00  0.00    +0.000 C 
BRANCH  21  22
ATOM     22  C   UNL     1       3.126   2.879  20.150  0.00  0.00    +0.000 C 
ATOM     23  C   UNL     1       2.431   4.167  20.592  0.00  0.00    +0.000 C 
ATOM     24  C   UNL     1       0.952   3.795  20.574  0.00  0.00    +0.000 C 
ATOM     25  C   UNL     1       0.801   2.749  19.471  0.00  0.00    +0.000 C 
ATOM     26  C   UNL     1       2.216   2.397  19.019  0.00  0.00    +0.000 C 
ENDBRANCH  21  22
ENDBRANCH  20  21
ENDBRANCH   6  20
TORSDOF 5
ENDMDL
MODEL 2
REMARK VINA RESULT:      -7.3      0.588      1.378
REMARK  Name = 
REMARK  8 active torsions:
REMARK  status: ('A' for Active; 'I' for Inactive)
REMARK    1  A    between atoms: C_1  and  C_2
REMARK    2  A    between atoms: C_5  and  N_6
REMARK    3  A    between atoms: C_7  and  C_9
REMARK    4  A    between atoms: C_9  and  C_10
REMARK    5  A    between atoms: C_14  and  C_16
REMARK    6  A    between atoms: C_16  and  C_17
REMARK    7  A    between atoms: C_17  and  C_18
REMARK    8  A    between atoms: C_24  and  C_25
REMARK                            x       y       z     vdW  Elec       q    Type
REMARK                         _______ _______ _______ _____ _____    ______ ____
ROOT
ATOM      1  C   UNL     1       4.356   5.259  16.844  0.00  0.00    +0.000 C 
ATOM      2  C   UNL     1       3.866   3.999  16.103  0.00  0.00    +0.000 C 
ATOM      3  C   UNL     1       5.188   6.182  15.906  0.00  0.00    +0.000 C 
ATOM      4  C   UNL     1       6.437   5.414  16.359  0.00  0.00    +0.000 C 
ATOM      5  N   UNL     1       5.643   5.021  17.517  0.00  0.00    +0.000 N 
ATOM      6  C   UNL     1       6.089   4.692  18.766  0.00  0.00    +0.000 C 
ATOM      7  O   UNL     1       7.294   4.703  19.029  0.00  0.00    +0.000 OA
ENDROOT
BRANCH   1   9
ATOM      8  N   UNL     1       3.382   7.166  18.212  0.00  0.00    +0.000 N 
ATOM      9  C   UNL     1       3.170   5.910  17.645  0.00  0.00    +0.000 C 
ATOM     10  O   UNL     1       2.077   5.321  17.716  0.00  0.00    +0.000 OA
ATOM     11  H   UNL     1       4.242   7.651  17.987  0.00  0.00    +0.000 HD
BRANCH   8  16
ATOM     12  C   UNL     1      -0.692   9.865  21.250  0.00  0.00    +0.000 C 
ATOM     13  C   UNL     1       0.410   9.221  20.456  0.00  0.00    +0.000 A 
ATOM     14  C   UNL     1       1.092   8.138  21.012  0.00  0.00    +0.000 A 
ATOM     15  C   UNL     1       2.092   7.483  20.296  0.00  0.00    +0.000 A 
ATOM     16  C   UNL     1       2.429   7.870  18.997  0.00  0.00    +0.000 A 
ATOM     17  C   UNL     1       1.792   8.993  18.456  0.00  0.00    +0.000 A 
ATOM     18  C   UNL     1       0.773   9.667  19.168  0.00  0.00    +0.000 A 
ATOM     19  C   UNL     1       0.074  10.842  18.541  0.00  0.00    +0.000 C 
ENDBRANCH   8  16
ENDBRANCH   1   9
BRANCH   6  20
ATOM     20  C   UNL     1       5.043   4.318  19.794  0.00  0.00    +0.000 C 
BRANCH  20  21
ATOM     21  C   UNL     1       4.610   2.849  19.702  0.00  0.00    +0.000 C 
BRANCH  21  22
ATOM     22  C   UNL     1       3.163   2.654  20.161  0.00  0.00    +0.000 C 
ATOM     23  C   UNL     1       2.519   3.927  20.710  0.00  0.00    +0.000 C 
ATOM     24  C   UNL     1       1.031   3.592  20.725  0.00  0.00    +0.000 C 
ATOM     25  C   UNL     1       0.812   2.623  19.565  0.00  0.00    +0.000 C 
ATOM     26  C   UNL     1       2.200   2.267  19.038  0.00  0.00    +0.000 C 
ENDBRANCH  21  22
ENDBRANCH  20  21
ENDBRANCH   6  20
TORSDOF 5
ENDMDL
MODEL 3
REMARK VINA RESULT:      -7.1      2.099      6.811
REMARK  Name = 
REMARK  8 active torsions:
REMARK  status: ('A' for Active; 'I' for Inactive)
REMARK    1  A    between atoms: C_1  and  C_2
REMARK    2  A    between atoms: C_5  and  N_6
REMARK    3  A    between atoms: C_7  and  C_9
REMARK    4  A    between atoms: C_9  and  C_10
REMARK    5  A    between atoms: C_14  and  C_16
REMARK    6  A    between atoms: C_16  and  C_17
REMARK    7  A    between atoms: C_17  and  C_18
REMARK    8  A    between atoms: C_24  and  C_25
REMARK                            x       y       z     vdW  Elec       q    Type
REMARK                         _______ _______ _______ _____ _____    ______ ____
ROOT
ATOM      1  C   UNL     1       3.513   2.946  19.171  0.00  0.00    +0.000 C 
ATOM      2  C   UNL     1       2.654   1.966  18.349  0.00  0.00    +0.000 C 
ATOM      3  C   UNL     1       3.912   2.336  20.547  0.00  0.00    +0.000 C 
ATOM      4  C   UNL     1       2.631   2.955  21.124  0.00  0.00    +0.000 C 
ATOM      5  N   UNL     1       2.677   3.852  19.976  0.00  0.00    +0.000 N 
ATOM      6  C   UNL     1       2.173   5.119  19.881  0.00  0.00    +0.000 C 
ATOM      7  O   UNL     1       1.593   5.640  20.836  0.00  0.00    +0.000 OA
ENDROOT
BRANCH   1   9
ATOM      8  N   UNL     1       4.476   3.536  16.894  0.00  0.00    +0.000 N 
ATOM      9  C   UNL     1       4.662   3.540  18.276  0.00  0.00    +0.000 C 
ATOM     10  O   UNL     1       5.672   4.029  18.813  0.00  0.00    +0.000 OA
ATOM     11  H   UNL     1       3.569   3.261  16.537  0.00  0.00    +0.000 HD
BRANCH   8  16
ATOM     12  C   UNL     1       8.138   5.586  12.958  0.00  0.00    +0.000 C 
ATOM     13  C   UNL     1       7.211   4.986  13.978  0.00  0.00    +0.000 A 
ATOM     14  C   UNL     1       7.252   5.468  15.287  0.00  0.00    +0.000 A 
ATOM     15  C   UNL     1       6.383   4.972  16.256  0.00  0.00    +0.000 A 
ATOM     16  C   UNL     1       5.432   3.997  15.949  0.00  0.00    +0.000 A 
ATOM     17  C   UNL     1       5.425   3.465  14.654  0.00  0.00    +0.000 A 
ATOM     18  C   UNL     1       6.298   3.960  13.658  0.00  0.00    +0.000 A 
ATOM     19  C   UNL     1       6.236   3.400  12.263  0.00  0.00    +0.000 C 
ENDBRANCH   8  16
ENDBRANCH   1   9
BRANCH   6  20
ATOM     20  C   UNL     1       2.358   5.836  18.561  0.00  0.00    +0.000 C 
BRANCH  20  21
ATOM     21  C   UNL     1       2.860   7.276  18.726  0.00  0.00    +0.000 C 
BRANCH  21  22
ATOM     22  C   UNL     1       1.712   8.287  18.672  0.00  0.00    +0.000 C 
ATOM     23  C   UNL     1       1.338   8.863  20.037  0.00  0.00    +0.000 C 
ATOM     24  C   UNL     1       0.488  10.080  19.687  0.00  0.00    +0.000 C 
ATOM     25  C   UNL     1       1.026  10.592  18.352  0.00  0.00    +0.000 C 
ATOM     26  C   UNL     1       2.032   9.550  17.869  0.00  0.00    +0.000 C 
ENDBRANCH  21  22
ENDBRANCH  20  21
ENDBRANCH   6  20
TORSDOF 5
ENDMDL
MODEL 4
REMARK VINA RESULT:      -7.0      1.689      4.377
REMARK  Name = 
REMARK  8 active torsions:
REMARK  status: ('A' for Active; 'I' for Inactive)
REMARK    1  A    between atoms: C_1  and  C_2
REMARK    2  A    between atoms: C_5  and  N_6
REMARK    3  A    between atoms: C_7  and  C_9
REMARK    4  A    between atoms: C_9  and  C_10
REMARK    5  A    between atoms: C_14  and  C_16
REMARK    6  A    between atoms: C_16  and  C_17
REMARK    7  A    between atoms: C_17  and  C_18
REMARK    8  A    between atoms: C_24  and  C_25
REMARK                            x       y       z     vdW  Elec       q    Type
REMARK                         _______ _______ _______ _____ _____    ______ ____
ROOT
ATOM      1  C   UNL     1       3.274   3.429  18.998  0.00  0.00    +0.000 C 
ATOM      2  C   UNL     1       4.191   3.371  20.236  0.00  0.00    +0.000 C 
ATOM      3  C   UNL     1       2.559   2.067  18.757  0.00  0.00    +0.000 C 
ATOM      4  C   UNL     1       3.748   1.669  17.872  0.00  0.00    +0.000 C 
ATOM      5  N   UNL     1       4.009   3.100  17.766  0.00  0.00    +0.000 N 
ATOM      6  C   UNL     1       4.630   3.765  16.747  0.00  0.00    +0.000 C 
ATOM      7  O   UNL     1       5.052   3.157  15.761  0.00  0.00    +0.000 OA
ENDROOT
BRANCH   1   9
ATOM      8  N   UNL     1       2.853   5.809  19.785  0.00  0.00    +0.000 N 
ATOM      9  C   UNL     1       2.382   4.723  19.047  0.00  0.00    +0.000 C 
ATOM     10  O   UNL     1       1.318   4.764  18.405  0.00  0.00    +0.000 OA
ATOM     11  H   UNL     1       3.794   5.760  20.156  0.00  0.00    +0.000 HD
BRANCH   8  16
ATOM     12  C   UNL     1      -0.214  10.646  20.336  0.00  0.00    +0.000 C 
ATOM     13  C   UNL     1       0.647   9.423  20.188  0.00  0.00    +0.000 A 
ATOM     14  C   UNL     1       0.653   8.480  21.217  0.00  0.00    +0.000 A 
ATOM     15  C   UNL     1       1.402   7.311  21.107  0.00  0.00    +0.000 A 
ATOM     16  C   UNL     1       2.150   7.032  19.961  0.00  0.00    +0.000 A 
ATOM     17  C   UNL     1       2.198   8.000  18.951  0.00  0.00    +0.000 A 
ATOM     18  C   UNL     1       1.441   9.190  19.046  0.00  0.00    +0.000 A 
ATOM     19  C   UNL     1       1.476  10.191  17.923  0.00  0.00    +0.000 C 
ENDBRANCH   8  16
ENDBRANCH   1   9
BRANCH   6  20
ATOM     20  C   UNL     1       4.774   5.265  16.891  0.00  0.00    +0.000 C 
BRANCH  20  21
ATOM     21  C   UNL     1       5.949   5.836  16.087  0.00  0.00    +0.000 C 
BRANCH  21  22
ATOM     22  C   UNL     1       7.165   6.108  16.976  0.00  0.00    +0.000 C 
ATOM     23  C   UNL     1       7.289   7.567  17.413  0.00  0.00    +0.000 C 
ATOM     24  C   UNL     1       8.295   7.510  18.557  0.00  0.00    +0.000 C 
ATOM     25  C   UNL     1       8.098   6.145  19.214  0.00  0.00    +0.000 C 
ATOM     26  C   UNL     1       7.133   5.374  18.318  0.00  0.00    +0.000 C 
ENDBRANCH  21  22
ENDBRANCH  20  21
ENDBRANCH   6  20
TORSDOF 5
ENDMDL
MODEL 5
REMARK VINA RESULT:      -6.9      1.725      4.161
REMARK  Name = 
REMARK  8 active torsions:
REMARK  status: ('A' for Active; 'I' for Inactive)
REMARK    1  A    between atoms: C_1  and  C_2
REMARK    2  A    between atoms: C_5  and  N_6
REMARK    3  A    between atoms: C_7  and  C_9
REMARK    4  A    between atoms: C_9  and  C_10
REMARK    5  A    between atoms: C_14  and  C_16
REMARK    6  A    between atoms: C_16  and  C_17
REMARK    7  A    between atoms: C_17  and  C_18
REMARK    8  A    between atoms: C_24  and  C_25
REMARK                            x       y       z     vdW  Elec       q    Type
REMARK                         _______ _______ _______ _____ _____    ______ ____
ROOT
ATOM      1  C   UNL     1       3.540   3.990  18.583  0.00  0.00    +0.000 C 
ATOM      2  C   UNL     1       4.518   4.187  19.757  0.00  0.00    +0.000 C 
ATOM      3  C   UNL     1       2.894   2.574  18.612  0.00  0.00    +0.000 C 
ATOM      4  C   UNL     1       4.061   2.092  17.738  0.00  0.00    +0.000 C 
ATOM      5  N   UNL     1       4.232   3.494  17.382  0.00  0.00    +0.000 N 
ATOM      6  C   UNL     1       4.763   4.009  16.232  0.00  0.00    +0.000 C 
ATOM      7  O   UNL     1       5.171   3.264  15.338  0.00  0.00    +0.000 OA
ENDROOT
BRANCH   1   9
ATOM      8  N   UNL     1       2.994   6.430  19.039  0.00  0.00    +0.000 N 
ATOM      9  C   UNL     1       2.577   5.228  18.468  0.00  0.00    +0.000 C 
ATOM     10  O   UNL     1       1.506   5.121  17.845  0.00  0.00    +0.000 OA
ATOM     11  H   UNL     1       3.940   6.484  19.398  0.00  0.00    +0.000 HD
BRANCH   8  16
ATOM     12  C   UNL     1       0.118  11.410  19.231  0.00  0.00    +0.000 C 
ATOM     13  C   UNL     1       0.809  10.075  19.197  0.00  0.00    +0.000 A 
ATOM     14  C   UNL     1       1.395   9.655  18.003  0.00  0.00    +0.000 A 
ATOM     15  C   UNL     1       2.082   8.445  17.935  0.00  0.00    +0.000 A 
ATOM     16  C   UNL     1       2.226   7.626  19.057  0.00  0.00    +0.000 A 
ATOM     17  C   UNL     1       1.588   8.012  20.243  0.00  0.00    +0.000 A 
ATOM     18  C   UNL     1       0.891   9.238  20.329  0.00  0.00    +0.000 A 
ATOM     19  C   UNL     1       0.255   9.648  21.630  0.00  0.00    +0.000 C 
ENDBRANCH   8  16
ENDBRANCH   1   9
BRANCH   6  20
ATOM     20  C   UNL     1       4.826   5.516  16.118  0.00  0.00    +0.000 C 
BRANCH  20  21
ATOM     21  C   UNL     1       6.261   6.058  16.090  0.00  0.00    +0.000 C 
BRANCH  21  22
ATOM     22  C   UNL     1       6.731   6.489  17.482  0.00  0.00    +0.000 C 
ATOM     23  C   UNL     1       7.554   5.426  18.207  0.00  0.00    +0.000 C 
ATOM     24  C   UNL     1       8.212   6.201  19.343  0.00  0.00    +0.000 C 
ATOM     25  C   UNL     1       8.411   7.621  18.816  0.00  0.00    +0.000 C 
ATOM     26  C   UNL     1       7.687   7.683  17.473  0.00  0.00    +0.000 C 
ENDBRANCH  21  22
ENDBRANCH  20  21
ENDBRANCH   6  20
TORSDOF 5
ENDMDL
MODEL 6
REMARK VINA RESULT:      -6.9      1.058      1.327
REMARK  Name = 
REMARK  8 active torsions:
REMARK  status: ('A' for Active; 'I' for Inactive)
REMARK    1  A    between atoms: C_1  and  C_2
REMARK    2  A    between atoms: C_5  and  N_6
REMARK    3  A    between atoms: C_7  and  C_9
REMARK    4  A    between atoms: C_9  and  C_10
REMARK    5  A    between atoms: C_14  and  C_16
REMARK    6  A    between atoms: C_16  and  C_17
REMARK    7  A    between atoms: C_17  and  C_18
REMARK    8  A    between atoms: C_24  and  C_25
REMARK                            x       y       z     vdW  Elec       q    Type
REMARK                         _______ _______ _______ _____ _____    ______ ____
ROOT
ATOM      1  C   UNL     1       5.049   5.500  16.403  0.00  0.00    +0.000 C 
ATOM      2  C   UNL     1       3.998   4.429  16.050  0.00  0.00    +0.000 C 
ATOM      3  C   UNL     1       5.984   5.797  15.195  0.00  0.00    +0.000 C 
ATOM      4  C   UNL     1       6.913   4.694  15.721  0.00  0.00    +0.000 C 
ATOM      5  N   UNL     1       6.251   4.898  17.003  0.00  0.00    +0.000 N 
ATOM      6  C   UNL     1       6.756   4.672  18.253  0.00  0.00    +0.000 C 
ATOM      7  O   UNL     1       7.902   4.244  18.402  0.00  0.00    +0.000 OA
ENDROOT
BRANCH   1   9
ATOM      8  N   UNL     1       3.066   6.543  17.604  0.00  0.00    +0.000 N 
ATOM      9  C   UNL     1       4.358   6.723  17.110  0.00  0.00    +0.000 C 
ATOM     10  O   UNL     1       4.982   7.790  17.246  0.00  0.00    +0.000 OA
ATOM     11  H   UNL     1       2.678   5.607  17.592  0.00  0.00    +0.000 HD
BRANCH   8  16
ATOM     12  C   UNL     1       0.184  10.787  20.209  0.00  0.00    +0.000 C 
ATOM     13  C   UNL     1       0.888   9.632  19.553  0.00  0.00    +0.000 A 
ATOM     14  C   UNL     1       1.028   9.634  18.165  0.00  0.00    +0.000 A 
ATOM     15  C   UNL     1       1.710   8.607  17.517  0.00  0.00    +0.000 A 
ATOM     16  C   UNL     1       2.292   7.557  18.230  0.00  0.00    +0.000 A 
ATOM     17  C   UNL     1       2.103   7.516  19.617  0.00  0.00    +0.000 A 
ATOM     18  C   UNL     1       1.417   8.553  20.290  0.00  0.00    +0.000 A 
ATOM     19  C   UNL     1       1.271   8.504  21.787  0.00  0.00    +0.000 C 
ENDBRANCH   8  16
ENDBRANCH   1   9
BRANCH   6  20
ATOM     20  C   UNL     1       5.847   4.969  19.427  0.00  0.00    +0.000 C 
BRANCH  20  21
ATOM     21  C   UNL     1       4.958   3.781  19.813  0.00  0.00    +0.000 C 
BRANCH  21  22
ATOM     22  C   UNL     1       3.471   4.112  19.663  0.00  0.00    +0.000 C 
ATOM     23  C   UNL     1       2.668   3.017  18.963  0.00  0.00    +0.000 C 
ATOM     24  C   UNL     1       1.221   3.383  19.277  0.00  0.00    +0.000 C 
ATOM     25  C   UNL     1       1.253   4.064  20.644  0.00  0.00    +0.000 C 
ATOM     26  C   UNL     1       2.727   4.254  20.992  0.00  0.00    +0.000 C 
ENDBRANCH  21  22
ENDBRANCH  20  21
ENDBRANCH   6  20
TORSDOF 5
ENDMDL
MODEL 7
REMARK VINA RESULT:      -6.8      1.852      4.298
REMARK  Name = 
REMARK  8 active torsions:
REMARK  status: ('A' for Active; 'I' for Inactive)
REMARK    1  A    between atoms: C_1  and  C_2
REMARK    2  A    between atoms: C_5  and  N_6
REMARK    3  A    between atoms: C_7  and  C_9
REMARK    4  A    between atoms: C_9  and  C_10
REMARK    5  A    between atoms: C_14  and  C_16
REMARK    6  A    between atoms: C_16  and  C_17
REMARK    7  A    between atoms: C_17  and  C_18
REMARK    8  A    between atoms: C_24  and  C_25
REMARK                            x       y       z     vdW  Elec       q    Type
REMARK                         _______ _______ _______ _____ _____    ______ ____
ROOT
ATOM      1  C   UNL     1       1.988   3.858  19.783  0.00  0.00    +0.000 C 
ATOM      2  C   UNL     1       2.539   4.002  21.215  0.00  0.00    +0.000 C 
ATOM      3  C   UNL     1       0.759   2.903  19.741  0.00  0.00    +0.000 C 
ATOM      4  C   UNL     1       1.741   1.750  19.493  0.00  0.00    +0.000 C 
ATOM      5  N   UNL     1       2.670   2.781  19.049  0.00  0.00    +0.000 N 
ATOM      6  C   UNL     1       3.698   2.654  18.156  0.00  0.00    +0.000 C 
ATOM      7  O   UNL     1       3.935   1.571  17.617  0.00  0.00    +0.000 OA
ENDROOT
BRANCH   1   9
ATOM      8  N   UNL     1       1.996   6.395  19.932  0.00  0.00    +0.000 N 
ATOM      9  C   UNL     1       1.835   5.275  19.118  0.00  0.00    +0.000 C 
ATOM     10  O   UNL     1       1.620   5.363  17.896  0.00  0.00    +0.000 OA
ATOM     11  H   UNL     1       2.318   6.252  20.882  0.00  0.00    +0.000 HD
BRANCH   8  16
ATOM     12  C   UNL     1       1.644  11.909  18.323  0.00  0.00    +0.000 C 
ATOM     13  C   UNL     1       1.665  10.466  18.745  0.00  0.00    +0.000 A 
ATOM     14  C   UNL     1       2.250   9.527  17.894  0.00  0.00    +0.000 A 
ATOM     15  C   UNL     1       2.329   8.186  18.261  0.00  0.00    +0.000 A 
ATOM     16  C   UNL     1       1.850   7.740  19.495  0.00  0.00    +0.000 A 
ATOM     17  C   UNL     1       1.207   8.664  20.327  0.00  0.00    +0.000 A 
ATOM     18  C   UNL     1       1.121  10.029  19.971  0.00  0.00    +0.000 A 
ATOM     19  C   UNL     1       0.465  11.007  20.907  0.00  0.00    +0.000 C 
ENDBRANCH   8  16
ENDBRANCH   1   9
BRANCH   6  20
ATOM     20  C   UNL     1       4.518   3.894  17.871  0.00  0.00    +0.000 C 
BRANCH  20  21
ATOM     21  C   UNL     1       5.433   4.290  19.037  0.00  0.00    +0.000 C 
BRANCH  21  22
ATOM     22  C   UNL     1       6.040   5.681  18.835  0.00  0.00    +0.000 C 
ATOM     23  C   UNL     1       7.562   5.670  18.696  0.00  0.00    +0.000 C 
ATOM     24  C   UNL     1       7.875   7.051  18.130  0.00  0.00    +0.000 C 
ATOM     25  C   UNL     1       6.664   7.437  17.283  0.00  0.00    +0.000 C 
ATOM     26  C   UNL     1       5.605   6.368  17.540  0.00  0.00    +0.000 C 
ENDBRANCH  21  22
ENDBRANCH  20  21
ENDBRANCH   6  20
TORSDOF 5
ENDMDL
MODEL 8
REMARK VINA RESULT:      -6.8      1.359      1.946
REMARK  Name = 
REMARK  8 active torsions:
REMARK  status: ('A' for Active; 'I' for Inactive)
REMARK    1  A    between atoms: C_1  and  C_2
REMARK    2  A    between atoms: C_5  and  N_6
REMARK    3  A    between atoms: C_7  and  C_9
REMARK    4  A    between atoms: C_9  and  C_10
REMARK    5  A    between atoms: C_14  and  C_16
REMARK    6  A    between atoms: C_16  and  C_17
REMARK    7  A    between atoms: C_17  and  C_18
REMARK    8  A    between atoms: C_24  and  C_25
REMARK                            x       y       z     vdW  Elec       q    Type
REMARK                         _______ _______ _______ _____ _____    ______ ____
ROOT
ATOM      1  C   UNL     1       5.087   5.925  17.228  0.00  0.00    +0.000 C 
ATOM      2  C   UNL     1       5.046   6.570  15.829  0.00  0.00    +0.000 C 
ATOM      3  C   UNL     1       6.547   5.798  17.752  0.00  0.00    +0.000 C 
ATOM      4  C   UNL     1       6.595   4.410  17.098  0.00  0.00    +0.000 C 
ATOM      5  N   UNL     1       5.139   4.457  17.144  0.00  0.00    +0.000 N 
ATOM      6  C   UNL     1       4.268   3.405  17.207  0.00  0.00    +0.000 C 
ATOM      7  O   UNL     1       4.682   2.244  17.231  0.00  0.00    +0.000 OA
ENDROOT
BRANCH   1   9
ATOM      8  N   UNL     1       3.167   7.548  17.604  0.00  0.00    +0.000 N 
ATOM      9  C   UNL     1       4.031   6.612  18.170  0.00  0.00    +0.000 C 
ATOM     10  O   UNL     1       3.963   6.278  19.367  0.00  0.00    +0.000 OA
ATOM     11  H   UNL     1       3.179   7.659  16.597  0.00  0.00    +0.000 HD
BRANCH   8  16
ATOM     12  C   UNL     1      -0.581  10.705  20.619  0.00  0.00    +0.000 C 
ATOM     13  C   UNL     1       0.360   9.822  19.848  0.00  0.00    +0.000 A 
ATOM     14  C   UNL     1       0.509  10.038  18.477  0.00  0.00    +0.000 A 
ATOM     15  C   UNL     1       1.401   9.272  17.729  0.00  0.00    +0.000 A 
ATOM     16  C   UNL     1       2.188   8.284  18.324  0.00  0.00    +0.000 A 
ATOM     17  C   UNL     1       2.000   8.021  19.687  0.00  0.00    +0.000 A 
ATOM     18  C   UNL     1       1.101   8.791  20.460  0.00  0.00    +0.000 A 
ATOM     19  C   UNL     1       0.955   8.515  21.932  0.00  0.00    +0.000 C 
ENDBRANCH   8  16
ENDBRANCH   1   9
BRANCH   6  20
ATOM     20  C   UNL     1       2.792   3.736  17.244  0.00  0.00    +0.000 C 
BRANCH  20  21
ATOM     21  C   UNL     1       1.937   2.602  17.823  0.00  0.00    +0.000 C 
BRANCH  21  22
ATOM     22  C   UNL     1       1.570   2.860  19.287  0.00  0.00    +0.000 C 
ATOM     23  C   UNL     1       2.680   2.491  20.271  0.00  0.00    +0.000 C 
ATOM     24  C   UNL     1       2.251   3.180  21.562  0.00  0.00    +0.000 C 
ATOM     25  C   UNL     1       1.491   4.433  21.132  0.00  0.00    +0.000 C 
ATOM     26  C   UNL     1       1.326   4.334  19.617  0.00  0.00    +0.000 C 
ENDBRANCH  21  22
ENDBRANCH  20  21
ENDBRANCH   6  20
TORSDOF 5
ENDMDL
MODEL 9
REMARK VINA RESULT:      -6.8      1.386      2.292
REMARK  Name = 
REMARK  8 active torsions:
REMARK  status: ('A' for Active; 'I' for Inactive)
REMARK    1  A    between atoms: C_1  and  C_2
REMARK    2  A    between atoms: C_5  and  N_6
REMARK    3  A    between atoms: C_7  and  C_9
REMARK    4  A    between atoms: C_9  and  C_10
REMARK    5  A    between atoms: C_14  and  C_16
REMARK    6  A    between atoms: C_16  and  C_17
REMARK    7  A    between atoms: C_17  and  C_18
REMARK    8  A    between atoms: C_24  and  C_25
REMARK                            x       y       z     vdW  Elec       q    Type
REMARK                         _______ _______ _______ _____ _____    ______ ____
ROOT
ATOM      1  C   UNL     1       5.219   5.931  16.896  0.00  0.00    +0.000 C 
ATOM      2  C   UNL     1       4.849   6.680  15.601  0.00  0.00    +0.000 C 
ATOM      3  C   UNL     1       6.760   5.910  17.119  0.00  0.00    +0.000 C 
ATOM      4  C   UNL     1       6.794   4.592  16.332  0.00  0.00    +0.000 C 
ATOM      5  N   UNL     1       5.377   4.487  16.658  0.00  0.00    +0.000 N 
ATOM      6  C   UNL     1       4.627   3.351  16.779  0.00  0.00    +0.000 C 
ATOM      7  O   UNL     1       5.133   2.240  16.608  0.00  0.00    +0.000 OA
ENDROOT
BRANCH   1   9
ATOM      8  N   UNL     1       3.316   7.354  17.797  0.00  0.00    +0.000 N 
ATOM      9  C   UNL     1       4.317   6.427  18.085  0.00  0.00    +0.000 C 
ATOM     10  O   UNL     1       4.486   5.958  19.225  0.00  0.00    +0.000 OA
ATOM     11  H   UNL     1       3.139   7.577  16.825  0.00  0.00    +0.000 HD
BRANCH   8  16
ATOM     12  C   UNL     1      -0.435   9.560  21.561  0.00  0.00    +0.000 C 
ATOM     13  C   UNL     1       0.584   9.044  20.584  0.00  0.00    +0.000 A 
ATOM     14  C   UNL     1       1.287   7.881  20.900  0.00  0.00    +0.000 A 
ATOM     15  C   UNL     1       2.210   7.342  20.007  0.00  0.00    +0.000 A 
ATOM     16  C   UNL     1       2.446   7.930  18.762  0.00  0.00    +0.000 A 
ATOM     17  C   UNL     1       1.790   9.130  18.463  0.00  0.00    +0.000 A 
ATOM     18  C   UNL     1       0.848   9.688  19.357  0.00  0.00    +0.000 A 
ATOM     19  C   UNL     1       0.124  10.954  18.987  0.00  0.00    +0.000 C 
ENDBRANCH   8  16
ENDBRANCH   1   9
BRANCH   6  20
ATOM     20  C   UNL     1       3.165   3.526  17.127  0.00  0.00    +0.000 C 
BRANCH  20  21
ATOM     21  C   UNL     1       2.518   2.242  17.663  0.00  0.00    +0.000 C 
BRANCH  21  22
ATOM     22  C   UNL     1       1.976   2.430  19.083  0.00  0.00    +0.000 C 
ATOM     23  C   UNL     1       3.066   2.661  20.128  0.00  0.00    +0.000 C 
ATOM     24  C   UNL     1       2.295   3.194  21.331  0.00  0.00    +0.000 C 
ATOM     25  C   UNL     1       1.101   3.952  20.756  0.00  0.00    +0.000 C 
ATOM     26  C   UNL     1       1.099   3.671  19.255  0.00  0.00    +0.000 C 
ENDBRANCH  21  22
ENDBRANCH  20  21
ENDBRANCH   6  20
TORSDOF 5
ENDMDL
