MODEL 1
REMARK VINA RESULT:      -8.0      0.000      0.000
REMARK  Name = 
REMARK  6 active torsions:
REMARK  status: ('A' for Active; 'I' for Inactive)
REMARK    1  A    between atoms: C_1  and  C_2
REMARK    2  A    between atoms: N_4  and  C_5
REMARK    3  A    between atoms: C_5  and  C_6
REMARK    4  A    between atoms: C_5  and  C_17
REMARK    5  A    between atoms: N_8  and  C_9
REMARK    6  A    between atoms: C_9  and  C_10
REMARK                            x       y       z     vdW  Elec       q    Type
REMARK                         _______ _______ _______ _____ _____    ______ ____
ROOT
ATOM      1  C   UNL     1       4.793   5.213  16.706  0.00  0.00    +0.000 C 
ATOM      2  O   UNL     1       4.091   6.202  16.917  0.00  0.00    +0.000 OA
ATOM      3  N   UNL     1       4.286   3.926  16.754  0.00  0.00    +0.000 N 
ATOM      4  H   UNL     1       4.941   3.152  16.810  0.00  0.00    +0.000 HD
ENDROOT
BRANCH   1   5
ATOM      5  C   UNL     1       6.318   5.280  16.432  0.00  0.00    +0.000 C 
BRANCH   5   9
ATOM      6  C   UNL     1       8.034   8.352  17.820  0.00  0.00    +0.000 C 
ATOM      7  C   UNL     1       7.542   6.929  17.792  0.00  0.00    +0.000 C 
ATOM      8  O   UNL     1       7.781   6.116  18.680  0.00  0.00    +0.000 OA
ATOM      9  N   UNL     1       6.812   6.622  16.678  0.00  0.00    +0.000 N 
ATOM     10  H   UNL     1       6.693   7.295  15.929  0.00  0.00    +0.000 HD
ENDBRANCH   5   9
BRANCH   5  11
ATOM     11  C   UNL     1       6.593   4.896  15.012  0.00  0.00    +0.000 A 
ATOM     12  C   UNL     1       6.013   3.979  14.157  0.00  0.00    +0.000 A 
ATOM     13  C   UNL     1       6.734   4.046  12.943  0.00  0.00    +0.000 A 
ATOM     14  C   UNL     1       7.708   4.996  13.127  0.00  0.00    +0.000 A 
ATOM     15  O   UNL     1       7.638   5.516  14.377  0.00  0.00    +0.000 OA
ENDBRANCH   5  11
ENDBRANCH   1   5
BRANCH   3  16
ATOM     16  C   UNL     1       2.882   3.662  16.972  0.00  0.00    +0.000 C 
BRANCH  16  17
ATOM     17  C   UNL     1       2.577   3.459  18.437  0.00  0.00    +0.000 A 
ATOM     18  C   UNL     1       3.490   2.799  19.275  0.00  0.00    +0.000 A 
ATOM     19  C   UNL     1       3.205   2.619  20.630  0.00  0.00    +0.000 A 
ATOM     20  C   UNL     1       2.004   3.090  21.148  0.00  0.00    +0.000 A 
ATOM     21  F   UNL     1       1.734   2.918  22.449  0.00  0.00    +0.000 F 
ATOM     22  C   UNL     1       1.081   3.735  20.336  0.00  0.00    +0.000 A 
ATOM     23  C   UNL     1       1.364   3.916  18.980  0.00  0.00    +0.000 A 
ENDBRANCH  16  17
ENDBRANCH   3  16
TORSDOF 5
ENDMDL
MODEL 2
REMARK VINA RESULT:      -8.0      1.124      1.272
REMARK  Name = 
REMARK  6 active torsions:
REMARK  status: ('A' for Active; 'I' for Inactive)
REMARK    1  A    between atoms: C_1  and  C_2
REMARK    2  A    between atoms: N_4  and  C_5
REMARK    3  A    between atoms: C_5  and  C_6
REMARK    4  A    between atoms: C_5  and  C_17
REMARK    5  A    between atoms: N_8  and  C_9
REMARK    6  A    between atoms: C_9  and  C_10
REMARK                            x       y       z     vdW  Elec       q    Type
REMARK                         _______ _______ _______ _____ _____    ______ ____
ROOT
ATOM      1  C   UNL     1       4.502   6.199  17.323  0.00  0.00    +0.000 C 
ATOM      2  O   UNL     1       3.964   7.300  17.440  0.00  0.00    +0.000 OA
ATOM      3  N   UNL     1       3.798   5.015  17.469  0.00  0.00    +0.000 N 
ATOM      4  H   UNL     1       4.322   4.156  17.600  0.00  0.00    +0.000 HD
ENDROOT
BRANCH   1   5
ATOM      5  C   UNL     1       6.020   6.002  17.073  0.00  0.00    +0.000 C 
BRANCH   5   9
ATOM      6  C   UNL     1       8.352   8.902  17.750  0.00  0.00    +0.000 C 
ATOM      7  C   UNL     1       7.722   7.550  17.952  0.00  0.00    +0.000 C 
ATOM      8  O   UNL     1       8.097   6.753  18.807  0.00  0.00    +0.000 OA
ATOM      9  N   UNL     1       6.700   7.285  17.085  0.00  0.00    +0.000 N 
ATOM     10  H   UNL     1       6.460   7.933  16.344  0.00  0.00    +0.000 HD
ENDBRANCH   5   9
BRANCH   5  11
ATOM     11  C   UNL     1       6.230   5.335  15.749  0.00  0.00    +0.000 A 
ATOM     12  C   UNL     1       5.503   4.397  15.044  0.00  0.00    +0.000 A 
ATOM     13  C   UNL     1       6.230   4.127  13.861  0.00  0.00    +0.000 A 
ATOM     14  C   UNL     1       7.354   4.914  13.914  0.00  0.00    +0.000 A 
ATOM     15  O   UNL     1       7.370   5.648  15.055  0.00  0.00    +0.000 OA
ENDBRANCH   5  11
ENDBRANCH   1   5
BRANCH   3  16
ATOM     16  C   UNL     1       2.368   4.995  17.682  0.00  0.00    +0.000 C 
BRANCH  16  17
ATOM     17  C   UNL     1       2.009   4.262  18.953  0.00  0.00    +0.000 A 
ATOM     18  C   UNL     1       1.241   3.087  18.912  0.00  0.00    +0.000 A 
ATOM     19  C   UNL     1       0.917   2.412  20.091  0.00  0.00    +0.000 A 
ATOM     20  C   UNL     1       1.351   2.915  21.311  0.00  0.00    +0.000 A 
ATOM     21  F   UNL     1       1.041   2.264  22.441  0.00  0.00    +0.000 F 
ATOM     22  C   UNL     1       2.101   4.081  21.377  0.00  0.00    +0.000 A 
ATOM     23  C   UNL     1       2.426   4.758  20.200  0.00  0.00    +0.000 A 
ENDBRANCH  16  17
ENDBRANCH   3  16
TORSDOF 5
ENDMDL
MODEL 3
REMARK VINA RESULT:      -7.9      1.295      1.503
REMARK  Name = 
REMARK  6 active torsions:
REMARK  status: ('A' for Active; 'I' for Inactive)
REMARK    1  A    between atoms: C_1  and  C_2
REMARK    2  A    between atoms: N_4  and  C_5
REMARK    3  A    between atoms: C_5  and  C_6
REMARK    4  A    between atoms: C_5  and  C_17
REMARK    5  A    between atoms: N_8  and  C_9
REMARK    6  A    between atoms: C_9  and  C_10
REMARK                            x       y       z     vdW  Elec       q    Type
REMARK                         _______ _______ _______ _____ _____    ______ ____
ROOT
ATOM      1  C   UNL     1       4.550   4.569  16.896  0.00  0.00    +0.000 C 
ATOM      2  O   UNL     1       3.816   3.694  16.435  0.00  0.00    +0.000 OA
ATOM      3  N   UNL     1       4.050   5.660  17.586  0.00  0.00    +0.000 N 
ATOM      4  H   UNL     1       4.660   6.458  17.733  0.00  0.00    +0.000 HD
ENDROOT
BRANCH   1   5
ATOM      5  C   UNL     1       6.088   4.594  16.707  0.00  0.00    +0.000 C 
BRANCH   5   9
ATOM      6  C   UNL     1       8.097   7.159  18.628  0.00  0.00    +0.000 C 
ATOM      7  C   UNL     1       7.589   5.793  18.248  0.00  0.00    +0.000 C 
ATOM      8  O   UNL     1       7.994   4.756  18.763  0.00  0.00    +0.000 OA
ATOM      9  N   UNL     1       6.642   5.815  17.263  0.00  0.00    +0.000 N 
ATOM     10  H   UNL     1       6.380   6.681  16.807  0.00  0.00    +0.000 HD
ENDBRANCH   5   9
BRANCH   5  11
ATOM     11  C   UNL     1       6.419   4.511  15.249  0.00  0.00    +0.000 A 
ATOM     12  C   UNL     1       5.914   3.750  14.213  0.00  0.00    +0.000 A 
ATOM     13  C   UNL     1       6.657   4.093  13.060  0.00  0.00    +0.000 A 
ATOM     14  C   UNL     1       7.568   5.040  13.459  0.00  0.00    +0.000 A 
ATOM     15  O   UNL     1       7.439   5.300  14.783  0.00  0.00    +0.000 OA
ENDBRANCH   5  11
ENDBRANCH   1   5
BRANCH   3  16
ATOM     16  C   UNL     1       2.642   5.801  17.884  0.00  0.00    +0.000 C 
BRANCH  16  17
ATOM     17  C   UNL     1       2.223   4.893  19.016  0.00  0.00    +0.000 A 
ATOM     18  C   UNL     1       1.331   3.831  18.791  0.00  0.00    +0.000 A 
ATOM     19  C   UNL     1       0.952   2.992  19.841  0.00  0.00    +0.000 A 
ATOM     20  C   UNL     1       1.455   3.217  21.116  0.00  0.00    +0.000 A 
ATOM     21  F   UNL     1       1.091   2.409  22.121  0.00  0.00    +0.000 F 
ATOM     22  C   UNL     1       2.329   4.267  21.364  0.00  0.00    +0.000 A 
ATOM     23  C   UNL     1       2.709   5.108  20.317  0.00  0.00    +0.000 A 
ENDBRANCH  16  17
ENDBRANCH   3  16
TORSDOF 5
ENDMDL
MODEL 4
REMARK VINA RESULT:      -7.9      1.323      1.384
REMARK  Name = 
REMARK  6 active torsions:
REMARK  status: ('A' for Active; 'I' for Inactive)
REMARK    1  A    between atoms: C_1  and  C_2
REMARK    2  A    between atoms: N_4  and  C_5
REMARK    3  A    between atoms: C_5  and  C_6
REMARK    4  A    between atoms: C_5  and  C_17
REMARK    5  A    between atoms: N_8  and  C_9
REMARK    6  A    between atoms: C_9  and  C_10
REMARK                            x       y       z     vdW  Elec       q    Type
REMARK                         _______ _______ _______ _____ _____    ______ ____
ROOT
ATOM      1  C   UNL     1       4.595   4.470  17.006  0.00  0.00    +0.000 C 
ATOM      2  O   UNL     1       3.900   3.499  16.707  0.00  0.00    +0.000 OA
ATOM      3  N   UNL     1       4.051   5.636  17.518  0.00  0.00    +0.000 N 
ATOM      4  H   UNL     1       4.624   6.474  17.521  0.00  0.00    +0.000 HD
ENDROOT
BRANCH   1   5
ATOM      5  C   UNL     1       6.129   4.534  16.785  0.00  0.00    +0.000 C 
BRANCH   5   9
ATOM      6  C   UNL     1       8.113   7.119  18.705  0.00  0.00    +0.000 C 
ATOM      7  C   UNL     1       7.628   5.748  18.317  0.00  0.00    +0.000 C 
ATOM      8  O   UNL     1       8.062   4.714  18.814  0.00  0.00    +0.000 OA
ATOM      9  N   UNL     1       6.665   5.760  17.347  0.00  0.00    +0.000 N 
ATOM     10  H   UNL     1       6.378   6.626  16.905  0.00  0.00    +0.000 HD
ENDBRANCH   5   9
BRANCH   5  11
ATOM     11  C   UNL     1       6.430   4.480  15.320  0.00  0.00    +0.000 A 
ATOM     12  C   UNL     1       5.897   3.747  14.277  0.00  0.00    +0.000 A 
ATOM     13  C   UNL     1       6.622   4.106  13.118  0.00  0.00    +0.000 A 
ATOM     14  C   UNL     1       7.552   5.033  13.519  0.00  0.00    +0.000 A 
ATOM     15  O   UNL     1       7.451   5.266  14.852  0.00  0.00    +0.000 OA
ENDBRANCH   5  11
ENDBRANCH   1   5
BRANCH   3  16
ATOM     16  C   UNL     1       2.642   5.759  17.816  0.00  0.00    +0.000 C 
BRANCH  16  17
ATOM     17  C   UNL     1       2.241   4.869  18.969  0.00  0.00    +0.000 A 
ATOM     18  C   UNL     1       2.788   5.062  20.248  0.00  0.00    +0.000 A 
ATOM     19  C   UNL     1       2.410   4.239  21.311  0.00  0.00    +0.000 A 
ATOM     20  C   UNL     1       1.492   3.218  21.096  0.00  0.00    +0.000 A 
ATOM     21  F   UNL     1       1.129   2.432  22.118  0.00  0.00    +0.000 F 
ATOM     22  C   UNL     1       0.947   3.002  19.838  0.00  0.00    +0.000 A 
ATOM     23  C   UNL     1       1.324   3.822  18.773  0.00  0.00    +0.000 A 
ENDBRANCH  16  17
ENDBRANCH   3  16
TORSDOF 5
ENDMDL
MODEL 5
REMARK VINA RESULT:      -7.9      2.963      3.368
REMARK  Name = 
REMARK  6 active torsions:
REMARK  status: ('A' for Active; 'I' for Inactive)
REMARK    1  A    between atoms: C_1  and  C_2
REMARK    2  A    between atoms: N_4  and  C_5
REMARK    3  A    between atoms: C_5  and  C_6
REMARK    4  A    between atoms: C_5  and  C_17
REMARK    5  A    between atoms: N_8  and  C_9
REMARK    6  A    between atoms: C_9  and  C_10
REMARK                            x       y       z     vdW  Elec       q    Type
REMARK                         _______ _______ _______ _____ _____    ______ ____
ROOT
ATOM      1  C   UNL     1       5.550   4.883  17.562  0.00  0.00    +0.000 C 
ATOM      2  O   UNL     1       5.476   3.931  18.340  0.00  0.00    +0.000 OA
ATOM      3  N   UNL     1       4.448   5.653  17.234  0.00  0.00    +0.000 N 
ATOM      4  H   UNL     1       4.508   6.259  16.423  0.00  0.00    +0.000 HD
ENDROOT
BRANCH   1   5
ATOM      5  C   UNL     1       6.847   5.287  16.814  0.00  0.00    +0.000 C 
BRANCH   5   9
ATOM      6  C   UNL     1       7.877   8.810  17.725  0.00  0.00    +0.000 C 
ATOM      7  C   UNL     1       7.723   7.322  17.890  0.00  0.00    +0.000 C 
ATOM      8  O   UNL     1       8.183   6.698  18.841  0.00  0.00    +0.000 OA
ATOM      9  N   UNL     1       7.031   6.725  16.873  0.00  0.00    +0.000 N 
ATOM     10  H   UNL     1       6.726   7.256  16.066  0.00  0.00    +0.000 HD
ENDBRANCH   5   9
BRANCH   5  11
ATOM     11  C   UNL     1       6.761   4.850  15.385  0.00  0.00    +0.000 A 
ATOM     12  C   UNL     1       5.989   3.907  14.735  0.00  0.00    +0.000 A 
ATOM     13  C   UNL     1       6.385   3.925  13.378  0.00  0.00    +0.000 A 
ATOM     14  C   UNL     1       7.372   4.875  13.279  0.00  0.00    +0.000 A 
ATOM     15  O   UNL     1       7.613   5.440  14.488  0.00  0.00    +0.000 OA
ENDBRANCH   5  11
ENDBRANCH   1   5
BRANCH   3  16
ATOM     16  C   UNL     1       3.156   5.445  17.849  0.00  0.00    +0.000 C 
BRANCH  16  17
ATOM     17  C   UNL     1       2.594   6.732  18.405  0.00  0.00    +0.000 A 
ATOM     18  C   UNL     1       2.431   7.859  17.583  0.00  0.00    +0.000 A 
ATOM     19  C   UNL     1       1.907   9.044  18.102  0.00  0.00    +0.000 A 
ATOM     20  C   UNL     1       1.552   9.108  19.445  0.00  0.00    +0.000 A 
ATOM     21  F   UNL     1       1.047  10.246  19.941  0.00  0.00    +0.000 F 
ATOM     22  C   UNL     1       1.715   8.010  20.279  0.00  0.00    +0.000 A 
ATOM     23  C   UNL     1       2.240   6.824  19.763  0.00  0.00    +0.000 A 
ENDBRANCH  16  17
ENDBRANCH   3  16
TORSDOF 5
ENDMDL
MODEL 6
REMARK VINA RESULT:      -7.8      1.795      2.276
REMARK  Name = 
REMARK  6 active torsions:
REMARK  status: ('A' for Active; 'I' for Inactive)
REMARK    1  A    between atoms: C_1  and  C_2
REMARK    2  A    between atoms: N_4  and  C_5
REMARK    3  A    between atoms: C_5  and  C_6
REMARK    4  A    between atoms: C_5  and  C_17
REMARK    5  A    between atoms: N_8  and  C_9
REMARK    6  A    between atoms: C_9  and  C_10
REMARK                            x       y       z     vdW  Elec       q    Type
REMARK                         _______ _______ _______ _____ _____    ______ ____
ROOT
ATOM      1  C   UNL     1       6.048   5.241  18.460  0.00  0.00    +0.000 C 
ATOM      2  O   UNL     1       6.182   4.285  19.224  0.00  0.00    +0.000 OA
ATOM      3  N   UNL     1       4.951   6.083  18.519  0.00  0.00    +0.000 N 
ATOM      4  H   UNL     1       4.772   6.697  17.731  0.00  0.00    +0.000 HD
ENDROOT
BRANCH   1   5
ATOM      5  C   UNL     1       7.038   5.574  17.314  0.00  0.00    +0.000 C 
BRANCH   5   9
ATOM      6  C   UNL     1       8.021   9.214  17.626  0.00  0.00    +0.000 C 
ATOM      7  C   UNL     1       7.955   7.756  17.998  0.00  0.00    +0.000 C 
ATOM      8  O   UNL     1       8.560   7.276  18.951  0.00  0.00    +0.000 OA
ATOM      9  N   UNL     1       7.166   7.013  17.165  0.00  0.00    +0.000 N 
ATOM     10  H   UNL     1       6.736   7.424  16.345  0.00  0.00    +0.000 HD
ENDBRANCH   5   9
BRANCH   5  11
ATOM     11  C   UNL     1       6.545   4.979  16.032  0.00  0.00    +0.000 A 
ATOM     12  C   UNL     1       5.450   4.197  15.720  0.00  0.00    +0.000 A 
ATOM     13  C   UNL     1       5.536   3.916  14.337  0.00  0.00    +0.000 A 
ATOM     14  C   UNL     1       6.674   4.539  13.888  0.00  0.00    +0.000 A 
ATOM     15  O   UNL     1       7.298   5.184  14.906  0.00  0.00    +0.000 OA
ENDBRANCH   5  11
ENDBRANCH   1   5
BRANCH   3  16
ATOM     16  C   UNL     1       3.933   5.947  19.537  0.00  0.00    +0.000 C 
BRANCH  16  17
ATOM     17  C   UNL     1       2.965   4.836  19.205  0.00  0.00    +0.000 A 
ATOM     18  C   UNL     1       2.406   4.730  17.921  0.00  0.00    +0.000 A 
ATOM     19  C   UNL     1       1.516   3.697  17.620  0.00  0.00    +0.000 A 
ATOM     20  C   UNL     1       1.176   2.775  18.602  0.00  0.00    +0.000 A 
ATOM     21  F   UNL     1       0.323   1.784  18.310  0.00  0.00    +0.000 F 
ATOM     22  C   UNL     1       1.707   2.867  19.882  0.00  0.00    +0.000 A 
ATOM     23  C   UNL     1       2.597   3.899  20.186  0.00  0.00    +0.000 A 
ENDBRANCH  16  17
ENDBRANCH   3  16
TORSDOF 5
ENDMDL
MODEL 7
REMARK VINA RESULT:      -7.8      0.667      1.357
REMARK  Name = 
REMARK  6 active torsions:
REMARK  status: ('A' for Active; 'I' for Inactive)
REMARK    1  A    between atoms: C_1  and  C_2
REMARK    2  A    between atoms: N_4  and  C_5
REMARK    3  A    between atoms: C_5  and  C_6
REMARK    4  A    between atoms: C_5  and  C_17
REMARK    5  A    between atoms: N_8  and  C_9
REMARK    6  A    between atoms: C_9  and  C_10
REMARK                            x       y       z     vdW  Elec       q    Type
REMARK                         _______ _______ _______ _____ _____    ______ ____
ROOT
ATOM      1  C   UNL     1       4.791   5.068  16.665  0.00  0.00    +0.000 C 
ATOM      2  O   UNL     1       4.095   6.063  16.867  0.00  0.00    +0.000 OA
ATOM      3  N   UNL     1       4.283   3.783  16.757  0.00  0.00    +0.000 N 
ATOM      4  H   UNL     1       4.937   3.010  16.818  0.00  0.00    +0.000 HD
ENDROOT
BRANCH   1   5
ATOM      5  C   UNL     1       6.309   5.125  16.358  0.00  0.00    +0.000 C 
BRANCH   5   9
ATOM      6  C   UNL     1       7.978   8.199  17.797  0.00  0.00    +0.000 C 
ATOM      7  C   UNL     1       7.446   6.791  17.772  0.00  0.00    +0.000 C 
ATOM      8  O   UNL     1       7.571   6.007  18.707  0.00  0.00    +0.000 OA
ATOM      9  N   UNL     1       6.820   6.461  16.603  0.00  0.00    +0.000 N 
ATOM     10  H   UNL     1       6.796   7.107  15.822  0.00  0.00    +0.000 HD
ENDBRANCH   5   9
BRANCH   5  11
ATOM     11  C   UNL     1       6.550   4.749  14.929  0.00  0.00    +0.000 A 
ATOM     12  C   UNL     1       7.456   5.185  13.983  0.00  0.00    +0.000 A 
ATOM     13  C   UNL     1       7.170   4.478  12.793  0.00  0.00    +0.000 A 
ATOM     14  C   UNL     1       6.110   3.654  13.081  0.00  0.00    +0.000 A 
ATOM     15  O   UNL     1       5.721   3.811  14.371  0.00  0.00    +0.000 OA
ENDBRANCH   5  11
ENDBRANCH   1   5
BRANCH   3  16
ATOM     16  C   UNL     1       2.882   3.528  17.010  0.00  0.00    +0.000 C 
BRANCH  16  17
ATOM     17  C   UNL     1       2.600   3.410  18.489  0.00  0.00    +0.000 A 
ATOM     18  C   UNL     1       1.441   3.975  19.046  0.00  0.00    +0.000 A 
ATOM     19  C   UNL     1       1.183   3.859  20.413  0.00  0.00    +0.000 A 
ATOM     20  C   UNL     1       2.086   3.187  21.227  0.00  0.00    +0.000 A 
ATOM     21  F   UNL     1       1.836   3.075  22.539  0.00  0.00    +0.000 F 
ATOM     22  C   UNL     1       3.245   2.630  20.701  0.00  0.00    +0.000 A 
ATOM     23  C   UNL     1       3.505   2.746  19.335  0.00  0.00    +0.000 A 
ENDBRANCH  16  17
ENDBRANCH   3  16
TORSDOF 5
ENDMDL
MODEL 8
REMARK VINA RESULT:      -7.8      1.857      2.345
REMARK  Name = 
REMARK  6 active torsions:
REMARK  status: ('A' for Active; 'I' for Inactive)
REMARK    1  A    between atoms: C_1  and  C_2
REMARK    2  A    between atoms: N_4  and  C_5
REMARK    3  A    between atoms: C_5  and  C_6
REMARK    4  A    between atoms: C_5  and  C_17
REMARK    5  A    between atoms: N_8  and  C_9
REMARK    6  A    between atoms: C_9  and  C_10
REMARK                            x       y       z     vdW  Elec       q    Type
REMARK                         _______ _______ _______ _____ _____    ______ ____
ROOT
ATOM      1  C   UNL     1       6.122   5.508  18.684  0.00  0.00    +0.000 C 
ATOM      2  O   UNL     1       6.353   4.809  19.671  0.00  0.00    +0.000 OA
ATOM      3  N   UNL     1       4.891   6.105  18.477  0.00  0.00    +0.000 N 
ATOM      4  H   UNL     1       4.679   6.463  17.551  0.00  0.00    +0.000 HD
ENDROOT
BRANCH   1   5
ATOM      5  C   UNL     1       7.139   5.745  17.538  0.00  0.00    +0.000 C 
BRANCH   5   9
ATOM      6  C   UNL     1       8.126   9.397  17.522  0.00  0.00    +0.000 C 
ATOM      7  C   UNL     1       8.067   7.976  18.018  0.00  0.00    +0.000 C 
ATOM      8  O   UNL     1       8.690   7.577  18.997  0.00  0.00    +0.000 OA
ATOM      9  N   UNL     1       7.263   7.166  17.266  0.00  0.00    +0.000 N 
ATOM     10  H   UNL     1       6.819   7.507  16.421  0.00  0.00    +0.000 HD
ENDBRANCH   5   9
BRANCH   5  11
ATOM     11  C   UNL     1       6.681   5.035  16.302  0.00  0.00    +0.000 A 
ATOM     12  C   UNL     1       5.764   4.026  16.084  0.00  0.00    +0.000 A 
ATOM     13  C   UNL     1       5.791   3.749  14.698  0.00  0.00    +0.000 A 
ATOM     14  C   UNL     1       6.719   4.601  14.154  0.00  0.00    +0.000 A 
ATOM     15  O   UNL     1       7.271   5.384  15.115  0.00  0.00    +0.000 OA
ENDBRANCH   5  11
ENDBRANCH   1   5
BRANCH   3  16
ATOM     16  C   UNL     1       3.822   6.018  19.447  0.00  0.00    +0.000 C 
BRANCH  16  17
ATOM     17  C   UNL     1       2.894   4.865  19.146  0.00  0.00    +0.000 A 
ATOM     18  C   UNL     1       2.036   4.357  20.136  0.00  0.00    +0.000 A 
ATOM     19  C   UNL     1       1.177   3.294  19.850  0.00  0.00    +0.000 A 
ATOM     20  C   UNL     1       1.180   2.732  18.579  0.00  0.00    +0.000 A 
ATOM     21  F   UNL     1       0.353   1.713  18.306  0.00  0.00    +0.000 F 
ATOM     22  C   UNL     1       2.027   3.210  17.588  0.00  0.00    +0.000 A 
ATOM     23  C   UNL     1       2.888   4.272  17.872  0.00  0.00    +0.000 A 
ENDBRANCH  16  17
ENDBRANCH   3  16
TORSDOF 5
ENDMDL
MODEL 9
REMARK VINA RESULT:      -7.7      1.522      3.455
REMARK  Name = 
REMARK  6 active torsions:
REMARK  status: ('A' for Active; 'I' for Inactive)
REMARK    1  A    between atoms: C_1  and  C_2
REMARK    2  A    between atoms: N_4  and  C_5
REMARK    3  A    between atoms: C_5  and  C_6
REMARK    4  A    between atoms: C_5  and  C_17
REMARK    5  A    between atoms: N_8  and  C_9
REMARK    6  A    between atoms: C_9  and  C_10
REMARK                            x       y       z     vdW  Elec       q    Type
REMARK                         _______ _______ _______ _____ _____    ______ ____
ROOT
ATOM      1  C   UNL     1       4.027   6.854  17.234  0.00  0.00    +0.000 C 
ATOM      2  O   UNL     1       3.604   7.968  17.547  0.00  0.00    +0.000 OA
ATOM      3  N   UNL     1       3.327   5.694  17.520  0.00  0.00    +0.000 N 
ATOM      4  H   UNL     1       3.819   4.808  17.460  0.00  0.00    +0.000 HD
ENDROOT
BRANCH   1   5
ATOM      5  C   UNL     1       5.401   6.612  16.557  0.00  0.00    +0.000 C 
BRANCH   5   9
ATOM      6  C   UNL     1       6.210   3.681  14.308  0.00  0.00    +0.000 C 
ATOM      7  C   UNL     1       6.413   5.011  14.982  0.00  0.00    +0.000 C 
ATOM      8  O   UNL     1       7.431   5.684  14.854  0.00  0.00    +0.000 OA
ATOM      9  N   UNL     1       5.361   5.397  15.765  0.00  0.00    +0.000 N 
ATOM     10  H   UNL     1       4.564   4.787  15.908  0.00  0.00    +0.000 HD
ENDBRANCH   5   9
BRANCH   5  11
ATOM     11  C   UNL     1       6.465   6.494  17.604  0.00  0.00    +0.000 A 
ATOM     12  C   UNL     1       7.631   7.195  17.841  0.00  0.00    +0.000 A 
ATOM     13  C   UNL     1       8.242   6.594  18.965  0.00  0.00    +0.000 A 
ATOM     14  C   UNL     1       7.417   5.565  19.346  0.00  0.00    +0.000 A 
ATOM     15  O   UNL     1       6.338   5.490  18.528  0.00  0.00    +0.000 OA
ENDBRANCH   5  11
ENDBRANCH   1   5
BRANCH   3  16
ATOM     16  C   UNL     1       2.015   5.719  18.126  0.00  0.00    +0.000 C 
BRANCH  16  17
ATOM     17  C   UNL     1       1.894   4.687  19.223  0.00  0.00    +0.000 A 
ATOM     18  C   UNL     1       1.293   3.442  18.974  0.00  0.00    +0.000 A 
ATOM     19  C   UNL     1       1.188   2.491  19.991  0.00  0.00    +0.000 A 
ATOM     20  C   UNL     1       1.674   2.785  21.259  0.00  0.00    +0.000 A 
ATOM     21  F   UNL     1       1.575   1.870  22.233  0.00  0.00    +0.000 F 
ATOM     22  C   UNL     1       2.261   4.014  21.532  0.00  0.00    +0.000 A 
ATOM     23  C   UNL     1       2.367   4.967  20.517  0.00  0.00    +0.000 A 
ENDBRANCH  16  17
ENDBRANCH   3  16
TORSDOF 5
ENDMDL
