MODEL 1
REMARK VINA RESULT:      -6.9      0.000      0.000
REMARK  Name = 
REMARK  11 active torsions:
REMARK  status: ('A' for Active; 'I' for Inactive)
REMARK    1  A    between atoms: C_1  and  O_2
REMARK    2  A    between atoms: O_2  and  C_3
REMARK    3  A    between atoms: N_6  and  C_7
REMARK    4  A    between atoms: C_7  and  C_8
REMARK    5  A    between atoms: C_11  and  C_12
REMARK    6  A    between atoms: C_12  and  N_13
REMARK    7  A    between atoms: N_13  and  C_14
REMARK    8  A    between atoms: C_14  and  C_15
REMARK    9  A    between atoms: C_15  and  N_16
REMARK   10  A    between atoms: C_21  and  C_22
REMARK   11  A    between atoms: C_21  and  C_24
REMARK                            x       y       z     vdW  Elec       q    Type
REMARK                         _______ _______ _______ _____ _____    ______ ____
ROOT
ATOM      1  C   UNL     1       7.711   5.544  18.115  0.00  0.00    +0.000 C 
ENDROOT
BRANCH   1   5
ATOM      2  C   UNL     1       8.566   8.953  18.614  0.00  0.00    +0.000 A 
ATOM      3  C   UNL     1       7.714   9.101  17.529  0.00  0.00    +0.000 A 
ATOM      4  C   UNL     1       7.228   7.870  17.255  0.00  0.00    +0.000 A 
ATOM      5  C   UNL     1       7.886   7.012  18.106  0.00  0.00    +0.000 A 
ATOM      6  O   UNL     1       8.676   7.676  18.908  0.00  0.00    +0.000 OA
BRANCH   2   7
ATOM      7  C   UNL     1       9.204  10.077  19.397  0.00  0.00    +0.000 C 
BRANCH   7  11
ATOM      8  C   UNL     1      11.386  13.949  18.264  0.00  0.00    +0.000 C 
ATOM      9  C   UNL     1       9.860  13.528  17.664  0.00  0.00    +0.000 C 
ATOM     10  C   UNL     1       9.040  12.256  18.279  0.00  0.00    +0.000 C 
ATOM     11  N   UNL     1       9.915  11.053  18.491  0.00  0.00    +0.000 NA
ATOM     12  C   UNL     1      11.284  11.380  19.038  0.00  0.00    +0.000 C 
ATOM     13  C   UNL     1      12.080  12.543  18.328  0.00  0.00    +0.000 C 
BRANCH   8  15
ATOM     14  C   UNL     1      12.168  16.177  19.721  0.00  0.00    +0.000 C 
ATOM     15  O   UNL     1      11.510  14.825  19.518  0.00  0.00    +0.000 OA
ENDBRANCH   8  15
ENDBRANCH   7  11
ENDBRANCH   2   7
ENDBRANCH   1   5
BRANCH   1  16
ATOM     16  N   UNL     1       6.417   5.212  17.533  0.00  0.00    +0.000 NA
ATOM     17  H   UNL     1       6.514   4.397  16.880  0.00  0.00    +0.000 HD
BRANCH  16  18
ATOM     18  C   UNL     1       5.522   4.816  18.591  0.00  0.00    +0.000 C 
BRANCH  18  19
ATOM     19  C   UNL     1       4.101   4.803  18.100  0.00  0.00    +0.000 C 
BRANCH  19  20
ATOM     20  N   UNL     1       3.263   5.534  19.003  0.00  0.00    +0.000 N 
ATOM     21  C   UNL     1       2.924   6.942  18.853  0.00  0.00    +0.000 C 
ATOM     22  C   UNL     1       2.027   7.279  20.026  0.00  0.00    +0.000 C 
ATOM     23  N   UNL     1       1.918   6.049  20.751  0.00  0.00    +0.000 N 
ATOM     24  C   UNL     1       2.640   5.011  20.153  0.00  0.00    +0.000 C 
ATOM     25  C   UNL     1       2.562   3.698  20.519  0.00  0.00    +0.000 C 
ATOM     26  H   UNL     1       1.198   5.981  21.464  0.00  0.00    +0.000 HD
BRANCH  25  27
ATOM     27  C   UNL     1       2.993   2.674  19.679  0.00  0.00    +0.000 C 
ATOM     28  N   UNL     1       3.310   1.813  19.002  0.00  0.00    +0.000 NA
ENDBRANCH  25  27
BRANCH  25  29
ATOM     29  C   UNL     1       1.744   3.076  21.521  0.00  0.00    +0.000 C 
ATOM     30  N   UNL     1       1.299   2.362  22.327  0.00  0.00    +0.000 NA
ENDBRANCH  25  29
ENDBRANCH  19  20
ENDBRANCH  18  19
ENDBRANCH  16  18
ENDBRANCH   1  16
TORSDOF 10
ENDMDL
MODEL 2
REMARK VINA RESULT:      -6.8      2.807     10.607
REMARK  Name = 
REMARK  11 active torsions:
REMARK  status: ('A' for Active; 'I' for Inactive)
REMARK    1  A    between atoms: C_1  and  O_2
REMARK    2  A    between atoms: O_2  and  C_3
REMARK    3  A    between atoms: N_6  and  C_7
REMARK    4  A    between atoms: C_7  and  C_8
REMARK    5  A    between atoms: C_11  and  C_12
REMARK    6  A    between atoms: C_12  and  N_13
REMARK    7  A    between atoms: N_13  and  C_14
REMARK    8  A    between atoms: C_14  and  C_15
REMARK    9  A    between atoms: C_15  and  N_16
REMARK   10  A    between atoms: C_21  and  C_22
REMARK   11  A    between atoms: C_21  and  C_24
REMARK                            x       y       z     vdW  Elec       q    Type
REMARK                         _______ _______ _______ _____ _____    ______ ____
ROOT
ATOM      1  C   UNL     1       8.130   8.972  17.783  0.00  0.00    +0.000 C 
ENDROOT
BRANCH   1   5
ATOM      2  C   UNL     1       6.668   5.772  17.310  0.00  0.00    +0.000 A 
ATOM      3  C   UNL     1       7.517   5.467  18.364  0.00  0.00    +0.000 A 
ATOM      4  C   UNL     1       8.109   6.628  18.725  0.00  0.00    +0.000 A 
ATOM      5  C   UNL     1       7.684   7.563  17.809  0.00  0.00    +0.000 A 
ATOM      6  O   UNL     1       6.824   7.035  16.977  0.00  0.00    +0.000 OA
BRANCH   2   7
ATOM      7  C   UNL     1       5.656   4.836  16.691  0.00  0.00    +0.000 C 
BRANCH   7  11
ATOM      8  C   UNL     1       2.033   4.510  19.486  0.00  0.00    +0.000 C 
ATOM      9  C   UNL     1       2.033   3.949  17.889  0.00  0.00    +0.000 C 
ATOM     10  C   UNL     1       3.417   3.886  17.023  0.00  0.00    +0.000 C 
ATOM     11  N   UNL     1       4.258   5.120  17.188  0.00  0.00    +0.000 NA
ATOM     12  C   UNL     1       4.298   5.649  18.602  0.00  0.00    +0.000 C 
ATOM     13  C   UNL     1       2.917   5.800  19.350  0.00  0.00    +0.000 C 
BRANCH   8  15
ATOM     14  C   UNL     1       1.502   2.747  21.561  0.00  0.00    +0.000 C 
ATOM     15  O   UNL     1       2.389   3.563  20.639  0.00  0.00    +0.000 OA
ENDBRANCH   8  15
ENDBRANCH   7  11
ENDBRANCH   2   7
ENDBRANCH   1   5
BRANCH   1  16
ATOM     16  N   UNL     1       8.968   9.232  18.946  0.00  0.00    +0.000 NA
ATOM     17  H   UNL     1       9.959   8.956  18.746  0.00  0.00    +0.000 HD
BRANCH  16  18
ATOM     18  C   UNL     1       8.957  10.648  19.216  0.00  0.00    +0.000 C 
BRANCH  18  19
ATOM     19  C   UNL     1      10.256  11.073  19.844  0.00  0.00    +0.000 C 
BRANCH  19  20
ATOM     20  N   UNL     1      10.868  12.101  19.057  0.00  0.00    +0.000 N 
ATOM     21  C   UNL     1      11.287  11.937  17.673  0.00  0.00    +0.000 C 
ATOM     22  C   UNL     1      11.875  13.270  17.258  0.00  0.00    +0.000 C 
ATOM     23  N   UNL     1      11.746  14.091  18.424  0.00  0.00    +0.000 N 
ATOM     24  C   UNL     1      11.149  13.412  19.492  0.00  0.00    +0.000 C 
ATOM     25  C   UNL     1      10.733  13.998  20.652  0.00  0.00    +0.000 C 
ATOM     26  H   UNL     1      11.886  15.091  18.319  0.00  0.00    +0.000 HD
BRANCH  25  27
ATOM     27  C   UNL     1       9.827  13.376  21.507  0.00  0.00    +0.000 C 
ATOM     28  N   UNL     1       9.053  12.887  22.187  0.00  0.00    +0.000 NA
ENDBRANCH  25  27
BRANCH  25  29
ATOM     29  C   UNL     1      10.764  15.380  21.039  0.00  0.00    +0.000 C 
ATOM     30  N   UNL     1      10.632  16.536  21.097  0.00  0.00    +0.000 NA
ENDBRANCH  25  29
ENDBRANCH  19  20
ENDBRANCH  18  19
ENDBRANCH  16  18
ENDBRANCH   1  16
TORSDOF 10
ENDMDL
MODEL 3
REMARK VINA RESULT:      -6.8      6.196      9.910
REMARK  Name = 
REMARK  11 active torsions:
REMARK  status: ('A' for Active; 'I' for Inactive)
REMARK    1  A    between atoms: C_1  and  O_2
REMARK    2  A    between atoms: O_2  and  C_3
REMARK    3  A    between atoms: N_6  and  C_7
REMARK    4  A    between atoms: C_7  and  C_8
REMARK    5  A    between atoms: C_11  and  C_12
REMARK    6  A    between atoms: C_12  and  N_13
REMARK    7  A    between atoms: N_13  and  C_14
REMARK    8  A    between atoms: C_14  and  C_15
REMARK    9  A    between atoms: C_15  and  N_16
REMARK   10  A    between atoms: C_21  and  C_22
REMARK   11  A    between atoms: C_21  and  C_24
REMARK                            x       y       z     vdW  Elec       q    Type
REMARK                         _______ _______ _______ _____ _____    ______ ____
ROOT
ATOM      1  C   UNL     1       1.520   8.111  20.338  0.00  0.00    +0.000 C 
ENDROOT
BRANCH   1   5
ATOM      2  C   UNL     1      -0.212  10.842  21.802  0.00  0.00    +0.000 A 
ATOM      3  C   UNL     1      -0.197   9.986  22.894  0.00  0.00    +0.000 A 
ATOM      4  C   UNL     1       0.513   8.899  22.517  0.00  0.00    +0.000 A 
ATOM      5  C   UNL     1       0.802   9.087  21.184  0.00  0.00    +0.000 A 
ATOM      6  O   UNL     1       0.365  10.250  20.778  0.00  0.00    +0.000 OA
BRANCH   2   7
ATOM      7  C   UNL     1      -0.727  12.263  21.800  0.00  0.00    +0.000 C 
BRANCH   7  11
ATOM      8  C   UNL     1      -3.872  14.263  24.473  0.00  0.00    +0.000 C 
ATOM      9  C   UNL     1      -2.217  14.608  24.560  0.00  0.00    +0.000 C 
ATOM     10  C   UNL     1      -1.182  14.037  23.433  0.00  0.00    +0.000 C 
ATOM     11  N   UNL     1      -1.440  12.598  23.087  0.00  0.00    +0.000 NA
ATOM     12  C   UNL     1      -2.906  12.247  22.986  0.00  0.00    +0.000 C 
ATOM     13  C   UNL     1      -3.840  12.724  24.164  0.00  0.00    +0.000 C 
BRANCH   8  15
ATOM     14  C   UNL     1      -5.172  16.580  23.675  0.00  0.00    +0.000 C 
ATOM     15  O   UNL     1      -4.795  15.113  23.589  0.00  0.00    +0.000 OA
ENDBRANCH   8  15
ENDBRANCH   7  11
ENDBRANCH   2   7
ENDBRANCH   1   5
BRANCH   1  16
ATOM     16  N   UNL     1       1.850   6.936  21.134  0.00  0.00    +0.000 NA
ATOM     17  H   UNL     1       1.123   6.786  21.874  0.00  0.00    +0.000 HD
BRANCH  16  18
ATOM     18  C   UNL     1       1.841   5.779  20.276  0.00  0.00    +0.000 C 
BRANCH  18  19
ATOM     19  C   UNL     1       3.046   5.781  19.377  0.00  0.00    +0.000 C 
BRANCH  19  20
ATOM     20  N   UNL     1       3.746   4.537  19.491  0.00  0.00    +0.000 N 
ATOM     21  C   UNL     1       3.202   3.342  20.119  0.00  0.00    +0.000 C 
ATOM     22  C   UNL     1       4.282   2.287  20.007  0.00  0.00    +0.000 C 
ATOM     23  N   UNL     1       5.353   2.949  19.327  0.00  0.00    +0.000 N 
ATOM     24  C   UNL     1       5.046   4.277  19.012  0.00  0.00    +0.000 C 
ATOM     25  C   UNL     1       5.798   5.080  18.205  0.00  0.00    +0.000 C 
ATOM     26  H   UNL     1       6.107   2.378  18.957  0.00  0.00    +0.000 HD
BRANCH  25  27
ATOM     27  C   UNL     1       5.279   6.237  17.628  0.00  0.00    +0.000 C 
ATOM     28  N   UNL     1       4.887   7.207  17.175  0.00  0.00    +0.000 NA
ENDBRANCH  25  27
BRANCH  25  29
ATOM     29  C   UNL     1       7.003   4.780  17.484  0.00  0.00    +0.000 C 
ATOM     30  N   UNL     1       7.794   4.357  16.742  0.00  0.00    +0.000 NA
ENDBRANCH  25  29
ENDBRANCH  19  20
ENDBRANCH  18  19
ENDBRANCH  16  18
ENDBRANCH   1  16
TORSDOF 10
ENDMDL
MODEL 4
REMARK VINA RESULT:      -6.6      1.415      1.439
REMARK  Name = 
REMARK  11 active torsions:
REMARK  status: ('A' for Active; 'I' for Inactive)
REMARK    1  A    between atoms: C_1  and  O_2
REMARK    2  A    between atoms: O_2  and  C_3
REMARK    3  A    between atoms: N_6  and  C_7
REMARK    4  A    between atoms: C_7  and  C_8
REMARK    5  A    between atoms: C_11  and  C_12
REMARK    6  A    between atoms: C_12  and  N_13
REMARK    7  A    between atoms: N_13  and  C_14
REMARK    8  A    between atoms: C_14  and  C_15
REMARK    9  A    between atoms: C_15  and  N_16
REMARK   10  A    between atoms: C_21  and  C_22
REMARK   11  A    between atoms: C_21  and  C_24
REMARK                            x       y       z     vdW  Elec       q    Type
REMARK                         _______ _______ _______ _____ _____    ______ ____
ROOT
ATOM      1  C   UNL     1       7.800   5.671  18.678  0.00  0.00    +0.000 C 
ENDROOT
BRANCH   1   5
ATOM      2  C   UNL     1       8.732   9.097  18.686  0.00  0.00    +0.000 A 
ATOM      3  C   UNL     1       7.950   9.089  17.540  0.00  0.00    +0.000 A 
ATOM      4  C   UNL     1       7.442   7.841  17.434  0.00  0.00    +0.000 A 
ATOM      5  C   UNL     1       8.022   7.115  18.449  0.00  0.00    +0.000 A 
ATOM      6  O   UNL     1       8.784   7.881  19.185  0.00  0.00    +0.000 OA
BRANCH   2   7
ATOM      7  C   UNL     1       9.358  10.317  19.322  0.00  0.00    +0.000 C 
BRANCH   7  11
ATOM      8  C   UNL     1      11.209  14.199  17.727  0.00  0.00    +0.000 C 
ATOM      9  C   UNL     1       9.542  13.902  17.754  0.00  0.00    +0.000 C 
ATOM     10  C   UNL     1       8.935  12.605  18.540  0.00  0.00    +0.000 C 
ATOM     11  N   UNL     1       9.728  11.354  18.288  0.00  0.00    +0.000 NA
ATOM     12  C   UNL     1      11.222  11.569  18.269  0.00  0.00    +0.000 C 
ATOM     13  C   UNL     1      11.762  12.768  17.396  0.00  0.00    +0.000 C 
BRANCH   8  15
ATOM     14  C   UNL     1      11.303  15.497  20.178  0.00  0.00    +0.000 C 
ATOM     15  O   UNL     1      11.883  14.934  18.894  0.00  0.00    +0.000 OA
ENDBRANCH   8  15
ENDBRANCH   7  11
ENDBRANCH   2   7
ENDBRANCH   1   5
BRANCH   1  16
ATOM     16  N   UNL     1       6.623   5.494  19.518  0.00  0.00    +0.000 NA
ATOM     17  H   UNL     1       5.951   6.285  19.368  0.00  0.00    +0.000 HD
BRANCH  16  18
ATOM     18  C   UNL     1       5.956   4.278  19.128  0.00  0.00    +0.000 C 
BRANCH  18  19
ATOM     19  C   UNL     1       5.261   4.460  17.808  0.00  0.00    +0.000 C 
BRANCH  19  20
ATOM     20  N   UNL     1       4.098   5.280  17.973  0.00  0.00    +0.000 N 
ATOM     21  C   UNL     1       4.055   6.709  17.703  0.00  0.00    +0.000 C 
ATOM     22  C   UNL     1       2.640   7.148  18.016  0.00  0.00    +0.000 C 
ATOM     23  N   UNL     1       1.983   5.946  18.435  0.00  0.00    +0.000 N 
ATOM     24  C   UNL     1       2.833   4.836  18.409  0.00  0.00    +0.000 C 
ATOM     25  C   UNL     1       2.430   3.542  18.573  0.00  0.00    +0.000 C 
ATOM     26  H   UNL     1       0.970   5.956  18.498  0.00  0.00    +0.000 HD
BRANCH  25  27
ATOM     27  C   UNL     1       3.223   2.468  18.175  0.00  0.00    +0.000 C 
ATOM     28  N   UNL     1       3.838   1.562  17.856  0.00  0.00    +0.000 NA
ENDBRANCH  25  27
BRANCH  25  29
ATOM     29  C   UNL     1       1.109   3.015  18.765  0.00  0.00    +0.000 C 
ATOM     30  N   UNL     1       0.185   2.323  18.920  0.00  0.00    +0.000 NA
ENDBRANCH  25  29
ENDBRANCH  19  20
ENDBRANCH  18  19
ENDBRANCH  16  18
ENDBRANCH   1  16
TORSDOF 10
ENDMDL
MODEL 5
REMARK VINA RESULT:      -6.6      4.807      8.573
REMARK  Name = 
REMARK  11 active torsions:
REMARK  status: ('A' for Active; 'I' for Inactive)
REMARK    1  A    between atoms: C_1  and  O_2
REMARK    2  A    between atoms: O_2  and  C_3
REMARK    3  A    between atoms: N_6  and  C_7
REMARK    4  A    between atoms: C_7  and  C_8
REMARK    5  A    between atoms: C_11  and  C_12
REMARK    6  A    between atoms: C_12  and  N_13
REMARK    7  A    between atoms: N_13  and  C_14
REMARK    8  A    between atoms: C_14  and  C_15
REMARK    9  A    between atoms: C_15  and  N_16
REMARK   10  A    between atoms: C_21  and  C_22
REMARK   11  A    between atoms: C_21  and  C_24
REMARK                            x       y       z     vdW  Elec       q    Type
REMARK                         _______ _______ _______ _____ _____    ______ ____
ROOT
ATOM      1  C   UNL     1       2.163   8.785  17.891  0.00  0.00    +0.000 C 
ENDROOT
BRANCH   1   5
ATOM      2  C   UNL     1       2.885   5.423  18.770  0.00  0.00    +0.000 A 
ATOM      3  C   UNL     1       2.526   5.900  20.023  0.00  0.00    +0.000 A 
ATOM      4  C   UNL     1       2.138   7.183  19.844  0.00  0.00    +0.000 A 
ATOM      5  C   UNL     1       2.383   7.465  18.520  0.00  0.00    +0.000 A 
ATOM      6  O   UNL     1       2.825   6.404  17.897  0.00  0.00    +0.000 OA
BRANCH   2   7
ATOM      7  C   UNL     1       3.212   3.986  18.432  0.00  0.00    +0.000 C 
BRANCH   7  11
ATOM      8  C   UNL     1       7.273   5.367  16.808  0.00  0.00    +0.000 C 
ATOM      9  C   UNL     1       6.208   4.380  15.940  0.00  0.00    +0.000 C 
ATOM     10  C   UNL     1       4.688   4.113  16.475  0.00  0.00    +0.000 C 
ATOM     11  N   UNL     1       4.635   3.838  17.952  0.00  0.00    +0.000 NA
ATOM     12  C   UNL     1       5.562   4.706  18.769  0.00  0.00    +0.000 C 
ATOM     13  C   UNL     1       7.052   4.834  18.268  0.00  0.00    +0.000 C 
BRANCH   8  15
ATOM     14  C   UNL     1       7.717   8.007  17.539  0.00  0.00    +0.000 C 
ATOM     15  O   UNL     1       7.236   6.891  16.630  0.00  0.00    +0.000 OA
ENDBRANCH   8  15
ENDBRANCH   7  11
ENDBRANCH   2   7
ENDBRANCH   1   5
BRANCH   1  16
ATOM     16  N   UNL     1       1.494   9.664  18.842  0.00  0.00    +0.000 NA
ATOM     17  H   UNL     1       2.036  10.554  18.953  0.00  0.00    +0.000 HD
BRANCH  16  18
ATOM     18  C   UNL     1       0.196  10.009  18.318  0.00  0.00    +0.000 C 
BRANCH  18  19
ATOM     19  C   UNL     1      -0.161  11.422  18.688  0.00  0.00    +0.000 C 
BRANCH  19  20
ATOM     20  N   UNL     1      -1.575  11.617  18.574  0.00  0.00    +0.000 N 
ATOM     21  C   UNL     1      -2.356  11.299  17.388  0.00  0.00    +0.000 C 
ATOM     22  C   UNL     1      -3.786  11.667  17.722  0.00  0.00    +0.000 C 
ATOM     23  N   UNL     1      -3.719  12.160  19.065  0.00  0.00    +0.000 N 
ATOM     24  C   UNL     1      -2.418  12.131  19.580  0.00  0.00    +0.000 C 
ATOM     25  C   UNL     1      -2.093  12.361  20.885  0.00  0.00    +0.000 C 
ATOM     26  H   UNL     1      -4.590  12.274  19.573  0.00  0.00    +0.000 HD
BRANCH  25  27
ATOM     27  C   UNL     1      -0.870  11.962  21.420  0.00  0.00    +0.000 C 
ATOM     28  N   UNL     1       0.150  11.643  21.818  0.00  0.00    +0.000 NA
ENDBRANCH  25  27
BRANCH  25  29
ATOM     29  C   UNL     1      -2.948  12.637  22.004  0.00  0.00    +0.000 C 
ATOM     30  N   UNL     1      -3.781  13.040  22.712  0.00  0.00    +0.000 NA
ENDBRANCH  25  29
ENDBRANCH  19  20
ENDBRANCH  18  19
ENDBRANCH  16  18
ENDBRANCH   1  16
TORSDOF 10
ENDMDL
MODEL 6
REMARK VINA RESULT:      -6.6      4.820      8.692
REMARK  Name = 
REMARK  11 active torsions:
REMARK  status: ('A' for Active; 'I' for Inactive)
REMARK    1  A    between atoms: C_1  and  O_2
REMARK    2  A    between atoms: O_2  and  C_3
REMARK    3  A    between atoms: N_6  and  C_7
REMARK    4  A    between atoms: C_7  and  C_8
REMARK    5  A    between atoms: C_11  and  C_12
REMARK    6  A    between atoms: C_12  and  N_13
REMARK    7  A    between atoms: N_13  and  C_14
REMARK    8  A    between atoms: C_14  and  C_15
REMARK    9  A    between atoms: C_15  and  N_16
REMARK   10  A    between atoms: C_21  and  C_22
REMARK   11  A    between atoms: C_21  and  C_24
REMARK                            x       y       z     vdW  Elec       q    Type
REMARK                         _______ _______ _______ _____ _____    ______ ____
ROOT
ATOM      1  C   UNL     1       1.705   8.265  20.719  0.00  0.00    +0.000 C 
ENDROOT
BRANCH   1   5
ATOM      2  C   UNL     1       2.961   5.506  18.873  0.00  0.00    +0.000 A 
ATOM      3  C   UNL     1       2.904   6.441  17.850  0.00  0.00    +0.000 A 
ATOM      4  C   UNL     1       2.508   7.602  18.417  0.00  0.00    +0.000 A 
ATOM      5  C   UNL     1       2.232   7.300  19.730  0.00  0.00    +0.000 A 
ATOM      6  O   UNL     1       2.510   6.048  19.983  0.00  0.00    +0.000 OA
BRANCH   2   7
ATOM      7  C   UNL     1       3.528   4.109  18.763  0.00  0.00    +0.000 C 
BRANCH   7  11
ATOM      8  C   UNL     1       7.558   5.912  17.516  0.00  0.00    +0.000 C 
ATOM      9  C   UNL     1       6.786   4.671  16.662  0.00  0.00    +0.000 C 
ATOM     10  C   UNL     1       5.254   4.233  17.022  0.00  0.00    +0.000 C 
ATOM     11  N   UNL     1       5.016   4.132  18.503  0.00  0.00    +0.000 NA
ATOM     12  C   UNL     1       5.676   5.228  19.305  0.00  0.00    +0.000 C 
ATOM     13  C   UNL     1       7.193   5.529  18.994  0.00  0.00    +0.000 C 
BRANCH   8  15
ATOM     14  C   UNL     1       7.915   8.658  17.695  0.00  0.00    +0.000 C 
ATOM     15  O   UNL     1       7.336   7.378  17.121  0.00  0.00    +0.000 OA
ENDBRANCH   8  15
ENDBRANCH   7  11
ENDBRANCH   2   7
ENDBRANCH   1   5
BRANCH   1  16
ATOM     16  N   UNL     1       0.957   9.305  20.023  0.00  0.00    +0.000 NA
ATOM     17  H   UNL     1       0.748   9.002  19.042  0.00  0.00    +0.000 HD
BRANCH  16  18
ATOM     18  C   UNL     1      -0.302   9.496  20.697  0.00  0.00    +0.000 C 
BRANCH  18  19
ATOM     19  C   UNL     1      -0.648  10.958  20.758  0.00  0.00    +0.000 C 
BRANCH  19  20
ATOM     20  N   UNL     1      -1.063  11.420  19.468  0.00  0.00    +0.000 N 
ATOM     21  C   UNL     1      -1.956  10.688  18.581  0.00  0.00    +0.000 C 
ATOM     22  C   UNL     1      -2.111  11.549  17.346  0.00  0.00    +0.000 C 
ATOM     23  N   UNL     1      -1.305  12.701  17.616  0.00  0.00    +0.000 N 
ATOM     24  C   UNL     1      -0.685  12.638  18.869  0.00  0.00    +0.000 C 
ATOM     25  C   UNL     1      -0.020  13.672  19.462  0.00  0.00    +0.000 C 
ATOM     26  H   UNL     1      -1.418  13.512  17.015  0.00  0.00    +0.000 HD
BRANCH  25  27
ATOM     27  C   UNL     1       0.248  13.687  20.828  0.00  0.00    +0.000 C 
ATOM     28  N   UNL     1       0.437  13.732  21.952  0.00  0.00    +0.000 NA
ENDBRANCH  25  27
BRANCH  25  29
ATOM     29  C   UNL     1       0.173  15.017  19.000  0.00  0.00    +0.000 C 
ATOM     30  N   UNL     1       0.051  16.070  18.518  0.00  0.00    +0.000 NA
ENDBRANCH  25  29
ENDBRANCH  19  20
ENDBRANCH  18  19
ENDBRANCH  16  18
ENDBRANCH   1  16
TORSDOF 10
ENDMDL
MODEL 7
REMARK VINA RESULT:      -6.5      2.868     10.438
REMARK  Name = 
REMARK  11 active torsions:
REMARK  status: ('A' for Active; 'I' for Inactive)
REMARK    1  A    between atoms: C_1  and  O_2
REMARK    2  A    between atoms: O_2  and  C_3
REMARK    3  A    between atoms: N_6  and  C_7
REMARK    4  A    between atoms: C_7  and  C_8
REMARK    5  A    between atoms: C_11  and  C_12
REMARK    6  A    between atoms: C_12  and  N_13
REMARK    7  A    between atoms: N_13  and  C_14
REMARK    8  A    between atoms: C_14  and  C_15
REMARK    9  A    between atoms: C_15  and  N_16
REMARK   10  A    between atoms: C_21  and  C_22
REMARK   11  A    between atoms: C_21  and  C_24
REMARK                            x       y       z     vdW  Elec       q    Type
REMARK                         _______ _______ _______ _____ _____    ______ ____
ROOT
ATOM      1  C   UNL     1       8.236   9.273  17.916  0.00  0.00    +0.000 C 
ENDROOT
BRANCH   1   5
ATOM      2  C   UNL     1       6.858   6.084  17.185  0.00  0.00    +0.000 A 
ATOM      3  C   UNL     1       7.593   5.747  18.313  0.00  0.00    +0.000 A 
ATOM      4  C   UNL     1       8.133   6.898  18.772  0.00  0.00    +0.000 A 
ATOM      5  C   UNL     1       7.800   7.861  17.848  0.00  0.00    +0.000 A 
ATOM      6  O   UNL     1       7.039   7.358  16.912  0.00  0.00    +0.000 OA
BRANCH   2   7
ATOM      7  C   UNL     1       5.925   5.164  16.431  0.00  0.00    +0.000 C 
BRANCH   7  11
ATOM      8  C   UNL     1       2.304   4.933  19.237  0.00  0.00    +0.000 C 
ATOM      9  C   UNL     1       2.421   4.063  17.790  0.00  0.00    +0.000 C 
ATOM     10  C   UNL     1       3.823   4.010  16.954  0.00  0.00    +0.000 C 
ATOM     11  N   UNL     1       4.490   5.354  16.860  0.00  0.00    +0.000 NA
ATOM     12  C   UNL     1       4.423   6.161  18.135  0.00  0.00    +0.000 C 
ATOM     13  C   UNL     1       3.014   6.274  18.837  0.00  0.00    +0.000 C 
BRANCH   8  15
ATOM     14  C   UNL     1       2.052   3.303  21.468  0.00  0.00    +0.000 C 
ATOM     15  O   UNL     1       2.752   4.297  20.560  0.00  0.00    +0.000 OA
ENDBRANCH   8  15
ENDBRANCH   7  11
ENDBRANCH   2   7
ENDBRANCH   1   5
BRANCH   1  16
ATOM     16  N   UNL     1       9.212   9.423  18.987  0.00  0.00    +0.000 NA
ATOM     17  H   UNL     1      10.175   9.524  18.585  0.00  0.00    +0.000 HD
BRANCH  16  18
ATOM     18  C   UNL     1       8.917  10.631  19.715  0.00  0.00    +0.000 C 
BRANCH  18  19
ATOM     19  C   UNL     1       9.822  11.746  19.272  0.00  0.00    +0.000 C 
BRANCH  19  20
ATOM     20  N   UNL     1       9.362  12.993  19.805  0.00  0.00    +0.000 N 
ATOM     21  C   UNL     1       8.773  13.155  21.126  0.00  0.00    +0.000 C 
ATOM     22  C   UNL     1       8.442  14.627  21.255  0.00  0.00    +0.000 C 
ATOM     23  N   UNL     1       8.866  15.194  20.010  0.00  0.00    +0.000 N 
ATOM     24  C   UNL     1       9.415  14.239  19.148  0.00  0.00    +0.000 C 
ATOM     25  C   UNL     1      10.067  14.525  17.983  0.00  0.00    +0.000 C 
ATOM     26  H   UNL     1       8.932  16.205  19.947  0.00  0.00    +0.000 HD
BRANCH  25  27
ATOM     27  C   UNL     1      10.905  13.601  17.364  0.00  0.00    +0.000 C 
ATOM     28  N   UNL     1      11.609  12.878  16.833  0.00  0.00    +0.000 NA
ENDBRANCH  25  27
BRANCH  25  29
ATOM     29  C   UNL     1      10.372  15.799  17.397  0.00  0.00    +0.000 C 
ATOM     30  N   UNL     1      10.404  16.927  17.111  0.00  0.00    +0.000 NA
ENDBRANCH  25  29
ENDBRANCH  19  20
ENDBRANCH  18  19
ENDBRANCH  16  18
ENDBRANCH   1  16
TORSDOF 10
ENDMDL
MODEL 8
REMARK VINA RESULT:      -6.5      5.483      8.677
REMARK  Name = 
REMARK  11 active torsions:
REMARK  status: ('A' for Active; 'I' for Inactive)
REMARK    1  A    between atoms: C_1  and  O_2
REMARK    2  A    between atoms: O_2  and  C_3
REMARK    3  A    between atoms: N_6  and  C_7
REMARK    4  A    between atoms: C_7  and  C_8
REMARK    5  A    between atoms: C_11  and  C_12
REMARK    6  A    between atoms: C_12  and  N_13
REMARK    7  A    between atoms: N_13  and  C_14
REMARK    8  A    between atoms: C_14  and  C_15
REMARK    9  A    between atoms: C_15  and  N_16
REMARK   10  A    between atoms: C_21  and  C_22
REMARK   11  A    between atoms: C_21  and  C_24
REMARK                            x       y       z     vdW  Elec       q    Type
REMARK                         _______ _______ _______ _____ _____    ______ ____
ROOT
ATOM      1  C   UNL     1       1.966   9.493  18.222  0.00  0.00    +0.000 C 
ENDROOT
BRANCH   1   5
ATOM      2  C   UNL     1       2.856   6.088  18.689  0.00  0.00    +0.000 A 
ATOM      3  C   UNL     1       2.321   6.344  19.943  0.00  0.00    +0.000 A 
ATOM      4  C   UNL     1       1.853   7.612  19.905  0.00  0.00    +0.000 A 
ATOM      5  C   UNL     1       2.221   8.109  18.676  0.00  0.00    +0.000 A 
ATOM      6  O   UNL     1       2.814   7.186  17.966  0.00  0.00    +0.000 OA
BRANCH   2   7
ATOM      7  C   UNL     1       3.334   4.744  18.189  0.00  0.00    +0.000 C 
BRANCH   7  11
ATOM      8  C   UNL     1       7.525   6.538  17.685  0.00  0.00    +0.000 C 
ATOM      9  C   UNL     1       6.681   5.772  16.434  0.00  0.00    +0.000 C 
ATOM     10  C   UNL     1       5.110   5.361  16.612  0.00  0.00    +0.000 C 
ATOM     11  N   UNL     1       4.825   4.738  17.949  0.00  0.00    +0.000 NA
ATOM     12  C   UNL     1       5.547   5.399  19.099  0.00  0.00    +0.000 C 
ATOM     13  C   UNL     1       7.091   5.666  18.916  0.00  0.00    +0.000 C 
BRANCH   8  15
ATOM     14  C   UNL     1       8.508   9.096  18.124  0.00  0.00    +0.000 C 
ATOM     15  O   UNL     1       7.430   8.059  17.865  0.00  0.00    +0.000 OA
ENDBRANCH   8  15
ENDBRANCH   7  11
ENDBRANCH   2   7
ENDBRANCH   1   5
BRANCH   1  16
ATOM     16  N   UNL     1       0.602   9.589  17.719  0.00  0.00    +0.000 NA
ATOM     17  H   UNL     1       0.154   8.641  17.708  0.00  0.00    +0.000 HD
BRANCH  16  18
ATOM     18  C   UNL     1      -0.163  10.420  18.613  0.00  0.00    +0.000 C 
BRANCH  18  19
ATOM     19  C   UNL     1      -1.531  10.681  18.047  0.00  0.00    +0.000 C 
BRANCH  19  20
ATOM     20  N   UNL     1      -2.240  11.604  18.882  0.00  0.00    +0.000 N 
ATOM     21  C   UNL     1      -1.637  12.359  19.970  0.00  0.00    +0.000 C 
ATOM     22  C   UNL     1      -2.753  13.194  20.563  0.00  0.00    +0.000 C 
ATOM     23  N   UNL     1      -3.900  12.860  19.775  0.00  0.00    +0.000 N 
ATOM     24  C   UNL     1      -3.608  11.926  18.775  0.00  0.00    +0.000 C 
ATOM     25  C   UNL     1      -4.458  11.574  17.766  0.00  0.00    +0.000 C 
ATOM     26  H   UNL     1      -4.721  13.452  19.856  0.00  0.00    +0.000 HD
BRANCH  25  27
ATOM     27  C   UNL     1      -4.005  10.943  16.610  0.00  0.00    +0.000 C 
ATOM     28  N   UNL     1      -3.675  10.410  15.657  0.00  0.00    +0.000 NA
ENDBRANCH  25  27
BRANCH  25  29
ATOM     29  C   UNL     1      -5.772  12.065  17.466  0.00  0.00    +0.000 C 
ATOM     30  N   UNL     1      -6.688  12.631  17.021  0.00  0.00    +0.000 NA
ENDBRANCH  25  29
ENDBRANCH  19  20
ENDBRANCH  18  19
ENDBRANCH  16  18
ENDBRANCH   1  16
TORSDOF 10
ENDMDL
MODEL 9
REMARK VINA RESULT:      -6.4      5.407      7.641
REMARK  Name = 
REMARK  11 active torsions:
REMARK  status: ('A' for Active; 'I' for Inactive)
REMARK    1  A    between atoms: C_1  and  O_2
REMARK    2  A    between atoms: O_2  and  C_3
REMARK    3  A    between atoms: N_6  and  C_7
REMARK    4  A    between atoms: C_7  and  C_8
REMARK    5  A    between atoms: C_11  and  C_12
REMARK    6  A    between atoms: C_12  and  N_13
REMARK    7  A    between atoms: N_13  and  C_14
REMARK    8  A    between atoms: C_14  and  C_15
REMARK    9  A    between atoms: C_15  and  N_16
REMARK   10  A    between atoms: C_21  and  C_22
REMARK   11  A    between atoms: C_21  and  C_24
REMARK                            x       y       z     vdW  Elec       q    Type
REMARK                         _______ _______ _______ _____ _____    ______ ____
ROOT
ATOM      1  C   UNL     1       1.912   7.680  20.158  0.00  0.00    +0.000 C 
ENDROOT
BRANCH   1   5
ATOM      2  C   UNL     1      -0.127  10.466  20.986  0.00  0.00    +0.000 A 
ATOM      3  C   UNL     1       0.137  10.004  22.267  0.00  0.00    +0.000 A 
ATOM      4  C   UNL     1       0.988   8.962  22.129  0.00  0.00    +0.000 A 
ATOM      5  C   UNL     1       1.116   8.763  20.774  0.00  0.00    +0.000 A 
ATOM      6  O   UNL     1       0.447   9.670  20.110  0.00  0.00    +0.000 OA
BRANCH   2   7
ATOM      7  C   UNL     1      -0.879  11.730  20.639  0.00  0.00    +0.000 C 
BRANCH   7  11
ATOM      8  C   UNL     1       1.675  15.372  19.521  0.00  0.00    +0.000 C 
ATOM      9  C   UNL     1       0.122  15.097  18.906  0.00  0.00    +0.000 C 
ATOM     10  C   UNL     1      -0.822  13.911  19.515  0.00  0.00    +0.000 C 
ATOM     11  N   UNL     1      -0.068  12.630  19.738  0.00  0.00    +0.000 NA
ATOM     12  C   UNL     1       1.320  12.827  20.299  0.00  0.00    +0.000 C 
ATOM     13  C   UNL     1       2.231  13.907  19.595  0.00  0.00    +0.000 C 
BRANCH   8  15
ATOM     14  C   UNL     1       2.261  15.854  22.189  0.00  0.00    +0.000 C 
ATOM     15  O   UNL     1       1.869  16.236  20.774  0.00  0.00    +0.000 OA
ENDBRANCH   8  15
ENDBRANCH   7  11
ENDBRANCH   2   7
ENDBRANCH   1   5
BRANCH   1  16
ATOM     16  N   UNL     1       1.945   6.536  21.060  0.00  0.00    +0.000 NA
ATOM     17  H   UNL     1       1.211   6.640  21.801  0.00  0.00    +0.000 HD
BRANCH  16  18
ATOM     18  C   UNL     1       1.636   5.346  20.309  0.00  0.00    +0.000 C 
BRANCH  18  19
ATOM     19  C   UNL     1       2.606   5.175  19.173  0.00  0.00    +0.000 C 
BRANCH  19  20
ATOM     20  N   UNL     1       3.458   4.050  19.418  0.00  0.00    +0.000 N 
ATOM     21  C   UNL     1       3.041   2.840  20.111  0.00  0.00    +0.000 C 
ATOM     22  C   UNL     1       4.257   1.938  20.137  0.00  0.00    +0.000 C 
ATOM     23  N   UNL     1       5.269   2.691  19.460  0.00  0.00    +0.000 N 
ATOM     24  C   UNL     1       4.807   3.939  19.027  0.00  0.00    +0.000 C 
ATOM     25  C   UNL     1       5.492   4.778  18.196  0.00  0.00    +0.000 C 
ATOM     26  H   UNL     1       6.113   2.204  19.174  0.00  0.00    +0.000 HD
BRANCH  25  27
ATOM     27  C   UNL     1       4.859   5.808  17.505  0.00  0.00    +0.000 C 
ATOM     28  N   UNL     1       4.361   6.681  16.965  0.00  0.00    +0.000 NA
ENDBRANCH  25  27
BRANCH  25  29
ATOM     29  C   UNL     1       6.766   4.595  17.562  0.00  0.00    +0.000 C 
ATOM     30  N   UNL     1       7.734   4.715  16.925  0.00  0.00    +0.000 NA
ENDBRANCH  25  29
ENDBRANCH  19  20
ENDBRANCH  18  19
ENDBRANCH  16  18
ENDBRANCH   1  16
TORSDOF 10
ENDMDL
