MODEL 1
REMARK VINA RESULT:      -6.0      0.000      0.000
REMARK  Name = 
REMARK  5 active torsions:
REMARK  status: ('A' for Active; 'I' for Inactive)
REMARK    1  A    between atoms: N_1  and  C_2
REMARK    2  A    between atoms: C_2  and  C_3
REMARK    3  A    between atoms: C_3  and  C_4
REMARK    4  A    between atoms: C_4  and  C_5
REMARK    5  A    between atoms: C_7  and  C_8
REMARK                            x       y       z     vdW  Elec       q    Type
REMARK                         _______ _______ _______ _____ _____    ______ ____
ROOT
ATOM      1  C   UNL     1       2.614   5.769  19.557  0.00  0.00    +0.000 A 
ATOM      2  N   UNL     1       3.591   5.133  18.948  0.00  0.00    +0.000 NA
ATOM      3  C   UNL     1       4.166   5.950  17.991  0.00  0.00    +0.000 A 
ATOM      4  C   UNL     1       3.561   7.183  17.842  0.00  0.00    +0.000 A 
ATOM      5  S   UNL     1       2.258   7.335  18.945  0.00  0.00    +0.000 S 
ENDROOT
BRANCH   3   6
ATOM      6  C   UNL     1       5.322   5.508  17.224  0.00  0.00    +0.000 A 
ATOM      7  C   UNL     1       5.302   5.593  15.830  0.00  0.00    +0.000 A 
ATOM      8  C   UNL     1       6.412   5.163  15.126  0.00  0.00    +0.000 A 
ATOM      9  N   UNL     1       7.516   4.650  15.709  0.00  0.00    +0.000 NA
ATOM     10  C   UNL     1       7.509   4.559  17.052  0.00  0.00    +0.000 A 
ATOM     11  C   UNL     1       6.450   4.968  17.845  0.00  0.00    +0.000 A 
ENDBRANCH   3   6
BRANCH   1  12
ATOM     12  C   UNL     1       1.892   5.240  20.758  0.00  0.00    +0.000 C 
BRANCH  12  13
ATOM     13  C   UNL     1       0.980   4.063  20.389  0.00  0.00    +0.000 C 
BRANCH  13  14
ATOM     14  C   UNL     1       1.344   2.779  21.139  0.00  0.00    +0.000 C 
BRANCH  14  15
ATOM     15  N   UNL     1       2.401   3.038  22.109  0.00  0.00    +0.000 NA
ATOM     16  H   UNL     1       2.230   2.480  22.945  0.00  0.00    +0.000 HD
ATOM     17  H   UNL     1       2.344   4.012  22.411  0.00  0.00    +0.000 HD
ENDBRANCH  14  15
ENDBRANCH  13  14
ENDBRANCH  12  13
ENDBRANCH   1  12
TORSDOF 5
ENDMDL
MODEL 2
REMARK VINA RESULT:      -5.9      2.845      6.471
REMARK  Name = 
REMARK  5 active torsions:
REMARK  status: ('A' for Active; 'I' for Inactive)
REMARK    1  A    between atoms: N_1  and  C_2
REMARK    2  A    between atoms: C_2  and  C_3
REMARK    3  A    between atoms: C_3  and  C_4
REMARK    4  A    between atoms: C_4  and  C_5
REMARK    5  A    between atoms: C_7  and  C_8
REMARK                            x       y       z     vdW  Elec       q    Type
REMARK                         _______ _______ _______ _____ _____    ______ ____
ROOT
ATOM      1  C   UNL     1       6.197   4.324  16.033  0.00  0.00    +0.000 A 
ATOM      2  N   UNL     1       4.984   3.912  16.331  0.00  0.00    +0.000 NA
ATOM      3  C   UNL     1       4.750   4.066  17.686  0.00  0.00    +0.000 A 
ATOM      4  C   UNL     1       5.830   4.534  18.411  0.00  0.00    +0.000 A 
ATOM      5  S   UNL     1       7.160   4.815  17.369  0.00  0.00    +0.000 S 
ENDROOT
BRANCH   3   6
ATOM      6  C   UNL     1       3.451   3.751  18.264  0.00  0.00    +0.000 A 
ATOM      7  C   UNL     1       2.805   2.565  17.910  0.00  0.00    +0.000 A 
ATOM      8  C   UNL     1       1.571   2.292  18.471  0.00  0.00    +0.000 A 
ATOM      9  N   UNL     1       0.943   3.117  19.336  0.00  0.00    +0.000 NA
ATOM     10  C   UNL     1       1.574   4.264  19.651  0.00  0.00    +0.000 A 
ATOM     11  C   UNL     1       2.812   4.624  19.147  0.00  0.00    +0.000 A 
ENDBRANCH   3   6
BRANCH   1  12
ATOM     12  C   UNL     1       6.714   4.456  14.633  0.00  0.00    +0.000 C 
BRANCH  12  13
ATOM     13  C   UNL     1       5.762   3.807  13.621  0.00  0.00    +0.000 C 
BRANCH  13  14
ATOM     14  C   UNL     1       6.442   3.500  12.285  0.00  0.00    +0.000 C 
BRANCH  14  15
ATOM     15  N   UNL     1       6.081   2.164  11.824  0.00  0.00    +0.000 NA
ATOM     16  H   UNL     1       6.268   1.493  12.569  0.00  0.00    +0.000 HD
ATOM     17  H   UNL     1       6.696   1.899  11.054  0.00  0.00    +0.000 HD
ENDBRANCH  14  15
ENDBRANCH  13  14
ENDBRANCH  12  13
ENDBRANCH   1  12
TORSDOF 5
ENDMDL
MODEL 3
REMARK VINA RESULT:      -5.9      3.021      5.408
REMARK  Name = 
REMARK  5 active torsions:
REMARK  status: ('A' for Active; 'I' for Inactive)
REMARK    1  A    between atoms: N_1  and  C_2
REMARK    2  A    between atoms: C_2  and  C_3
REMARK    3  A    between atoms: C_3  and  C_4
REMARK    4  A    between atoms: C_4  and  C_5
REMARK    5  A    between atoms: C_7  and  C_8
REMARK                            x       y       z     vdW  Elec       q    Type
REMARK                         _______ _______ _______ _____ _____    ______ ____
ROOT
ATOM      1  C   UNL     1       6.200   5.931  16.980  0.00  0.00    +0.000 A 
ATOM      2  N   UNL     1       5.063   5.590  17.547  0.00  0.00    +0.000 NA
ATOM      3  C   UNL     1       4.623   4.381  17.038  0.00  0.00    +0.000 A 
ATOM      4  C   UNL     1       5.409   3.854  16.031  0.00  0.00    +0.000 A 
ATOM      5  S   UNL     1       6.747   4.882  15.733  0.00  0.00    +0.000 S 
ENDROOT
BRANCH   3   6
ATOM      6  C   UNL     1       3.419   3.744  17.555  0.00  0.00    +0.000 A 
ATOM      7  C   UNL     1       2.258   4.499  17.734  0.00  0.00    +0.000 A 
ATOM      8  C   UNL     1       1.131   3.871  18.229  0.00  0.00    +0.000 A 
ATOM      9  N   UNL     1       1.089   2.564  18.564  0.00  0.00    +0.000 NA
ATOM     10  C   UNL     1       2.223   1.857  18.401  0.00  0.00    +0.000 A 
ATOM     11  C   UNL     1       3.400   2.394  17.908  0.00  0.00    +0.000 A 
ENDBRANCH   3   6
BRANCH   1  12
ATOM     12  C   UNL     1       7.038   7.094  17.417  0.00  0.00    +0.000 C 
BRANCH  12  13
ATOM     13  C   UNL     1       7.978   6.705  18.565  0.00  0.00    +0.000 C 
BRANCH  13  14
ATOM     14  C   UNL     1       7.387   5.620  19.468  0.00  0.00    +0.000 C 
BRANCH  14  15
ATOM     15  N   UNL     1       8.304   5.309  20.559  0.00  0.00    +0.000 NA
ATOM     16  H   UNL     1       7.871   5.574  21.444  0.00  0.00    +0.000 HD
ATOM     17  H   UNL     1       9.135   5.897  20.473  0.00  0.00    +0.000 HD
ENDBRANCH  14  15
ENDBRANCH  13  14
ENDBRANCH  12  13
ENDBRANCH   1  12
TORSDOF 5
ENDMDL
MODEL 4
REMARK VINA RESULT:      -5.9      2.482      5.664
REMARK  Name = 
REMARK  5 active torsions:
REMARK  status: ('A' for Active; 'I' for Inactive)
REMARK    1  A    between atoms: N_1  and  C_2
REMARK    2  A    between atoms: C_2  and  C_3
REMARK    3  A    between atoms: C_3  and  C_4
REMARK    4  A    between atoms: C_4  and  C_5
REMARK    5  A    between atoms: C_7  and  C_8
REMARK                            x       y       z     vdW  Elec       q    Type
REMARK                         _______ _______ _______ _____ _____    ______ ____
ROOT
ATOM      1  C   UNL     1       5.957   5.866  17.030  0.00  0.00    +0.000 A 
ATOM      2  N   UNL     1       4.966   5.899  17.895  0.00  0.00    +0.000 NA
ATOM      3  C   UNL     1       4.161   4.784  17.738  0.00  0.00    +0.000 A 
ATOM      4  C   UNL     1       4.523   3.950  16.697  0.00  0.00    +0.000 A 
ATOM      5  S   UNL     1       5.919   4.560  15.913  0.00  0.00    +0.000 S 
ENDROOT
BRANCH   3   6
ATOM      6  C   UNL     1       3.032   4.543  18.625  0.00  0.00    +0.000 A 
ATOM      7  C   UNL     1       2.940   5.237  19.834  0.00  0.00    +0.000 A 
ATOM      8  C   UNL     1       1.859   4.986  20.659  0.00  0.00    +0.000 A 
ATOM      9  N   UNL     1       0.888   4.095  20.369  0.00  0.00    +0.000 NA
ATOM     10  C   UNL     1       1.004   3.423  19.208  0.00  0.00    +0.000 A 
ATOM     11  C   UNL     1       2.044   3.607  18.314  0.00  0.00    +0.000 A 
ENDBRANCH   3   6
BRANCH   1  12
ATOM     12  C   UNL     1       7.106   6.828  17.038  0.00  0.00    +0.000 C 
BRANCH  12  13
ATOM     13  C   UNL     1       7.815   6.841  18.398  0.00  0.00    +0.000 C 
BRANCH  13  14
ATOM     14  C   UNL     1       8.013   5.436  18.972  0.00  0.00    +0.000 C 
BRANCH  14  15
ATOM     15  N   UNL     1       8.036   5.479  20.430  0.00  0.00    +0.000 NA
ATOM     16  H   UNL     1       7.794   6.421  20.738  0.00  0.00    +0.000 HD
ATOM     17  H   UNL     1       8.991   5.320  20.753  0.00  0.00    +0.000 HD
ENDBRANCH  14  15
ENDBRANCH  13  14
ENDBRANCH  12  13
ENDBRANCH   1  12
TORSDOF 5
ENDMDL
MODEL 5
REMARK VINA RESULT:      -5.8      2.466      6.125
REMARK  Name = 
REMARK  5 active torsions:
REMARK  status: ('A' for Active; 'I' for Inactive)
REMARK    1  A    between atoms: N_1  and  C_2
REMARK    2  A    between atoms: C_2  and  C_3
REMARK    3  A    between atoms: C_3  and  C_4
REMARK    4  A    between atoms: C_4  and  C_5
REMARK    5  A    between atoms: C_7  and  C_8
REMARK                            x       y       z     vdW  Elec       q    Type
REMARK                         _______ _______ _______ _____ _____    ______ ____
ROOT
ATOM      1  C   UNL     1       6.222   4.569  17.947  0.00  0.00    +0.000 A 
ATOM      2  N   UNL     1       5.423   4.391  18.977  0.00  0.00    +0.000 NA
ATOM      3  C   UNL     1       4.205   3.890  18.553  0.00  0.00    +0.000 A 
ATOM      4  C   UNL     1       4.076   3.761  17.184  0.00  0.00    +0.000 A 
ATOM      5  S   UNL     1       5.524   4.251  16.409  0.00  0.00    +0.000 S 
ENDROOT
BRANCH   3   6
ATOM      6  C   UNL     1       3.166   3.536  19.510  0.00  0.00    +0.000 A 
ATOM      7  C   UNL     1       1.868   4.022  19.335  0.00  0.00    +0.000 A 
ATOM      8  C   UNL     1       0.902   3.673  20.260  0.00  0.00    +0.000 A 
ATOM      9  N   UNL     1       1.142   2.895  21.336  0.00  0.00    +0.000 NA
ATOM     10  C   UNL     1       2.404   2.451  21.498  0.00  0.00    +0.000 A 
ATOM     11  C   UNL     1       3.438   2.741  20.625  0.00  0.00    +0.000 A 
ENDBRANCH   3   6
BRANCH   1  12
ATOM     12  C   UNL     1       7.669   4.936  18.064  0.00  0.00    +0.000 C 
BRANCH  12  13
ATOM     13  C   UNL     1       7.842   6.375  18.568  0.00  0.00    +0.000 C 
BRANCH  13  14
ATOM     14  C   UNL     1       7.508   7.417  17.498  0.00  0.00    +0.000 C 
BRANCH  14  15
ATOM     15  N   UNL     1       8.063   8.716  17.861  0.00  0.00    +0.000 NA
ATOM     16  H   UNL     1       8.207   9.266  17.014  0.00  0.00    +0.000 HD
ATOM     17  H   UNL     1       8.992   8.581  18.263  0.00  0.00    +0.000 HD
ENDBRANCH  14  15
ENDBRANCH  13  14
ENDBRANCH  12  13
ENDBRANCH   1  12
TORSDOF 5
ENDMDL
MODEL 6
REMARK VINA RESULT:      -5.8      2.577      6.408
REMARK  Name = 
REMARK  5 active torsions:
REMARK  status: ('A' for Active; 'I' for Inactive)
REMARK    1  A    between atoms: N_1  and  C_2
REMARK    2  A    between atoms: C_2  and  C_3
REMARK    3  A    between atoms: C_3  and  C_4
REMARK    4  A    between atoms: C_4  and  C_5
REMARK    5  A    between atoms: C_7  and  C_8
REMARK                            x       y       z     vdW  Elec       q    Type
REMARK                         _______ _______ _______ _____ _____    ______ ____
ROOT
ATOM      1  C   UNL     1       5.437   4.708  15.942  0.00  0.00    +0.000 A 
ATOM      2  N   UNL     1       4.602   3.914  16.576  0.00  0.00    +0.000 NA
ATOM      3  C   UNL     1       3.777   4.654  17.403  0.00  0.00    +0.000 A 
ATOM      4  C   UNL     1       4.051   6.008  17.435  0.00  0.00    +0.000 A 
ATOM      5  S   UNL     1       5.355   6.368  16.382  0.00  0.00    +0.000 S 
ENDROOT
BRANCH   3   6
ATOM      6  C   UNL     1       2.710   4.018  18.164  0.00  0.00    +0.000 A 
ATOM      7  C   UNL     1       2.114   4.701  19.226  0.00  0.00    +0.000 A 
ATOM      8  C   UNL     1       1.106   4.073  19.933  0.00  0.00    +0.000 A 
ATOM      9  N   UNL     1       0.670   2.824  19.665  0.00  0.00    +0.000 NA
ATOM     10  C   UNL     1       1.270   2.174  18.649  0.00  0.00    +0.000 A 
ATOM     11  C   UNL     1       2.283   2.720  17.879  0.00  0.00    +0.000 A 
ENDBRANCH   3   6
BRANCH   1  12
ATOM     12  C   UNL     1       6.352   4.257  14.845  0.00  0.00    +0.000 C 
BRANCH  12  13
ATOM     13  C   UNL     1       5.572   3.941  13.562  0.00  0.00    +0.000 C 
BRANCH  13  14
ATOM     14  C   UNL     1       6.477   3.444  12.431  0.00  0.00    +0.000 C 
BRANCH  14  15
ATOM     15  N   UNL     1       5.956   2.203  11.871  0.00  0.00    +0.000 NA
ATOM     16  H   UNL     1       5.481   1.679  12.606  0.00  0.00    +0.000 HD
ATOM     17  H   UNL     1       6.738   1.617  11.575  0.00  0.00    +0.000 HD
ENDBRANCH  14  15
ENDBRANCH  13  14
ENDBRANCH  12  13
ENDBRANCH   1  12
TORSDOF 5
ENDMDL
MODEL 7
REMARK VINA RESULT:      -5.8      2.431      5.872
REMARK  Name = 
REMARK  5 active torsions:
REMARK  status: ('A' for Active; 'I' for Inactive)
REMARK    1  A    between atoms: N_1  and  C_2
REMARK    2  A    between atoms: C_2  and  C_3
REMARK    3  A    between atoms: C_3  and  C_4
REMARK    4  A    between atoms: C_4  and  C_5
REMARK    5  A    between atoms: C_7  and  C_8
REMARK                            x       y       z     vdW  Elec       q    Type
REMARK                         _______ _______ _______ _____ _____    ______ ____
ROOT
ATOM      1  C   UNL     1       5.896   4.440  17.554  0.00  0.00    +0.000 A 
ATOM      2  N   UNL     1       5.204   4.255  18.657  0.00  0.00    +0.000 NA
ATOM      3  C   UNL     1       3.937   3.789  18.350  0.00  0.00    +0.000 A 
ATOM      4  C   UNL     1       3.666   3.694  16.999  0.00  0.00    +0.000 A 
ATOM      5  S   UNL     1       5.037   4.172  16.089  0.00  0.00    +0.000 S 
ENDROOT
BRANCH   3   6
ATOM      6  C   UNL     1       2.994   3.434  19.401  0.00  0.00    +0.000 A 
ATOM      7  C   UNL     1       1.632   3.685  19.223  0.00  0.00    +0.000 A 
ATOM      8  C   UNL     1       0.759   3.341  20.238  0.00  0.00    +0.000 A 
ATOM      9  N   UNL     1       1.148   2.785  21.405  0.00  0.00    +0.000 NA
ATOM     10  C   UNL     1       2.468   2.568  21.565  0.00  0.00    +0.000 A 
ATOM     11  C   UNL     1       3.419   2.872  20.607  0.00  0.00    +0.000 A 
ENDBRANCH   3   6
BRANCH   1  12
ATOM     12  C   UNL     1       7.356   4.775  17.528  0.00  0.00    +0.000 C 
BRANCH  12  13
ATOM     13  C   UNL     1       7.589   6.275  17.751  0.00  0.00    +0.000 C 
BRANCH  13  14
ATOM     14  C   UNL     1       8.206   6.578  19.118  0.00  0.00    +0.000 C 
BRANCH  14  15
ATOM     15  N   UNL     1       7.842   5.544  20.081  0.00  0.00    +0.000 NA
ATOM     16  H   UNL     1       6.847   5.618  20.289  0.00  0.00    +0.000 HD
ATOM     17  H   UNL     1       8.322   5.727  20.964  0.00  0.00    +0.000 HD
ENDBRANCH  14  15
ENDBRANCH  13  14
ENDBRANCH  12  13
ENDBRANCH   1  12
TORSDOF 5
ENDMDL
MODEL 8
REMARK VINA RESULT:      -5.8      0.830      1.474
REMARK  Name = 
REMARK  5 active torsions:
REMARK  status: ('A' for Active; 'I' for Inactive)
REMARK    1  A    between atoms: N_1  and  C_2
REMARK    2  A    between atoms: C_2  and  C_3
REMARK    3  A    between atoms: C_3  and  C_4
REMARK    4  A    between atoms: C_4  and  C_5
REMARK    5  A    between atoms: C_7  and  C_8
REMARK                            x       y       z     vdW  Elec       q    Type
REMARK                         _______ _______ _______ _____ _____    ______ ____
ROOT
ATOM      1  C   UNL     1       2.434   5.779  19.429  0.00  0.00    +0.000 A 
ATOM      2  N   UNL     1       3.437   5.104  18.909  0.00  0.00    +0.000 NA
ATOM      3  C   UNL     1       4.177   5.921  18.073  0.00  0.00    +0.000 A 
ATOM      4  C   UNL     1       3.675   7.200  17.918  0.00  0.00    +0.000 A 
ATOM      5  S   UNL     1       2.259   7.393  18.863  0.00  0.00    +0.000 S 
ENDROOT
BRANCH   3   6
ATOM      6  C   UNL     1       5.388   5.434  17.428  0.00  0.00    +0.000 A 
ATOM      7  C   UNL     1       6.474   5.029  18.209  0.00  0.00    +0.000 A 
ATOM      8  C   UNL     1       7.612   4.574  17.571  0.00  0.00    +0.000 A 
ATOM      9  N   UNL     1       7.744   4.510  16.229  0.00  0.00    +0.000 NA
ATOM     10  C   UNL     1       6.694   4.923  15.494  0.00  0.00    +0.000 A 
ATOM     11  C   UNL     1       5.510   5.389  16.038  0.00  0.00    +0.000 A 
ENDBRANCH   3   6
BRANCH   1  12
ATOM     12  C   UNL     1       1.537   5.249  20.505  0.00  0.00    +0.000 C 
BRANCH  12  13
ATOM     13  C   UNL     1       2.177   4.059  21.230  0.00  0.00    +0.000 C 
BRANCH  13  14
ATOM     14  C   UNL     1       1.485   2.732  20.908  0.00  0.00    +0.000 C 
BRANCH  14  15
ATOM     15  N   UNL     1       1.964   2.204  19.636  0.00  0.00    +0.000 NA
ATOM     16  H   UNL     1       2.063   1.192  19.712  0.00  0.00    +0.000 HD
ATOM     17  H   UNL     1       2.904   2.560  19.460  0.00  0.00    +0.000 HD
ENDBRANCH  14  15
ENDBRANCH  13  14
ENDBRANCH  12  13
ENDBRANCH   1  12
TORSDOF 5
ENDMDL
MODEL 9
REMARK VINA RESULT:      -5.8      2.095      2.683
REMARK  Name = 
REMARK  5 active torsions:
REMARK  status: ('A' for Active; 'I' for Inactive)
REMARK    1  A    between atoms: N_1  and  C_2
REMARK    2  A    between atoms: C_2  and  C_3
REMARK    3  A    between atoms: C_3  and  C_4
REMARK    4  A    between atoms: C_4  and  C_5
REMARK    5  A    between atoms: C_7  and  C_8
REMARK                            x       y       z     vdW  Elec       q    Type
REMARK                         _______ _______ _______ _____ _____    ______ ____
ROOT
ATOM      1  C   UNL     1       3.033   2.936  19.465  0.00  0.00    +0.000 A 
ATOM      2  N   UNL     1       4.163   3.505  19.105  0.00  0.00    +0.000 NA
ATOM      3  C   UNL     1       4.195   3.671  17.732  0.00  0.00    +0.000 A 
ATOM      4  C   UNL     1       3.104   3.155  17.060  0.00  0.00    +0.000 A 
ATOM      5  S   UNL     1       1.998   2.470  18.174  0.00  0.00    +0.000 S 
ENDROOT
BRANCH   3   6
ATOM      6  C   UNL     1       5.311   4.347  17.084  0.00  0.00    +0.000 A 
ATOM      7  C   UNL     1       5.963   5.392  17.741  0.00  0.00    +0.000 A 
ATOM      8  C   UNL     1       7.017   6.019  17.102  0.00  0.00    +0.000 A 
ATOM      9  N   UNL     1       7.447   5.687  15.867  0.00  0.00    +0.000 NA
ATOM     10  C   UNL     1       6.794   4.689  15.242  0.00  0.00    +0.000 A 
ATOM     11  C   UNL     1       5.732   3.997  15.800  0.00  0.00    +0.000 A 
ENDBRANCH   3   6
BRANCH   1  12
ATOM     12  C   UNL     1       2.598   2.765  20.888  0.00  0.00    +0.000 C 
BRANCH  12  13
ATOM     13  C   UNL     1       2.341   4.120  21.561  0.00  0.00    +0.000 C 
BRANCH  13  14
ATOM     14  C   UNL     1       1.657   5.120  20.627  0.00  0.00    +0.000 C 
BRANCH  14  15
ATOM     15  N   UNL     1       2.572   6.202  20.282  0.00  0.00    +0.000 NA
ATOM     16  H   UNL     1       3.401   5.808  19.837  0.00  0.00    +0.000 HD
ATOM     17  H   UNL     1       2.904   6.644  21.140  0.00  0.00    +0.000 HD
ENDBRANCH  14  15
ENDBRANCH  13  14
ENDBRANCH  12  13
ENDBRANCH   1  12
TORSDOF 5
ENDMDL
