MODEL 1
REMARK VINA RESULT:      -9.2      0.000      0.000
REMARK  Name = 
REMARK  5 active torsions:
REMARK  status: ('A' for Active; 'I' for Inactive)
REMARK    1  A    between atoms: C_2  and  C_3
REMARK    2  A    between atoms: C_3  and  S_4
REMARK    3  A    between atoms: S_4  and  C_5
REMARK    4  A    between atoms: C_7  and  C_8
REMARK    5  A    between atoms: N_21  and  C_22
REMARK                            x       y       z     vdW  Elec       q    Type
REMARK                         _______ _______ _______ _____ _____    ______ ____
ROOT
ATOM      1  C   UNL     1       4.955   5.307  19.121  0.00  0.00    +0.000 A 
ATOM      2  N   UNL     1       4.293   6.430  19.142  0.00  0.00    +0.000 NA
ATOM      3  C   UNL     1       2.904   6.338  19.030  0.00  0.00    +0.000 A 
ATOM      4  N   UNL     1       2.216   5.236  18.877  0.00  0.00    +0.000 NA
ATOM      5  C   UNL     1       2.970   4.103  18.841  0.00  0.00    +0.000 A 
ATOM      6  C   UNL     1       2.528   2.865  18.589  0.00  0.00    +0.000 A 
ATOM      7  C   UNL     1       3.759   2.030  18.583  0.00  0.00    +0.000 A 
ATOM      8  O   UNL     1       3.779   0.818  18.505  0.00  0.00    +0.000 OA
ATOM      9  N   UNL     1       4.840   2.887  18.716  0.00  0.00    +0.000 N 
ATOM     10  N   UNL     1       4.319   4.110  19.026  0.00  0.00    +0.000 N 
ATOM     11  H   UNL     1       5.766   2.602  19.009  0.00  0.00    +0.000 HD
ENDROOT
BRANCH   3  12
ATOM     12  C   UNL     1       2.184   7.644  19.078  0.00  0.00    +0.000 A 
ATOM     13  C   UNL     1       1.589   8.066  20.273  0.00  0.00    +0.000 A 
ATOM     14  C   UNL     1       0.917   9.288  20.326  0.00  0.00    +0.000 A 
ATOM     15  C   UNL     1       0.845  10.094  19.190  0.00  0.00    +0.000 A 
ATOM     16  C   UNL     1       1.439   9.679  17.998  0.00  0.00    +0.000 A 
ATOM     17  C   UNL     1       2.105   8.454  17.938  0.00  0.00    +0.000 A 
ENDBRANCH   3  12
BRANCH   1  18
ATOM     18  S   UNL     1       6.700   5.326  19.311  0.00  0.00    +0.000 S 
BRANCH  18  19
ATOM     19  C   UNL     1       7.207   6.238  17.827  0.00  0.00    +0.000 C 
BRANCH  19  21
ATOM     20  O   UNL     1       7.914   4.193  16.825  0.00  0.00    +0.000 OA
ATOM     21  C   UNL     1       7.369   5.282  16.659  0.00  0.00    +0.000 C 
ATOM     22  N   UNL     1       6.857   5.758  15.463  0.00  0.00    +0.000 N 
ATOM     23  H   UNL     1       6.529   6.720  15.446  0.00  0.00    +0.000 HD
BRANCH  22  24
ATOM     24  C   UNL     1       6.700   5.023  14.269  0.00  0.00    +0.000 A 
ATOM     25  C   UNL     1       7.597   5.107  13.201  0.00  0.00    +0.000 A 
ATOM     26  C   UNL     1       7.421   4.324  12.057  0.00  0.00    +0.000 A 
ATOM     27  C   UNL     1       6.338   3.456  11.968  0.00  0.00    +0.000 A 
ATOM     28  C   UNL     1       5.433   3.367  13.024  0.00  0.00    +0.000 A 
ATOM     29  C   UNL     1       5.619   4.138  14.176  0.00  0.00    +0.000 A 
ENDBRANCH  22  24
ENDBRANCH  19  21
ENDBRANCH  18  19
ENDBRANCH   1  18
TORSDOF 5
ENDMDL
MODEL 2
REMARK VINA RESULT:      -9.2      0.127      1.318
REMARK  Name = 
REMARK  5 active torsions:
REMARK  status: ('A' for Active; 'I' for Inactive)
REMARK    1  A    between atoms: C_2  and  C_3
REMARK    2  A    between atoms: C_3  and  S_4
REMARK    3  A    between atoms: S_4  and  C_5
REMARK    4  A    between atoms: C_7  and  C_8
REMARK    5  A    between atoms: N_21  and  C_22
REMARK                            x       y       z     vdW  Elec       q    Type
REMARK                         _______ _______ _______ _____ _____    ______ ____
ROOT
ATOM      1  C   UNL     1       4.961   5.324  19.108  0.00  0.00    +0.000 A 
ATOM      2  N   UNL     1       4.306   6.451  19.127  0.00  0.00    +0.000 NA
ATOM      3  C   UNL     1       2.919   6.370  18.986  0.00  0.00    +0.000 A 
ATOM      4  N   UNL     1       2.226   5.275  18.809  0.00  0.00    +0.000 NA
ATOM      5  C   UNL     1       2.973   4.137  18.777  0.00  0.00    +0.000 A 
ATOM      6  C   UNL     1       2.527   2.905  18.503  0.00  0.00    +0.000 A 
ATOM      7  C   UNL     1       3.753   2.062  18.513  0.00  0.00    +0.000 A 
ATOM      8  O   UNL     1       3.766   0.850  18.423  0.00  0.00    +0.000 OA
ATOM      9  N   UNL     1       4.837   2.909  18.676  0.00  0.00    +0.000 N 
ATOM     10  N   UNL     1       4.318   4.133  18.987  0.00  0.00    +0.000 N 
ATOM     11  H   UNL     1       5.754   2.614  18.984  0.00  0.00    +0.000 HD
ENDROOT
BRANCH   3  12
ATOM     12  C   UNL     1       2.207   7.681  19.033  0.00  0.00    +0.000 A 
ATOM     13  C   UNL     1       2.147   8.481  17.885  0.00  0.00    +0.000 A 
ATOM     14  C   UNL     1       1.479   9.706  17.921  0.00  0.00    +0.000 A 
ATOM     15  C   UNL     1       0.863  10.130  19.099  0.00  0.00    +0.000 A 
ATOM     16  C   UNL     1       0.918   9.335  20.244  0.00  0.00    +0.000 A 
ATOM     17  C   UNL     1       1.592   8.113  20.215  0.00  0.00    +0.000 A 
ENDBRANCH   3  12
BRANCH   1  18
ATOM     18  S   UNL     1       6.701   5.329  19.333  0.00  0.00    +0.000 S 
BRANCH  18  19
ATOM     19  C   UNL     1       7.246   6.224  17.851  0.00  0.00    +0.000 C 
BRANCH  19  21
ATOM     20  O   UNL     1       7.976   4.171  16.882  0.00  0.00    +0.000 OA
ATOM     21  C   UNL     1       7.430   5.257  16.696  0.00  0.00    +0.000 C 
ATOM     22  N   UNL     1       6.935   5.719  15.488  0.00  0.00    +0.000 N 
ATOM     23  H   UNL     1       6.605   6.679  15.455  0.00  0.00    +0.000 HD
BRANCH  22  24
ATOM     24  C   UNL     1       6.799   4.971  14.299  0.00  0.00    +0.000 A 
ATOM     25  C   UNL     1       5.803   4.007  14.118  0.00  0.00    +0.000 A 
ATOM     26  C   UNL     1       5.683   3.324  12.905  0.00  0.00    +0.000 A 
ATOM     27  C   UNL     1       6.564   3.595  11.864  0.00  0.00    +0.000 A 
ATOM     28  C   UNL     1       7.565   4.551  12.033  0.00  0.00    +0.000 A 
ATOM     29  C   UNL     1       7.674   5.246  13.242  0.00  0.00    +0.000 A 
ENDBRANCH  22  24
ENDBRANCH  19  21
ENDBRANCH  18  19
ENDBRANCH   1  18
TORSDOF 5
ENDMDL
MODEL 3
REMARK VINA RESULT:      -9.0      0.825      1.244
REMARK  Name = 
REMARK  5 active torsions:
REMARK  status: ('A' for Active; 'I' for Inactive)
REMARK    1  A    between atoms: C_2  and  C_3
REMARK    2  A    between atoms: C_3  and  S_4
REMARK    3  A    between atoms: S_4  and  C_5
REMARK    4  A    between atoms: C_7  and  C_8
REMARK    5  A    between atoms: N_21  and  C_22
REMARK                            x       y       z     vdW  Elec       q    Type
REMARK                         _______ _______ _______ _____ _____    ______ ____
ROOT
ATOM      1  C   UNL     1       4.943   5.367  18.932  0.00  0.00    +0.000 A 
ATOM      2  N   UNL     1       4.272   6.481  19.020  0.00  0.00    +0.000 NA
ATOM      3  C   UNL     1       2.881   6.368  19.081  0.00  0.00    +0.000 A 
ATOM      4  N   UNL     1       2.196   5.256  19.028  0.00  0.00    +0.000 NA
ATOM      5  C   UNL     1       2.957   4.133  18.913  0.00  0.00    +0.000 A 
ATOM      6  C   UNL     1       2.505   2.885  18.732  0.00  0.00    +0.000 A 
ATOM      7  C   UNL     1       3.739   2.067  18.584  0.00  0.00    +0.000 A 
ATOM      8  O   UNL     1       3.767   0.855  18.518  0.00  0.00    +0.000 OA
ATOM      9  N   UNL     1       4.816   2.940  18.573  0.00  0.00    +0.000 N 
ATOM     10  N   UNL     1       4.318   4.160  18.929  0.00  0.00    +0.000 N 
ATOM     11  H   UNL     1       5.774   2.671  18.753  0.00  0.00    +0.000 HD
ENDROOT
BRANCH   3  12
ATOM     12  C   UNL     1       2.152   7.666  19.201  0.00  0.00    +0.000 A 
ATOM     13  C   UNL     1       2.043   8.507  18.088  0.00  0.00    +0.000 A 
ATOM     14  C   UNL     1       1.360   9.720  18.192  0.00  0.00    +0.000 A 
ATOM     15  C   UNL     1       0.777  10.089  19.405  0.00  0.00    +0.000 A 
ATOM     16  C   UNL     1       0.882   9.252  20.516  0.00  0.00    +0.000 A 
ATOM     17  C   UNL     1       1.571   8.043  20.418  0.00  0.00    +0.000 A 
ENDBRANCH   3  12
BRANCH   1  18
ATOM     18  S   UNL     1       6.697   5.412  18.906  0.00  0.00    +0.000 S 
BRANCH  18  19
ATOM     19  C   UNL     1       6.999   6.706  17.671  0.00  0.00    +0.000 C 
BRANCH  19  21
ATOM     20  O   UNL     1       5.422   6.800  15.884  0.00  0.00    +0.000 OA
ATOM     21  C   UNL     1       6.446   6.280  16.323  0.00  0.00    +0.000 C 
ATOM     22  N   UNL     1       7.192   5.299  15.691  0.00  0.00    +0.000 N 
ATOM     23  H   UNL     1       7.956   4.882  16.215  0.00  0.00    +0.000 HD
BRANCH  22  24
ATOM     24  C   UNL     1       7.027   4.848  14.364  0.00  0.00    +0.000 A 
ATOM     25  C   UNL     1       7.802   5.318  13.300  0.00  0.00    +0.000 A 
ATOM     26  C   UNL     1       7.630   4.806  12.012  0.00  0.00    +0.000 A 
ATOM     27  C   UNL     1       6.673   3.826  11.774  0.00  0.00    +0.000 A 
ATOM     28  C   UNL     1       5.890   3.352  12.825  0.00  0.00    +0.000 A 
ATOM     29  C   UNL     1       6.075   3.852  14.118  0.00  0.00    +0.000 A 
ENDBRANCH  22  24
ENDBRANCH  19  21
ENDBRANCH  18  19
ENDBRANCH   1  18
TORSDOF 5
ENDMDL
MODEL 4
REMARK VINA RESULT:      -8.8      4.084      6.502
REMARK  Name = 
REMARK  5 active torsions:
REMARK  status: ('A' for Active; 'I' for Inactive)
REMARK    1  A    between atoms: C_2  and  C_3
REMARK    2  A    between atoms: C_3  and  S_4
REMARK    3  A    between atoms: S_4  and  C_5
REMARK    4  A    between atoms: C_7  and  C_8
REMARK    5  A    between atoms: N_21  and  C_22
REMARK                            x       y       z     vdW  Elec       q    Type
REMARK                         _______ _______ _______ _____ _____    ______ ____
ROOT
ATOM      1  C   UNL     1       6.439   5.805  17.628  0.00  0.00    +0.000 A 
ATOM      2  N   UNL     1       5.396   5.576  18.377  0.00  0.00    +0.000 NA
ATOM      3  C   UNL     1       4.372   4.818  17.805  0.00  0.00    +0.000 A 
ATOM      4  N   UNL     1       4.352   4.346  16.586  0.00  0.00    +0.000 NA
ATOM      5  C   UNL     1       5.460   4.640  15.852  0.00  0.00    +0.000 A 
ATOM      6  C   UNL     1       5.645   4.371  14.553  0.00  0.00    +0.000 A 
ATOM      7  C   UNL     1       6.966   4.977  14.238  0.00  0.00    +0.000 A 
ATOM      8  O   UNL     1       7.556   4.852  13.183  0.00  0.00    +0.000 OA
ATOM      9  N   UNL     1       7.390   5.659  15.368  0.00  0.00    +0.000 N 
ATOM     10  N   UNL     1       6.531   5.304  16.368  0.00  0.00    +0.000 N 
ATOM     11  H   UNL     1       8.346   5.936  15.546  0.00  0.00    +0.000 HD
ENDROOT
BRANCH   3  12
ATOM     12  C   UNL     1       3.206   4.562  18.702  0.00  0.00    +0.000 A 
ATOM     13  C   UNL     1       2.183   3.702  18.284  0.00  0.00    +0.000 A 
ATOM     14  C   UNL     1       1.093   3.455  19.119  0.00  0.00    +0.000 A 
ATOM     15  C   UNL     1       1.026   4.059  20.375  0.00  0.00    +0.000 A 
ATOM     16  C   UNL     1       2.044   4.914  20.797  0.00  0.00    +0.000 A 
ATOM     17  C   UNL     1       3.133   5.170  19.961  0.00  0.00    +0.000 A 
ENDBRANCH   3  12
BRANCH   1  18
ATOM     18  S   UNL     1       7.796   6.702  18.285  0.00  0.00    +0.000 S 
BRANCH  18  19
ATOM     19  C   UNL     1       7.503   8.350  17.584  0.00  0.00    +0.000 C 
BRANCH  19  21
ATOM     20  O   UNL     1       9.098   9.047  19.214  0.00  0.00    +0.000 OA
ATOM     21  C   UNL     1       8.422   9.365  18.237  0.00  0.00    +0.000 C 
ATOM     22  N   UNL     1       8.408  10.612  17.633  0.00  0.00    +0.000 N 
ATOM     23  H   UNL     1       7.723  10.767  16.899  0.00  0.00    +0.000 HD
BRANCH  22  24
ATOM     24  C   UNL     1       9.287  11.681  17.902  0.00  0.00    +0.000 A 
ATOM     25  C   UNL     1      10.674  11.581  17.756  0.00  0.00    +0.000 A 
ATOM     26  C   UNL     1      11.498  12.684  17.993  0.00  0.00    +0.000 A 
ATOM     27  C   UNL     1      10.943  13.896  18.388  0.00  0.00    +0.000 A 
ATOM     28  C   UNL     1       9.562  14.008  18.542  0.00  0.00    +0.000 A 
ATOM     29  C   UNL     1       8.736  12.908  18.288  0.00  0.00    +0.000 A 
ENDBRANCH  22  24
ENDBRANCH  19  21
ENDBRANCH  18  19
ENDBRANCH   1  18
TORSDOF 5
ENDMDL
MODEL 5
REMARK VINA RESULT:      -8.5      4.054      6.525
REMARK  Name = 
REMARK  5 active torsions:
REMARK  status: ('A' for Active; 'I' for Inactive)
REMARK    1  A    between atoms: C_2  and  C_3
REMARK    2  A    between atoms: C_3  and  S_4
REMARK    3  A    between atoms: S_4  and  C_5
REMARK    4  A    between atoms: C_7  and  C_8
REMARK    5  A    between atoms: N_21  and  C_22
REMARK                            x       y       z     vdW  Elec       q    Type
REMARK                         _______ _______ _______ _____ _____    ______ ____
ROOT
ATOM      1  C   UNL     1       6.542   5.645  17.988  0.00  0.00    +0.000 A 
ATOM      2  N   UNL     1       5.593   5.332  18.825  0.00  0.00    +0.000 NA
ATOM      3  C   UNL     1       4.574   4.513  18.336  0.00  0.00    +0.000 A 
ATOM      4  N   UNL     1       4.472   4.059  17.113  0.00  0.00    +0.000 NA
ATOM      5  C   UNL     1       5.482   4.442  16.286  0.00  0.00    +0.000 A 
ATOM      6  C   UNL     1       5.561   4.206  14.970  0.00  0.00    +0.000 A 
ATOM      7  C   UNL     1       6.802   4.908  14.546  0.00  0.00    +0.000 A 
ATOM      8  O   UNL     1       7.297   4.841  13.438  0.00  0.00    +0.000 OA
ATOM      9  N   UNL     1       7.283   5.601  15.646  0.00  0.00    +0.000 N 
ATOM     10  N   UNL     1       6.549   5.171  16.714  0.00  0.00    +0.000 N 
ATOM     11  H   UNL     1       8.230   5.942  15.740  0.00  0.00    +0.000 HD
ENDROOT
BRANCH   3  12
ATOM     12  C   UNL     1       3.519   4.162  19.332  0.00  0.00    +0.000 A 
ATOM     13  C   UNL     1       2.385   4.975  19.458  0.00  0.00    +0.000 A 
ATOM     14  C   UNL     1       1.393   4.651  20.384  0.00  0.00    +0.000 A 
ATOM     15  C   UNL     1       1.526   3.512  21.179  0.00  0.00    +0.000 A 
ATOM     16  C   UNL     1       2.653   2.698  21.055  0.00  0.00    +0.000 A 
ATOM     17  C   UNL     1       3.651   3.023  20.135  0.00  0.00    +0.000 A 
ENDBRANCH   3  12
BRANCH   1  18
ATOM     18  S   UNL     1       7.891   6.626  18.534  0.00  0.00    +0.000 S 
BRANCH  18  19
ATOM     19  C   UNL     1       7.571   8.184  17.660  0.00  0.00    +0.000 C 
BRANCH  19  21
ATOM     20  O   UNL     1       9.102   9.083  19.253  0.00  0.00    +0.000 OA
ATOM     21  C   UNL     1       8.409   9.299  18.260  0.00  0.00    +0.000 C 
ATOM     22  N   UNL     1       8.303  10.507  17.592  0.00  0.00    +0.000 N 
ATOM     23  H   UNL     1       7.612  10.572  16.851  0.00  0.00    +0.000 HD
BRANCH  22  24
ATOM     24  C   UNL     1       9.098  11.653  17.806  0.00  0.00    +0.000 A 
ATOM     25  C   UNL     1       8.559  12.903  18.125  0.00  0.00    +0.000 A 
ATOM     26  C   UNL     1       9.392  13.997  18.371  0.00  0.00    +0.000 A 
ATOM     27  C   UNL     1      10.773  13.853  18.293  0.00  0.00    +0.000 A 
ATOM     28  C   UNL     1      11.323  12.613  17.971  0.00  0.00    +0.000 A 
ATOM     29  C   UNL     1      10.489  11.514  17.741  0.00  0.00    +0.000 A 
ENDBRANCH  22  24
ENDBRANCH  19  21
ENDBRANCH  18  19
ENDBRANCH   1  18
TORSDOF 5
ENDMDL
MODEL 6
REMARK VINA RESULT:      -8.4      3.151      5.078
REMARK  Name = 
REMARK  5 active torsions:
REMARK  status: ('A' for Active; 'I' for Inactive)
REMARK    1  A    between atoms: C_2  and  C_3
REMARK    2  A    between atoms: C_3  and  S_4
REMARK    3  A    between atoms: S_4  and  C_5
REMARK    4  A    between atoms: C_7  and  C_8
REMARK    5  A    between atoms: N_21  and  C_22
REMARK                            x       y       z     vdW  Elec       q    Type
REMARK                         _______ _______ _______ _____ _____    ______ ____
ROOT
ATOM      1  C   UNL     1       5.131   5.655  18.311  0.00  0.00    +0.000 A 
ATOM      2  N   UNL     1       4.328   6.681  18.291  0.00  0.00    +0.000 NA
ATOM      3  C   UNL     1       3.167   6.580  19.060  0.00  0.00    +0.000 A 
ATOM      4  N   UNL     1       2.801   5.543  19.769  0.00  0.00    +0.000 NA
ATOM      5  C   UNL     1       3.672   4.499  19.727  0.00  0.00    +0.000 A 
ATOM      6  C   UNL     1       3.487   3.290  20.271  0.00  0.00    +0.000 A 
ATOM      7  C   UNL     1       4.687   2.514  19.858  0.00  0.00    +0.000 A 
ATOM      8  O   UNL     1       4.961   1.396  20.246  0.00  0.00    +0.000 OA
ATOM      9  N   UNL     1       5.421   3.314  18.998  0.00  0.00    +0.000 N 
ATOM     10  N   UNL     1       4.861   4.557  19.065  0.00  0.00    +0.000 N 
ATOM     11  H   UNL     1       6.397   3.170  18.772  0.00  0.00    +0.000 HD
ENDROOT
BRANCH   3  12
ATOM     12  C   UNL     1       2.286   7.785  19.026  0.00  0.00    +0.000 A 
ATOM     13  C   UNL     1       2.117   8.489  17.827  0.00  0.00    +0.000 A 
ATOM     14  C   UNL     1       1.292   9.613  17.787  0.00  0.00    +0.000 A 
ATOM     15  C   UNL     1       0.627  10.031  18.941  0.00  0.00    +0.000 A 
ATOM     16  C   UNL     1       0.789   9.331  20.136  0.00  0.00    +0.000 A 
ATOM     17  C   UNL     1       1.621   8.210  20.182  0.00  0.00    +0.000 A 
ENDBRANCH   3  12
BRANCH   1  18
ATOM     18  S   UNL     1       6.640   5.718  17.417  0.00  0.00    +0.000 S 
BRANCH  18  19
ATOM     19  C   UNL     1       6.800   7.500  17.119  0.00  0.00    +0.000 C 
BRANCH  19  21
ATOM     20  O   UNL     1       8.495   7.358  18.790  0.00  0.00    +0.000 OA
ATOM     21  C   UNL     1       7.848   8.091  18.044  0.00  0.00    +0.000 C 
ATOM     22  N   UNL     1       7.977   9.466  17.947  0.00  0.00    +0.000 N 
ATOM     23  H   UNL     1       7.305   9.959  17.366  0.00  0.00    +0.000 HD
BRANCH  22  24
ATOM     24  C   UNL     1       8.986  10.255  18.539  0.00  0.00    +0.000 A 
ATOM     25  C   UNL     1       9.122  10.401  19.923  0.00  0.00    +0.000 A 
ATOM     26  C   UNL     1      10.166  11.158  20.461  0.00  0.00    +0.000 A 
ATOM     27  C   UNL     1      11.078  11.784  19.619  0.00  0.00    +0.000 A 
ATOM     28  C   UNL     1      10.950  11.652  18.237  0.00  0.00    +0.000 A 
ATOM     29  C   UNL     1       9.915  10.880  17.699  0.00  0.00    +0.000 A 
ENDBRANCH  22  24
ENDBRANCH  19  21
ENDBRANCH  18  19
ENDBRANCH   1  18
TORSDOF 5
ENDMDL
MODEL 7
REMARK VINA RESULT:      -8.2      2.960      4.779
REMARK  Name = 
REMARK  5 active torsions:
REMARK  status: ('A' for Active; 'I' for Inactive)
REMARK    1  A    between atoms: C_2  and  C_3
REMARK    2  A    between atoms: C_3  and  S_4
REMARK    3  A    between atoms: S_4  and  C_5
REMARK    4  A    between atoms: C_7  and  C_8
REMARK    5  A    between atoms: N_21  and  C_22
REMARK                            x       y       z     vdW  Elec       q    Type
REMARK                         _______ _______ _______ _____ _____    ______ ____
ROOT
ATOM      1  C   UNL     1       4.862   5.456  17.742  0.00  0.00    +0.000 A 
ATOM      2  N   UNL     1       4.228   6.577  17.944  0.00  0.00    +0.000 NA
ATOM      3  C   UNL     1       2.974   6.484  18.553  0.00  0.00    +0.000 A 
ATOM      4  N   UNL     1       2.371   5.379  18.908  0.00  0.00    +0.000 NA
ATOM      5  C   UNL     1       3.078   4.245  18.647  0.00  0.00    +0.000 A 
ATOM      6  C   UNL     1       2.647   2.988  18.811  0.00  0.00    +0.000 A 
ATOM      7  C   UNL     1       3.764   2.148  18.299  0.00  0.00    +0.000 A 
ATOM      8  O   UNL     1       3.818   0.937  18.379  0.00  0.00    +0.000 OA
ATOM      9  N   UNL     1       4.714   3.004  17.764  0.00  0.00    +0.000 N 
ATOM     10  N   UNL     1       4.338   4.264  18.131  0.00  0.00    +0.000 N 
ATOM     11  H   UNL     1       5.678   2.754  17.590  0.00  0.00    +0.000 HD
ENDROOT
BRANCH   3  12
ATOM     12  C   UNL     1       2.292   7.791  18.785  0.00  0.00    +0.000 A 
ATOM     13  C   UNL     1       1.675   8.043  20.017  0.00  0.00    +0.000 A 
ATOM     14  C   UNL     1       1.039   9.265  20.242  0.00  0.00    +0.000 A 
ATOM     15  C   UNL     1       1.024  10.238  19.242  0.00  0.00    +0.000 A 
ATOM     16  C   UNL     1       1.639   9.991  18.015  0.00  0.00    +0.000 A 
ATOM     17  C   UNL     1       2.270   8.768  17.783  0.00  0.00    +0.000 A 
ENDBRANCH   3  12
BRANCH   1  18
ATOM     18  S   UNL     1       6.467   5.484  17.032  0.00  0.00    +0.000 S 
BRANCH  18  19
ATOM     19  C   UNL     1       7.428   6.255  18.364  0.00  0.00    +0.000 C 
BRANCH  19  21
ATOM     20  O   UNL     1       7.349   8.175  16.952  0.00  0.00    +0.000 OA
ATOM     21  C   UNL     1       7.786   7.681  17.990  0.00  0.00    +0.000 C 
ATOM     22  N   UNL     1       8.610   8.317  18.905  0.00  0.00    +0.000 N 
ATOM     23  H   UNL     1       8.983   7.756  19.665  0.00  0.00    +0.000 HD
BRANCH  22  24
ATOM     24  C   UNL     1       8.949   9.686  18.915  0.00  0.00    +0.000 A 
ATOM     25  C   UNL     1       8.823  10.509  17.792  0.00  0.00    +0.000 A 
ATOM     26  C   UNL     1       9.130  11.869  17.866  0.00  0.00    +0.000 A 
ATOM     27  C   UNL     1       9.574  12.419  19.064  0.00  0.00    +0.000 A 
ATOM     28  C   UNL     1       9.710  11.608  20.190  0.00  0.00    +0.000 A 
ATOM     29  C   UNL     1       9.386  10.249  20.119  0.00  0.00    +0.000 A 
ENDBRANCH  22  24
ENDBRANCH  19  21
ENDBRANCH  18  19
ENDBRANCH   1  18
TORSDOF 5
ENDMDL
MODEL 8
REMARK VINA RESULT:      -8.2      3.303      6.136
REMARK  Name = 
REMARK  5 active torsions:
REMARK  status: ('A' for Active; 'I' for Inactive)
REMARK    1  A    between atoms: C_2  and  C_3
REMARK    2  A    between atoms: C_3  and  S_4
REMARK    3  A    between atoms: S_4  and  C_5
REMARK    4  A    between atoms: C_7  and  C_8
REMARK    5  A    between atoms: N_21  and  C_22
REMARK                            x       y       z     vdW  Elec       q    Type
REMARK                         _______ _______ _______ _____ _____    ______ ____
ROOT
ATOM      1  C   UNL     1       6.591   4.665  17.559  0.00  0.00    +0.000 A 
ATOM      2  N   UNL     1       5.536   4.381  18.269  0.00  0.00    +0.000 NA
ATOM      3  C   UNL     1       4.390   4.008  17.564  0.00  0.00    +0.000 A 
ATOM      4  N   UNL     1       4.273   3.947  16.262  0.00  0.00    +0.000 NA
ATOM      5  C   UNL     1       5.404   4.278  15.581  0.00  0.00    +0.000 A 
ATOM      6  C   UNL     1       5.521   4.400  14.253  0.00  0.00    +0.000 A 
ATOM      7  C   UNL     1       6.922   4.859  14.050  0.00  0.00    +0.000 A 
ATOM      8  O   UNL     1       7.466   4.978  12.971  0.00  0.00    +0.000 OA
ATOM      9  N   UNL     1       7.470   5.082  15.303  0.00  0.00    +0.000 N 
ATOM     10  N   UNL     1       6.579   4.572  16.203  0.00  0.00    +0.000 N 
ATOM     11  H   UNL     1       8.462   5.137  15.493  0.00  0.00    +0.000 HD
ENDROOT
BRANCH   3  12
ATOM     12  C   UNL     1       3.211   3.671  18.415  0.00  0.00    +0.000 A 
ATOM     13  C   UNL     1       2.717   2.361  18.432  0.00  0.00    +0.000 A 
ATOM     14  C   UNL     1       1.617   2.039  19.229  0.00  0.00    +0.000 A 
ATOM     15  C   UNL     1       1.016   3.020  20.017  0.00  0.00    +0.000 A 
ATOM     16  C   UNL     1       1.506   4.326  20.005  0.00  0.00    +0.000 A 
ATOM     17  C   UNL     1       2.601   4.655  19.203  0.00  0.00    +0.000 A 
ENDBRANCH   3  12
BRANCH   1  18
ATOM     18  S   UNL     1       8.090   5.090  18.365  0.00  0.00    +0.000 S 
BRANCH  18  19
ATOM     19  C   UNL     1       7.633   6.659  19.155  0.00  0.00    +0.000 C 
BRANCH  19  21
ATOM     20  O   UNL     1       7.889   7.798  17.075  0.00  0.00    +0.000 OA
ATOM     21  C   UNL     1       8.076   7.825  18.290  0.00  0.00    +0.000 C 
ATOM     22  N   UNL     1       8.674   8.857  18.995  0.00  0.00    +0.000 N 
ATOM     23  H   UNL     1       8.861   8.701  19.981  0.00  0.00    +0.000 HD
BRANCH  22  24
ATOM     24  C   UNL     1       9.010  10.130  18.489  0.00  0.00    +0.000 A 
ATOM     25  C   UNL     1       8.075  10.983  17.895  0.00  0.00    +0.000 A 
ATOM     26  C   UNL     1       8.449  12.253  17.450  0.00  0.00    +0.000 A 
ATOM     27  C   UNL     1       9.766  12.679  17.588  0.00  0.00    +0.000 A 
ATOM     28  C   UNL     1      10.709  11.837  18.174  0.00  0.00    +0.000 A 
ATOM     29  C   UNL     1      10.330  10.572  18.635  0.00  0.00    +0.000 A 
ENDBRANCH  22  24
ENDBRANCH  19  21
ENDBRANCH  18  19
ENDBRANCH   1  18
TORSDOF 5
ENDMDL
MODEL 9
REMARK VINA RESULT:      -8.2      3.141      4.990
REMARK  Name = 
REMARK  5 active torsions:
REMARK  status: ('A' for Active; 'I' for Inactive)
REMARK    1  A    between atoms: C_2  and  C_3
REMARK    2  A    between atoms: C_3  and  S_4
REMARK    3  A    between atoms: S_4  and  C_5
REMARK    4  A    between atoms: C_7  and  C_8
REMARK    5  A    between atoms: N_21  and  C_22
REMARK                            x       y       z     vdW  Elec       q    Type
REMARK                         _______ _______ _______ _____ _____    ______ ____
ROOT
ATOM      1  C   UNL     1       4.917   5.757  17.893  0.00  0.00    +0.000 A 
ATOM      2  N   UNL     1       4.259   6.862  18.108  0.00  0.00    +0.000 NA
ATOM      3  C   UNL     1       2.938   6.727  18.540  0.00  0.00    +0.000 A 
ATOM      4  N   UNL     1       2.297   5.601  18.718  0.00  0.00    +0.000 NA
ATOM      5  C   UNL     1       3.035   4.487  18.454  0.00  0.00    +0.000 A 
ATOM      6  C   UNL     1       2.590   3.225  18.453  0.00  0.00    +0.000 A 
ATOM      7  C   UNL     1       3.766   2.423  18.018  0.00  0.00    +0.000 A 
ATOM      8  O   UNL     1       3.812   1.209  17.999  0.00  0.00    +0.000 OA
ATOM      9  N   UNL     1       4.774   3.313  17.685  0.00  0.00    +0.000 N 
ATOM     10  N   UNL     1       4.351   4.540  18.108  0.00  0.00    +0.000 N 
ATOM     11  H   UNL     1       5.753   3.071  17.616  0.00  0.00    +0.000 HD
ENDROOT
BRANCH   3  12
ATOM     12  C   UNL     1       2.227   8.015  18.794  0.00  0.00    +0.000 A 
ATOM     13  C   UNL     1       1.606   8.234  20.030  0.00  0.00    +0.000 A 
ATOM     14  C   UNL     1       0.944   9.437  20.276  0.00  0.00    +0.000 A 
ATOM     15  C   UNL     1       0.907  10.426  19.293  0.00  0.00    +0.000 A 
ATOM     16  C   UNL     1       1.527  10.214  18.061  0.00  0.00    +0.000 A 
ATOM     17  C   UNL     1       2.184   9.008  17.808  0.00  0.00    +0.000 A 
ENDBRANCH   3  12
BRANCH   1  18
ATOM     18  S   UNL     1       6.600   5.833  17.400  0.00  0.00    +0.000 S 
BRANCH  18  19
ATOM     19  C   UNL     1       6.802   7.611  17.105  0.00  0.00    +0.000 C 
BRANCH  19  21
ATOM     20  O   UNL     1       8.524   7.421  18.744  0.00  0.00    +0.000 OA
ATOM     21  C   UNL     1       7.870   8.174  18.025  0.00  0.00    +0.000 C 
ATOM     22  N   UNL     1       8.008   9.551  17.956  0.00  0.00    +0.000 N 
ATOM     23  H   UNL     1       7.329  10.060  17.398  0.00  0.00    +0.000 HD
BRANCH  22  24
ATOM     24  C   UNL     1       9.032  10.319  18.548  0.00  0.00    +0.000 A 
ATOM     25  C   UNL     1       9.123  10.531  19.927  0.00  0.00    +0.000 A 
ATOM     26  C   UNL     1      10.182  11.263  20.468  0.00  0.00    +0.000 A 
ATOM     27  C   UNL     1      11.158  11.798  19.633  0.00  0.00    +0.000 A 
ATOM     28  C   UNL     1      11.076  11.598  18.256  0.00  0.00    +0.000 A 
ATOM     29  C   UNL     1      10.024  10.850  17.716  0.00  0.00    +0.000 A 
ENDBRANCH  22  24
ENDBRANCH  19  21
ENDBRANCH  18  19
ENDBRANCH   1  18
TORSDOF 5
ENDMDL
