MODEL 1
REMARK VINA RESULT:      -6.3      0.000      0.000
REMARK  Name = 
REMARK  3 active torsions:
REMARK  status: ('A' for Active; 'I' for Inactive)
REMARK    1  A    between atoms: C_1  and  N_2
REMARK    2  A    between atoms: N_2  and  N_3
REMARK    3  A    between atoms: C_4  and  C_6
REMARK                            x       y       z     vdW  Elec       q    Type
REMARK                         _______ _______ _______ _____ _____    ______ ____
ROOT
ATOM      1  C   UNL     1       4.779   1.825  20.161  0.00  0.00    +0.000 C 
ATOM      2  N   UNL     1       4.384   2.797  19.134  0.00  0.00    +0.000 N 
ATOM      3  C   UNL     1       3.017   2.953  18.946  0.00  0.00    +0.000 C 
ATOM      4  N   UNL     1       2.182   1.973  19.127  0.00  0.00    +0.000 NA
ATOM      5  C   UNL     1       0.789   2.436  19.186  0.00  0.00    +0.000 C 
ATOM      6  C   UNL     1       0.739   3.586  20.189  0.00  0.00    +0.000 C 
ATOM      7  C   UNL     1       1.602   4.738  19.682  0.00  0.00    +0.000 C 
ATOM      8  N   UNL     1       2.599   4.245  18.744  0.00  0.00    +0.000 N 
ATOM      9  H   UNL     1       3.364   4.887  18.605  0.00  0.00    +0.000 HD
ENDROOT
BRANCH   2  10
ATOM     10  N   UNL     1       5.183   3.971  19.071  0.00  0.00    +0.000 N 
ATOM     11  C   UNL     1       5.607   4.504  17.858  0.00  0.00    +0.000 C 
ATOM     12  O   UNL     1       5.269   4.049  16.770  0.00  0.00    +0.000 OA
ATOM     13  H   UNL     1       5.475   4.347  19.968  0.00  0.00    +0.000 HD
BRANCH  11  14
ATOM     14  C   UNL     1       6.519   5.637  17.969  0.00  0.00    +0.000 A 
ATOM     15  C   UNL     1       6.587   6.722  17.110  0.00  0.00    +0.000 A 
ATOM     16  C   UNL     1       7.592   7.659  17.484  0.00  0.00    +0.000 A 
ATOM     17  C   UNL     1       8.273   7.256  18.612  0.00  0.00    +0.000 A 
ATOM     18  S   UNL     1       7.693   5.768  19.213  0.00  0.00    +0.000 S 
ENDBRANCH  11  14
ENDBRANCH   2  10
TORSDOF 2
ENDMDL
MODEL 2
REMARK VINA RESULT:      -6.3      2.186      3.033
REMARK  Name = 
REMARK  3 active torsions:
REMARK  status: ('A' for Active; 'I' for Inactive)
REMARK    1  A    between atoms: C_1  and  N_2
REMARK    2  A    between atoms: N_2  and  N_3
REMARK    3  A    between atoms: C_4  and  C_6
REMARK                            x       y       z     vdW  Elec       q    Type
REMARK                         _______ _______ _______ _____ _____    ______ ____
ROOT
ATOM      1  C   UNL     1       2.602   6.564  19.561  0.00  0.00    +0.000 C 
ATOM      2  N   UNL     1       3.438   5.360  19.474  0.00  0.00    +0.000 N 
ATOM      3  C   UNL     1       2.968   4.250  20.162  0.00  0.00    +0.000 C 
ATOM      4  N   UNL     1       2.276   4.361  21.257  0.00  0.00    +0.000 NA
ATOM      5  C   UNL     1       1.621   3.100  21.630  0.00  0.00    +0.000 C 
ATOM      6  C   UNL     1       0.887   2.592  20.394  0.00  0.00    +0.000 C 
ATOM      7  C   UNL     1       1.898   2.293  19.290  0.00  0.00    +0.000 C 
ATOM      8  N   UNL     1       3.121   3.051  19.511  0.00  0.00    +0.000 N 
ATOM      9  H   UNL     1       3.696   3.124  18.686  0.00  0.00    +0.000 HD
ENDROOT
BRANCH   2  10
ATOM     10  N   UNL     1       4.037   5.128  18.205  0.00  0.00    +0.000 N 
ATOM     11  C   UNL     1       5.354   4.697  18.086  0.00  0.00    +0.000 C 
ATOM     12  O   UNL     1       6.060   4.421  19.050  0.00  0.00    +0.000 OA
ATOM     13  H   UNL     1       3.461   5.365  17.403  0.00  0.00    +0.000 HD
BRANCH  11  14
ATOM     14  C   UNL     1       5.855   4.625  16.718  0.00  0.00    +0.000 A 
ATOM     15  C   UNL     1       5.344   3.838  15.698  0.00  0.00    +0.000 A 
ATOM     16  C   UNL     1       6.062   3.983  14.476  0.00  0.00    +0.000 A 
ATOM     17  C   UNL     1       7.111   4.868  14.602  0.00  0.00    +0.000 A 
ATOM     18  S   UNL     1       7.214   5.520  16.176  0.00  0.00    +0.000 S 
ENDBRANCH  11  14
ENDBRANCH   2  10
TORSDOF 2
ENDMDL
MODEL 3
REMARK VINA RESULT:      -6.3      1.541      1.715
REMARK  Name = 
REMARK  3 active torsions:
REMARK  status: ('A' for Active; 'I' for Inactive)
REMARK    1  A    between atoms: C_1  and  N_2
REMARK    2  A    between atoms: N_2  and  N_3
REMARK    3  A    between atoms: C_4  and  C_6
REMARK                            x       y       z     vdW  Elec       q    Type
REMARK                         _______ _______ _______ _____ _____    ______ ____
ROOT
ATOM      1  C   UNL     1       3.724   1.902  17.788  0.00  0.00    +0.000 C 
ATOM      2  N   UNL     1       3.277   3.301  17.783  0.00  0.00    +0.000 N 
ATOM      3  C   UNL     1       2.258   3.610  18.674  0.00  0.00    +0.000 C 
ATOM      4  N   UNL     1       1.348   2.742  19.006  0.00  0.00    +0.000 NA
ATOM      5  C   UNL     1       0.576   3.170  20.180  0.00  0.00    +0.000 C 
ATOM      6  C   UNL     1       1.580   3.571  21.257  0.00  0.00    +0.000 C 
ATOM      7  C   UNL     1       2.400   4.762  20.767  0.00  0.00    +0.000 C 
ATOM      8  N   UNL     1       2.387   4.817  19.313  0.00  0.00    +0.000 N 
ATOM      9  H   UNL     1       3.128   5.385  18.932  0.00  0.00    +0.000 HD
ENDROOT
BRANCH   2  10
ATOM     10  N   UNL     1       4.308   4.266  17.621  0.00  0.00    +0.000 N 
ATOM     11  C   UNL     1       5.351   4.383  18.533  0.00  0.00    +0.000 C 
ATOM     12  O   UNL     1       5.496   3.628  19.489  0.00  0.00    +0.000 OA
ATOM     13  H   UNL     1       4.188   4.901  16.838  0.00  0.00    +0.000 HD
BRANCH  11  14
ATOM     14  C   UNL     1       6.258   5.500  18.290  0.00  0.00    +0.000 A 
ATOM     15  C   UNL     1       7.418   5.782  18.993  0.00  0.00    +0.000 A 
ATOM     16  C   UNL     1       8.080   6.951  18.519  0.00  0.00    +0.000 A 
ATOM     17  C   UNL     1       7.397   7.538  17.476  0.00  0.00    +0.000 A 
ATOM     18  S   UNL     1       5.981   6.674  17.071  0.00  0.00    +0.000 S 
ENDBRANCH  11  14
ENDBRANCH   2  10
TORSDOF 2
ENDMDL
MODEL 4
REMARK VINA RESULT:      -6.3      3.317      4.153
REMARK  Name = 
REMARK  3 active torsions:
REMARK  status: ('A' for Active; 'I' for Inactive)
REMARK    1  A    between atoms: C_1  and  N_2
REMARK    2  A    between atoms: N_2  and  N_3
REMARK    3  A    between atoms: C_4  and  C_6
REMARK                            x       y       z     vdW  Elec       q    Type
REMARK                         _______ _______ _______ _____ _____    ______ ____
ROOT
ATOM      1  C   UNL     1       3.898   6.156  17.548  0.00  0.00    +0.000 C 
ATOM      2  N   UNL     1       4.712   4.934  17.514  0.00  0.00    +0.000 N 
ATOM      3  C   UNL     1       4.355   3.948  18.424  0.00  0.00    +0.000 C 
ATOM      4  N   UNL     1       3.842   4.235  19.584  0.00  0.00    +0.000 NA
ATOM      5  C   UNL     1       3.254   3.058  20.237  0.00  0.00    +0.000 C 
ATOM      6  C   UNL     1       2.337   2.388  19.217  0.00  0.00    +0.000 C 
ATOM      7  C   UNL     1       3.166   1.909  18.028  0.00  0.00    +0.000 C 
ATOM      8  N   UNL     1       4.407   2.664  17.944  0.00  0.00    +0.000 N 
ATOM      9  H   UNL     1       4.847   2.601  17.039  0.00  0.00    +0.000 HD
ENDROOT
BRANCH   2  10
ATOM     10  N   UNL     1       5.107   4.505  16.218  0.00  0.00    +0.000 N 
ATOM     11  C   UNL     1       6.227   5.031  15.582  0.00  0.00    +0.000 C 
ATOM     12  O   UNL     1       6.983   5.838  16.114  0.00  0.00    +0.000 OA
ATOM     13  H   UNL     1       4.479   3.846  15.768  0.00  0.00    +0.000 HD
BRANCH  11  14
ATOM     14  C   UNL     1       6.426   4.576  14.211  0.00  0.00    +0.000 A 
ATOM     15  C   UNL     1       5.640   3.662  13.528  0.00  0.00    +0.000 A 
ATOM     16  C   UNL     1       6.102   3.418  12.203  0.00  0.00    +0.000 A 
ATOM     17  C   UNL     1       7.238   4.144  11.916  0.00  0.00    +0.000 A 
ATOM     18  S   UNL     1       7.727   5.115  13.232  0.00  0.00    +0.000 S 
ENDBRANCH  11  14
ENDBRANCH   2  10
TORSDOF 2
ENDMDL
MODEL 5
REMARK VINA RESULT:      -6.3      0.808      1.034
REMARK  Name = 
REMARK  3 active torsions:
REMARK  status: ('A' for Active; 'I' for Inactive)
REMARK    1  A    between atoms: C_1  and  N_2
REMARK    2  A    between atoms: N_2  and  N_3
REMARK    3  A    between atoms: C_4  and  C_6
REMARK                            x       y       z     vdW  Elec       q    Type
REMARK                         _______ _______ _______ _____ _____    ______ ____
ROOT
ATOM      1  C   UNL     1       4.776   1.874  20.307  0.00  0.00    +0.000 C 
ATOM      2  N   UNL     1       4.389   2.804  19.239  0.00  0.00    +0.000 N 
ATOM      3  C   UNL     1       3.024   2.943  19.028  0.00  0.00    +0.000 C 
ATOM      4  N   UNL     1       2.192   1.965  19.235  0.00  0.00    +0.000 NA
ATOM      5  C   UNL     1       0.796   2.420  19.259  0.00  0.00    +0.000 C 
ATOM      6  C   UNL     1       0.725   3.606  20.216  0.00  0.00    +0.000 C 
ATOM      7  C   UNL     1       1.587   4.745  19.677  0.00  0.00    +0.000 C 
ATOM      8  N   UNL     1       2.600   4.223  18.771  0.00  0.00    +0.000 N 
ATOM      9  H   UNL     1       3.362   4.865  18.618  0.00  0.00    +0.000 HD
ENDROOT
BRANCH   2  10
ATOM     10  N   UNL     1       5.181   3.980  19.142  0.00  0.00    +0.000 N 
ATOM     11  C   UNL     1       5.623   4.466  17.915  0.00  0.00    +0.000 C 
ATOM     12  O   UNL     1       5.307   3.964  16.841  0.00  0.00    +0.000 OA
ATOM     13  H   UNL     1       5.455   4.394  20.027  0.00  0.00    +0.000 HD
BRANCH  11  14
ATOM     14  C   UNL     1       6.525   5.609  17.996  0.00  0.00    +0.000 A 
ATOM     15  C   UNL     1       7.584   5.757  18.877  0.00  0.00    +0.000 A 
ATOM     16  C   UNL     1       8.271   6.994  18.712  0.00  0.00    +0.000 A 
ATOM     17  C   UNL     1       7.707   7.763  17.717  0.00  0.00    +0.000 A 
ATOM     18  S   UNL     1       6.372   6.988  16.988  0.00  0.00    +0.000 S 
ENDBRANCH  11  14
ENDBRANCH   2  10
TORSDOF 2
ENDMDL
MODEL 6
REMARK VINA RESULT:      -6.3      3.565      6.352
REMARK  Name = 
REMARK  3 active torsions:
REMARK  status: ('A' for Active; 'I' for Inactive)
REMARK    1  A    between atoms: C_1  and  N_2
REMARK    2  A    between atoms: N_2  and  N_3
REMARK    3  A    between atoms: C_4  and  C_6
REMARK                            x       y       z     vdW  Elec       q    Type
REMARK                         _______ _______ _______ _____ _____    ______ ____
ROOT
ATOM      1  C   UNL     1       7.563   4.450  16.898  0.00  0.00    +0.000 C 
ATOM      2  N   UNL     1       6.327   4.805  16.189  0.00  0.00    +0.000 N 
ATOM      3  C   UNL     1       6.451   4.989  14.819  0.00  0.00    +0.000 C 
ATOM      4  N   UNL     1       7.545   5.445  14.281  0.00  0.00    +0.000 NA
ATOM      5  C   UNL     1       7.566   5.257  12.824  0.00  0.00    +0.000 C 
ATOM      6  C   UNL     1       7.215   3.797  12.554  0.00  0.00    +0.000 C 
ATOM      7  C   UNL     1       5.799   3.516  13.048  0.00  0.00    +0.000 C 
ATOM      8  N   UNL     1       5.420   4.485  14.066  0.00  0.00    +0.000 N 
ATOM      9  H   UNL     1       4.637   4.185  14.625  0.00  0.00    +0.000 HD
ENDROOT
BRANCH   2  10
ATOM     10  N   UNL     1       5.154   4.148  16.649  0.00  0.00    +0.000 N 
ATOM     11  C   UNL     1       4.323   4.720  17.607  0.00  0.00    +0.000 C 
ATOM     12  O   UNL     1       4.500   5.845  18.064  0.00  0.00    +0.000 OA
ATOM     13  H   UNL     1       5.007   3.213  16.283  0.00  0.00    +0.000 HD
BRANCH  11  14
ATOM     14  C   UNL     1       3.230   3.868  18.060  0.00  0.00    +0.000 A 
ATOM     15  C   UNL     1       1.876   4.100  17.873  0.00  0.00    +0.000 A 
ATOM     16  C   UNL     1       1.058   3.084  18.443  0.00  0.00    +0.000 A 
ATOM     17  C   UNL     1       1.809   2.110  19.064  0.00  0.00    +0.000 A 
ATOM     18  S   UNL     1       3.484   2.420  18.945  0.00  0.00    +0.000 S 
ENDBRANCH  11  14
ENDBRANCH   2  10
TORSDOF 2
ENDMDL
MODEL 7
REMARK VINA RESULT:      -6.2      2.636      5.579
REMARK  Name = 
REMARK  3 active torsions:
REMARK  status: ('A' for Active; 'I' for Inactive)
REMARK    1  A    between atoms: C_1  and  N_2
REMARK    2  A    between atoms: N_2  and  N_3
REMARK    3  A    between atoms: C_4  and  C_6
REMARK                            x       y       z     vdW  Elec       q    Type
REMARK                         _______ _______ _______ _____ _____    ______ ____
ROOT
ATOM      1  C   UNL     1       7.423   5.536  18.911  0.00  0.00    +0.000 C 
ATOM      2  N   UNL     1       6.178   5.910  18.226  0.00  0.00    +0.000 N 
ATOM      3  C   UNL     1       6.168   5.722  16.851  0.00  0.00    +0.000 C 
ATOM      4  N   UNL     1       7.246   5.835  16.133  0.00  0.00    +0.000 NA
ATOM      5  C   UNL     1       7.071   5.289  14.780  0.00  0.00    +0.000 C 
ATOM      6  C   UNL     1       6.482   3.890  14.933  0.00  0.00    +0.000 C 
ATOM      7  C   UNL     1       5.106   3.988  15.587  0.00  0.00    +0.000 C 
ATOM      8  N   UNL     1       4.994   5.230  16.338  0.00  0.00    +0.000 N 
ATOM      9  H   UNL     1       4.245   5.218  17.013  0.00  0.00    +0.000 HD
ENDROOT
BRANCH   2  10
ATOM     10  N   UNL     1       4.983   5.599  18.930  0.00  0.00    +0.000 N 
ATOM     11  C   UNL     1       4.648   4.290  19.262  0.00  0.00    +0.000 C 
ATOM     12  O   UNL     1       5.382   3.332  19.040  0.00  0.00    +0.000 OA
ATOM     13  H   UNL     1       4.366   6.385  19.107  0.00  0.00    +0.000 HD
BRANCH  11  14
ATOM     14  C   UNL     1       3.334   4.128  19.873  0.00  0.00    +0.000 A 
ATOM     15  C   UNL     1       2.290   5.039  19.828  0.00  0.00    +0.000 A 
ATOM     16  C   UNL     1       1.136   4.592  20.532  0.00  0.00    +0.000 A 
ATOM     17  C   UNL     1       1.336   3.356  21.108  0.00  0.00    +0.000 A 
ATOM     18  S   UNL     1       2.897   2.744  20.787  0.00  0.00    +0.000 S 
ENDBRANCH  11  14
ENDBRANCH   2  10
TORSDOF 2
ENDMDL
MODEL 8
REMARK VINA RESULT:      -6.1      1.325      1.359
REMARK  Name = 
REMARK  3 active torsions:
REMARK  status: ('A' for Active; 'I' for Inactive)
REMARK    1  A    between atoms: C_1  and  N_2
REMARK    2  A    between atoms: N_2  and  N_3
REMARK    3  A    between atoms: C_4  and  C_6
REMARK                            x       y       z     vdW  Elec       q    Type
REMARK                         _______ _______ _______ _____ _____    ______ ____
ROOT
ATOM      1  C   UNL     1       3.783   1.790  17.877  0.00  0.00    +0.000 C 
ATOM      2  N   UNL     1       3.288   3.171  17.816  0.00  0.00    +0.000 N 
ATOM      3  C   UNL     1       2.251   3.478  18.686  0.00  0.00    +0.000 C 
ATOM      4  N   UNL     1       1.369   2.593  19.044  0.00  0.00    +0.000 NA
ATOM      5  C   UNL     1       0.572   3.040  20.196  0.00  0.00    +0.000 C 
ATOM      6  C   UNL     1       1.553   3.515  21.263  0.00  0.00    +0.000 C 
ATOM      7  C   UNL     1       2.336   4.714  20.734  0.00  0.00    +0.000 C 
ATOM      8  N   UNL     1       2.333   4.713  19.279  0.00  0.00    +0.000 N 
ATOM      9  H   UNL     1       3.057   5.292  18.882  0.00  0.00    +0.000 HD
ENDROOT
BRANCH   2  10
ATOM     10  N   UNL     1       4.287   4.165  17.624  0.00  0.00    +0.000 N 
ATOM     11  C   UNL     1       5.305   4.367  18.549  0.00  0.00    +0.000 C 
ATOM     12  O   UNL     1       5.456   3.668  19.546  0.00  0.00    +0.000 OA
ATOM     13  H   UNL     1       4.162   4.754  16.807  0.00  0.00    +0.000 HD
BRANCH  11  14
ATOM     14  C   UNL     1       6.175   5.503  18.267  0.00  0.00    +0.000 A 
ATOM     15  C   UNL     1       5.970   6.473  17.299  0.00  0.00    +0.000 A 
ATOM     16  C   UNL     1       7.008   7.447  17.264  0.00  0.00    +0.000 A 
ATOM     17  C   UNL     1       7.986   7.185  18.199  0.00  0.00    +0.000 A 
ATOM     18  S   UNL     1       7.642   5.784  19.111  0.00  0.00    +0.000 S 
ENDBRANCH  11  14
ENDBRANCH   2  10
TORSDOF 2
ENDMDL
MODEL 9
REMARK VINA RESULT:      -6.1      3.700      6.464
REMARK  Name = 
REMARK  3 active torsions:
REMARK  status: ('A' for Active; 'I' for Inactive)
REMARK    1  A    between atoms: C_1  and  N_2
REMARK    2  A    between atoms: N_2  and  N_3
REMARK    3  A    between atoms: C_4  and  C_6
REMARK                            x       y       z     vdW  Elec       q    Type
REMARK                         _______ _______ _______ _____ _____    ______ ____
ROOT
ATOM      1  C   UNL     1       7.565   4.472  16.790  0.00  0.00    +0.000 C 
ATOM      2  N   UNL     1       6.319   4.791  16.082  0.00  0.00    +0.000 N 
ATOM      3  C   UNL     1       6.434   4.962  14.709  0.00  0.00    +0.000 C 
ATOM      4  N   UNL     1       7.514   5.437  14.163  0.00  0.00    +0.000 NA
ATOM      5  C   UNL     1       7.535   5.234  12.708  0.00  0.00    +0.000 C 
ATOM      6  C   UNL     1       7.217   3.763  12.455  0.00  0.00    +0.000 C 
ATOM      7  C   UNL     1       5.809   3.455  12.957  0.00  0.00    +0.000 C 
ATOM      8  N   UNL     1       5.412   4.425  13.966  0.00  0.00    +0.000 N 
ATOM      9  H   UNL     1       4.638   4.113  14.532  0.00  0.00    +0.000 HD
ENDROOT
BRANCH   2  10
ATOM     10  N   UNL     1       5.163   4.111  16.554  0.00  0.00    +0.000 N 
ATOM     11  C   UNL     1       4.330   4.668  17.519  0.00  0.00    +0.000 C 
ATOM     12  O   UNL     1       4.489   5.797  17.973  0.00  0.00    +0.000 OA
ATOM     13  H   UNL     1       5.032   3.173  16.191  0.00  0.00    +0.000 HD
BRANCH  11  14
ATOM     14  C   UNL     1       3.258   3.795  17.984  0.00  0.00    +0.000 A 
ATOM     15  C   UNL     1       3.408   2.523  18.514  0.00  0.00    +0.000 A 
ATOM     16  C   UNL     1       2.166   1.922  18.866  0.00  0.00    +0.000 A 
ATOM     17  C   UNL     1       1.100   2.747  18.581  0.00  0.00    +0.000 A 
ATOM     18  S   UNL     1       1.602   4.233  17.908  0.00  0.00    +0.000 S 
ENDBRANCH  11  14
ENDBRANCH   2  10
TORSDOF 2
ENDMDL
