MODEL 1
REMARK VINA RESULT:      -7.7      0.000      0.000
REMARK  Name = 
REMARK  2 active torsions:
REMARK  status: ('A' for Active; 'I' for Inactive)
REMARK    1  A    between atoms: C_5  and  S_6
REMARK    2  A    between atoms: S_6  and  C_7
REMARK                            x       y       z     vdW  Elec       q    Type
REMARK                         _______ _______ _______ _____ _____    ______ ____
ROOT
ATOM      1  C   UNL     1       3.689   3.661  17.700  0.00  0.00    +0.000 A 
ATOM      2  N   UNL     1       3.666   2.308  17.818  0.00  0.00    +0.000 NA
ATOM      3  C   UNL     1       2.993   1.784  18.857  0.00  0.00    +0.000 A 
ATOM      4  C   UNL     1       2.343   2.541  19.812  0.00  0.00    +0.000 A 
ATOM      5  C   UNL     1       2.366   3.932  19.701  0.00  0.00    +0.000 A 
ATOM      6  C   UNL     1       1.727   4.727  20.669  0.00  0.00    +0.000 A 
ATOM      7  C   UNL     1       1.737   6.117  20.576  0.00  0.00    +0.000 A 
ATOM      8  C   UNL     1       2.377   6.732  19.508  0.00  0.00    +0.000 A 
ATOM      9  C   UNL     1       3.022   5.954  18.541  0.00  0.00    +0.000 A 
ATOM     10  C   UNL     1       3.043   4.536  18.615  0.00  0.00    +0.000 A 
ENDROOT
BRANCH   1  11
ATOM     11  S   UNL     1       4.685   4.297  16.343  0.00  0.00    +0.000 S 
BRANCH  11  16
ATOM     12  F   UNL     1       8.826   7.613  18.951  0.00  0.00    +0.000 F 
ATOM     13  C   UNL     1       7.865   6.875  18.377  0.00  0.00    +0.000 A 
ATOM     14  C   UNL     1       7.672   5.562  18.793  0.00  0.00    +0.000 A 
ATOM     15  C   UNL     1       6.680   4.787  18.189  0.00  0.00    +0.000 A 
ATOM     16  C   UNL     1       5.882   5.327  17.173  0.00  0.00    +0.000 A 
ATOM     17  C   UNL     1       6.091   6.653  16.765  0.00  0.00    +0.000 A 
ATOM     18  C   UNL     1       7.083   7.428  17.371  0.00  0.00    +0.000 A 
ENDBRANCH  11  16
ENDBRANCH   1  11
TORSDOF 2
ENDMDL
MODEL 2
REMARK VINA RESULT:      -7.7      0.271      1.172
REMARK  Name = 
REMARK  2 active torsions:
REMARK  status: ('A' for Active; 'I' for Inactive)
REMARK    1  A    between atoms: C_5  and  S_6
REMARK    2  A    between atoms: S_6  and  C_7
REMARK                            x       y       z     vdW  Elec       q    Type
REMARK                         _______ _______ _______ _____ _____    ______ ____
ROOT
ATOM      1  C   UNL     1       3.728   3.752  17.904  0.00  0.00    +0.000 A 
ATOM      2  N   UNL     1       3.735   2.421  18.175  0.00  0.00    +0.000 NA
ATOM      3  C   UNL     1       3.092   2.006  19.281  0.00  0.00    +0.000 A 
ATOM      4  C   UNL     1       2.445   2.855  20.158  0.00  0.00    +0.000 A 
ATOM      5  C   UNL     1       2.438   4.225  19.890  0.00  0.00    +0.000 A 
ATOM      6  C   UNL     1       1.801   5.112  20.775  0.00  0.00    +0.000 A 
ATOM      7  C   UNL     1       1.781   6.483  20.525  0.00  0.00    +0.000 A 
ATOM      8  C   UNL     1       2.388   6.984  19.381  0.00  0.00    +0.000 A 
ATOM      9  C   UNL     1       3.030   6.114  18.495  0.00  0.00    +0.000 A 
ATOM     10  C   UNL     1       3.082   4.714  18.728  0.00  0.00    +0.000 A 
ENDROOT
BRANCH   1  11
ATOM     11  S   UNL     1       4.685   4.248  16.464  0.00  0.00    +0.000 S 
BRANCH  11  16
ATOM     12  F   UNL     1       8.785   7.715  18.934  0.00  0.00    +0.000 F 
ATOM     13  C   UNL     1       7.877   6.915  18.357  0.00  0.00    +0.000 A 
ATOM     14  C   UNL     1       7.107   7.401  17.306  0.00  0.00    +0.000 A 
ATOM     15  C   UNL     1       6.153   6.574  16.712  0.00  0.00    +0.000 A 
ATOM     16  C   UNL     1       5.973   5.261  17.167  0.00  0.00    +0.000 A 
ATOM     17  C   UNL     1       6.758   4.787  18.228  0.00  0.00    +0.000 A 
ATOM     18  C   UNL     1       7.714   5.616  18.821  0.00  0.00    +0.000 A 
ENDBRANCH  11  16
ENDBRANCH   1  11
TORSDOF 2
ENDMDL
MODEL 3
REMARK VINA RESULT:      -7.2      2.896      5.478
REMARK  Name = 
REMARK  2 active torsions:
REMARK  status: ('A' for Active; 'I' for Inactive)
REMARK    1  A    between atoms: C_5  and  S_6
REMARK    2  A    between atoms: S_6  and  C_7
REMARK                            x       y       z     vdW  Elec       q    Type
REMARK                         _______ _______ _______ _____ _____    ______ ____
ROOT
ATOM      1  C   UNL     1       5.143   4.875  18.719  0.00  0.00    +0.000 A 
ATOM      2  N   UNL     1       5.989   5.234  19.719  0.00  0.00    +0.000 NA
ATOM      3  C   UNL     1       7.277   5.449  19.400  0.00  0.00    +0.000 A 
ATOM      4  C   UNL     1       7.786   5.310  18.124  0.00  0.00    +0.000 A 
ATOM      5  C   UNL     1       6.924   4.936  17.091  0.00  0.00    +0.000 A 
ATOM      6  C   UNL     1       7.420   4.771  15.786  0.00  0.00    +0.000 A 
ATOM      7  C   UNL     1       6.577   4.400  14.740  0.00  0.00    +0.000 A 
ATOM      8  C   UNL     1       5.225   4.199  14.983  0.00  0.00    +0.000 A 
ATOM      9  C   UNL     1       4.719   4.355  16.277  0.00  0.00    +0.000 A 
ATOM     10  C   UNL     1       5.554   4.717  17.368  0.00  0.00    +0.000 A 
ENDROOT
BRANCH   1  11
ATOM     11  S   UNL     1       3.457   4.511  19.231  0.00  0.00    +0.000 S 
BRANCH  11  16
ATOM     12  F   UNL     1       1.112   9.933  19.447  0.00  0.00    +0.000 F 
ATOM     13  C   UNL     1       1.619   8.693  19.382  0.00  0.00    +0.000 A 
ATOM     14  C   UNL     1       1.509   7.852  20.484  0.00  0.00    +0.000 A 
ATOM     15  C   UNL     1       2.047   6.565  20.423  0.00  0.00    +0.000 A 
ATOM     16  C   UNL     1       2.690   6.121  19.261  0.00  0.00    +0.000 A 
ATOM     17  C   UNL     1       2.792   6.983  18.159  0.00  0.00    +0.000 A 
ATOM     18  C   UNL     1       2.252   8.271  18.220  0.00  0.00    +0.000 A 
ENDBRANCH  11  16
ENDBRANCH   1  11
TORSDOF 2
ENDMDL
MODEL 4
REMARK VINA RESULT:      -7.1      2.978      5.605
REMARK  Name = 
REMARK  2 active torsions:
REMARK  status: ('A' for Active; 'I' for Inactive)
REMARK    1  A    between atoms: C_5  and  S_6
REMARK    2  A    between atoms: S_6  and  C_7
REMARK                            x       y       z     vdW  Elec       q    Type
REMARK                         _______ _______ _______ _____ _____    ______ ____
ROOT
ATOM      1  C   UNL     1       5.066   5.014  18.662  0.00  0.00    +0.000 A 
ATOM      2  N   UNL     1       5.883   5.335  19.699  0.00  0.00    +0.000 NA
ATOM      3  C   UNL     1       7.191   5.499  19.435  0.00  0.00    +0.000 A 
ATOM      4  C   UNL     1       7.747   5.344  18.181  0.00  0.00    +0.000 A 
ATOM      5  C   UNL     1       6.916   5.010  17.111  0.00  0.00    +0.000 A 
ATOM      6  C   UNL     1       7.459   4.830  15.826  0.00  0.00    +0.000 A 
ATOM      7  C   UNL     1       6.647   4.497  14.745  0.00  0.00    +0.000 A 
ATOM      8  C   UNL     1       5.278   4.350  14.929  0.00  0.00    +0.000 A 
ATOM      9  C   UNL     1       4.725   4.520  16.202  0.00  0.00    +0.000 A 
ATOM     10  C   UNL     1       5.527   4.845  17.329  0.00  0.00    +0.000 A 
ENDROOT
BRANCH   1  11
ATOM     11  S   UNL     1       3.347   4.716  19.101  0.00  0.00    +0.000 S 
BRANCH  11  16
ATOM     12  F   UNL     1       0.899  10.090  19.368  0.00  0.00    +0.000 F 
ATOM     13  C   UNL     1       1.480   8.882  19.322  0.00  0.00    +0.000 A 
ATOM     14  C   UNL     1       2.085   8.459  18.144  0.00  0.00    +0.000 A 
ATOM     15  C   UNL     1       2.679   7.197  18.090  0.00  0.00    +0.000 A 
ATOM     16  C   UNL     1       2.670   6.362  19.214  0.00  0.00    +0.000 A 
ATOM     17  C   UNL     1       2.055   6.805  20.394  0.00  0.00    +0.000 A 
ATOM     18  C   UNL     1       1.461   8.068  20.448  0.00  0.00    +0.000 A 
ENDBRANCH  11  16
ENDBRANCH   1  11
TORSDOF 2
ENDMDL
MODEL 5
REMARK VINA RESULT:      -7.1      1.983      3.045
REMARK  Name = 
REMARK  2 active torsions:
REMARK  status: ('A' for Active; 'I' for Inactive)
REMARK    1  A    between atoms: C_5  and  S_6
REMARK    2  A    between atoms: S_6  and  C_7
REMARK                            x       y       z     vdW  Elec       q    Type
REMARK                         _______ _______ _______ _____ _____    ______ ____
ROOT
ATOM      1  C   UNL     1       2.768   6.176  18.658  0.00  0.00    +0.000 A 
ATOM      2  N   UNL     1       2.424   7.049  19.641  0.00  0.00    +0.000 NA
ATOM      3  C   UNL     1       1.658   6.587  20.645  0.00  0.00    +0.000 A 
ATOM      4  C   UNL     1       1.194   5.289  20.723  0.00  0.00    +0.000 A 
ATOM      5  C   UNL     1       1.540   4.387  19.715  0.00  0.00    +0.000 A 
ATOM      6  C   UNL     1       1.066   3.064  19.761  0.00  0.00    +0.000 A 
ATOM      7  C   UNL     1       1.400   2.147  18.766  0.00  0.00    +0.000 A 
ATOM      8  C   UNL     1       2.221   2.538  17.716  0.00  0.00    +0.000 A 
ATOM      9  C   UNL     1       2.694   3.852  17.655  0.00  0.00    +0.000 A 
ATOM     10  C   UNL     1       2.360   4.815  18.644  0.00  0.00    +0.000 A 
ENDROOT
BRANCH   1  11
ATOM     11  S   UNL     1       3.712   6.882  17.299  0.00  0.00    +0.000 S 
BRANCH  11  16
ATOM     12  F   UNL     1       8.812   3.942  17.833  0.00  0.00    +0.000 F 
ATOM     13  C   UNL     1       7.670   4.633  17.698  0.00  0.00    +0.000 A 
ATOM     14  C   UNL     1       7.165   5.335  18.785  0.00  0.00    +0.000 A 
ATOM     15  C   UNL     1       5.970   6.045  18.651  0.00  0.00    +0.000 A 
ATOM     16  C   UNL     1       5.286   6.053  17.429  0.00  0.00    +0.000 A 
ATOM     17  C   UNL     1       5.810   5.338  16.342  0.00  0.00    +0.000 A 
ATOM     18  C   UNL     1       7.007   4.629  16.477  0.00  0.00    +0.000 A 
ENDBRANCH  11  16
ENDBRANCH   1  11
TORSDOF 2
ENDMDL
MODEL 6
REMARK VINA RESULT:      -7.1      3.149      4.299
REMARK  Name = 
REMARK  2 active torsions:
REMARK  status: ('A' for Active; 'I' for Inactive)
REMARK    1  A    between atoms: C_5  and  S_6
REMARK    2  A    between atoms: S_6  and  C_7
REMARK                            x       y       z     vdW  Elec       q    Type
REMARK                         _______ _______ _______ _____ _____    ______ ____
ROOT
ATOM      1  C   UNL     1       4.862   5.125  17.702  0.00  0.00    +0.000 A 
ATOM      2  N   UNL     1       4.672   6.469  17.662  0.00  0.00    +0.000 NA
ATOM      3  C   UNL     1       3.421   6.928  17.839  0.00  0.00    +0.000 A 
ATOM      4  C   UNL     1       2.324   6.113  18.040  0.00  0.00    +0.000 A 
ATOM      5  C   UNL     1       2.510   4.730  18.077  0.00  0.00    +0.000 A 
ATOM      6  C   UNL     1       1.407   3.877  18.263  0.00  0.00    +0.000 A 
ATOM      7  C   UNL     1       1.571   2.494  18.304  0.00  0.00    +0.000 A 
ATOM      8  C   UNL     1       2.839   1.945  18.170  0.00  0.00    +0.000 A 
ATOM      9  C   UNL     1       3.943   2.781  17.979  0.00  0.00    +0.000 A 
ATOM     10  C   UNL     1       3.810   4.194  17.917  0.00  0.00    +0.000 A 
ENDROOT
BRANCH   1  11
ATOM     11  S   UNL     1       6.541   4.575  17.364  0.00  0.00    +0.000 S 
BRANCH  11  16
ATOM     12  F   UNL     1       6.897   4.225  11.475  0.00  0.00    +0.000 F 
ATOM     13  C   UNL     1       6.793   4.325  12.808  0.00  0.00    +0.000 A 
ATOM     14  C   UNL     1       7.702   5.112  13.506  0.00  0.00    +0.000 A 
ATOM     15  C   UNL     1       7.603   5.208  14.895  0.00  0.00    +0.000 A 
ATOM     16  C   UNL     1       6.596   4.520  15.583  0.00  0.00    +0.000 A 
ATOM     17  C   UNL     1       5.688   3.730  14.862  0.00  0.00    +0.000 A 
ATOM     18  C   UNL     1       5.786   3.635  13.471  0.00  0.00    +0.000 A 
ENDBRANCH  11  16
ENDBRANCH   1  11
TORSDOF 2
ENDMDL
MODEL 7
REMARK VINA RESULT:      -7.0      3.041      4.142
REMARK  Name = 
REMARK  2 active torsions:
REMARK  status: ('A' for Active; 'I' for Inactive)
REMARK    1  A    between atoms: C_5  and  S_6
REMARK    2  A    between atoms: S_6  and  C_7
REMARK                            x       y       z     vdW  Elec       q    Type
REMARK                         _______ _______ _______ _____ _____    ______ ____
ROOT
ATOM      1  C   UNL     1       4.816   5.180  17.881  0.00  0.00    +0.000 A 
ATOM      2  N   UNL     1       4.617   6.520  17.772  0.00  0.00    +0.000 NA
ATOM      3  C   UNL     1       3.355   6.973  17.872  0.00  0.00    +0.000 A 
ATOM      4  C   UNL     1       2.258   6.156  18.059  0.00  0.00    +0.000 A 
ATOM      5  C   UNL     1       2.453   4.778  18.167  0.00  0.00    +0.000 A 
ATOM      6  C   UNL     1       1.351   3.922  18.341  0.00  0.00    +0.000 A 
ATOM      7  C   UNL     1       1.524   2.544  18.452  0.00  0.00    +0.000 A 
ATOM      8  C   UNL     1       2.801   2.003  18.400  0.00  0.00    +0.000 A 
ATOM      9  C   UNL     1       3.906   2.842  18.221  0.00  0.00    +0.000 A 
ATOM     10  C   UNL     1       3.763   4.249  18.090  0.00  0.00    +0.000 A 
ENDROOT
BRANCH   1  11
ATOM     11  S   UNL     1       6.514   4.633  17.644  0.00  0.00    +0.000 S 
BRANCH  11  16
ATOM     12  F   UNL     1       6.744   4.246  11.751  0.00  0.00    +0.000 F 
ATOM     13  C   UNL     1       6.717   4.315  13.090  0.00  0.00    +0.000 A 
ATOM     14  C   UNL     1       5.795   3.549  13.794  0.00  0.00    +0.000 A 
ATOM     15  C   UNL     1       5.755   3.628  15.187  0.00  0.00    +0.000 A 
ATOM     16  C   UNL     1       6.640   4.469  15.873  0.00  0.00    +0.000 A 
ATOM     17  C   UNL     1       7.563   5.236  15.147  0.00  0.00    +0.000 A 
ATOM     18  C   UNL     1       7.603   5.155  13.752  0.00  0.00    +0.000 A 
ENDBRANCH  11  16
ENDBRANCH   1  11
TORSDOF 2
ENDMDL
MODEL 8
REMARK VINA RESULT:      -7.0      1.351      2.823
REMARK  Name = 
REMARK  2 active torsions:
REMARK  status: ('A' for Active; 'I' for Inactive)
REMARK    1  A    between atoms: C_5  and  S_6
REMARK    2  A    between atoms: S_6  and  C_7
REMARK                            x       y       z     vdW  Elec       q    Type
REMARK                         _______ _______ _______ _____ _____    ______ ____
ROOT
ATOM      1  C   UNL     1       3.332   5.409  18.387  0.00  0.00    +0.000 A 
ATOM      2  N   UNL     1       3.168   6.689  18.810  0.00  0.00    +0.000 NA
ATOM      3  C   UNL     1       2.289   6.910  19.803  0.00  0.00    +0.000 A 
ATOM      4  C   UNL     1       1.538   5.917  20.401  0.00  0.00    +0.000 A 
ATOM      5  C   UNL     1       1.697   4.599  19.968  0.00  0.00    +0.000 A 
ATOM      6  C   UNL     1       0.932   3.571  20.548  0.00  0.00    +0.000 A 
ATOM      7  C   UNL     1       1.076   2.249  20.132  0.00  0.00    +0.000 A 
ATOM      8  C   UNL     1       1.994   1.935  19.138  0.00  0.00    +0.000 A 
ATOM      9  C   UNL     1       2.756   2.948  18.549  0.00  0.00    +0.000 A 
ATOM     10  C   UNL     1       2.624   4.307  18.939  0.00  0.00    +0.000 A 
ENDROOT
BRANCH   1  11
ATOM     11  S   UNL     1       4.450   5.197  16.993  0.00  0.00    +0.000 S 
BRANCH  11  16
ATOM     12  F   UNL     1       9.212   8.111  18.934  0.00  0.00    +0.000 F 
ATOM     13  C   UNL     1       8.150   7.432  18.476  0.00  0.00    +0.000 A 
ATOM     14  C   UNL     1       7.360   7.993  17.479  0.00  0.00    +0.000 A 
ATOM     15  C   UNL     1       6.247   7.293  17.009  0.00  0.00    +0.000 A 
ATOM     16  C   UNL     1       5.928   6.035  17.534  0.00  0.00    +0.000 A 
ATOM     17  C   UNL     1       6.736   5.485  18.540  0.00  0.00    +0.000 A 
ATOM     18  C   UNL     1       7.851   6.185  19.009  0.00  0.00    +0.000 A 
ENDBRANCH  11  16
ENDBRANCH   1  11
TORSDOF 2
ENDMDL
MODEL 9
REMARK VINA RESULT:      -7.0      3.029      5.975
REMARK  Name = 
REMARK  2 active torsions:
REMARK  status: ('A' for Active; 'I' for Inactive)
REMARK    1  A    between atoms: C_5  and  S_6
REMARK    2  A    between atoms: S_6  and  C_7
REMARK                            x       y       z     vdW  Elec       q    Type
REMARK                         _______ _______ _______ _____ _____    ______ ____
ROOT
ATOM      1  C   UNL     1       4.752   5.711  18.050  0.00  0.00    +0.000 A 
ATOM      2  N   UNL     1       5.378   5.784  19.253  0.00  0.00    +0.000 NA
ATOM      3  C   UNL     1       6.677   5.440  19.303  0.00  0.00    +0.000 A 
ATOM      4  C   UNL     1       7.399   5.004  18.209  0.00  0.00    +0.000 A 
ATOM      5  C   UNL     1       6.761   4.920  16.970  0.00  0.00    +0.000 A 
ATOM      6  C   UNL     1       7.469   4.463  15.844  0.00  0.00    +0.000 A 
ATOM      7  C   UNL     1       6.852   4.374  14.598  0.00  0.00    +0.000 A 
ATOM      8  C   UNL     1       5.523   4.750  14.457  0.00  0.00    +0.000 A 
ATOM      9  C   UNL     1       4.806   5.201  15.570  0.00  0.00    +0.000 A 
ATOM     10  C   UNL     1       5.400   5.290  16.857  0.00  0.00    +0.000 A 
ENDROOT
BRANCH   1  11
ATOM     11  S   UNL     1       2.994   6.093  18.073  0.00  0.00    +0.000 S 
BRANCH  11  16
ATOM     12  F   UNL     1       1.037   2.078  21.944  0.00  0.00    +0.000 F 
ATOM     13  C   UNL     1       1.456   3.007  21.072  0.00  0.00    +0.000 A 
ATOM     14  C   UNL     1       1.238   2.815  19.713  0.00  0.00    +0.000 A 
ATOM     15  C   UNL     1       1.684   3.774  18.802  0.00  0.00    +0.000 A 
ATOM     16  C   UNL     1       2.344   4.925  19.253  0.00  0.00    +0.000 A 
ATOM     17  C   UNL     1       2.556   5.102  20.628  0.00  0.00    +0.000 A 
ATOM     18  C   UNL     1       2.108   4.142  21.539  0.00  0.00    +0.000 A 
ENDBRANCH  11  16
ENDBRANCH   1  11
TORSDOF 2
ENDMDL
