MODEL 1
REMARK VINA RESULT:      -6.7      0.000      0.000
REMARK  Name = 
REMARK  1 active torsions:
REMARK  status: ('A' for Active; 'I' for Inactive)
REMARK    1  A    between atoms: C_1  and  C_2
REMARK                            x       y       z     vdW  Elec       q    Type
REMARK                         _______ _______ _______ _____ _____    ______ ____
ROOT
ATOM      1  C   UNL     1       1.979   2.727  18.173  0.00  0.00    +0.000 C 
ATOM      2  C   UNL     1       3.476   2.824  17.935  0.00  0.00    +0.000 C 
ATOM      3  O   UNL     1       3.702   3.631  16.774  0.00  0.00    +0.000 OA
ATOM      4  C   UNL     1       5.016   4.050  16.634  0.00  0.00    +0.000 C 
ATOM      5  C   UNL     1       5.883   4.099  17.653  0.00  0.00    +0.000 C 
ATOM      6  N   UNL     1       5.479   3.777  18.927  0.00  0.00    +0.000 N 
ATOM      7  C   UNL     1       4.231   3.277  19.200  0.00  0.00    +0.000 C 
ATOM      8  O   UNL     1       3.833   3.113  20.349  0.00  0.00    +0.000 OA
ATOM      9  C   UNL     1       7.291   4.518  17.458  0.00  0.00    +0.000 C 
ATOM     10  O   UNL     1       8.064   4.559  18.410  0.00  0.00    +0.000 OA
ATOM     11  O   UNL     1       7.695   4.761  16.194  0.00  0.00    +0.000 OA
ATOM     12  C   UNL     1       6.783   5.036  15.118  0.00  0.00    +0.000 C 
ATOM     13  C   UNL     1       5.378   4.466  15.252  0.00  0.00    +0.000 C 
ATOM     14  H   UNL     1       6.109   3.961  19.703  0.00  0.00    +0.000 HD
ENDROOT
TORSDOF 0
ENDMDL
MODEL 2
REMARK VINA RESULT:      -6.5      1.303      4.317
REMARK  Name = 
REMARK  1 active torsions:
REMARK  status: ('A' for Active; 'I' for Inactive)
REMARK    1  A    between atoms: C_1  and  C_2
REMARK                            x       y       z     vdW  Elec       q    Type
REMARK                         _______ _______ _______ _____ _____    ______ ____
ROOT
ATOM      1  C   UNL     1       5.368   6.236  15.952  0.00  0.00    +0.000 C 
ATOM      2  C   UNL     1       5.056   5.546  17.270  0.00  0.00    +0.000 C 
ATOM      3  O   UNL     1       3.742   4.983  17.190  0.00  0.00    +0.000 OA
ATOM      4  C   UNL     1       3.465   4.072  18.198  0.00  0.00    +0.000 C 
ATOM      5  C   UNL     1       4.416   3.439  18.897  0.00  0.00    +0.000 C 
ATOM      6  N   UNL     1       5.744   3.632  18.599  0.00  0.00    +0.000 N 
ATOM      7  C   UNL     1       6.166   4.558  17.677  0.00  0.00    +0.000 C 
ATOM      8  O   UNL     1       7.338   4.637  17.324  0.00  0.00    +0.000 OA
ATOM      9  C   UNL     1       4.081   2.499  19.992  0.00  0.00    +0.000 C 
ATOM     10  O   UNL     1       4.972   1.928  20.613  0.00  0.00    +0.000 OA
ATOM     11  O   UNL     1       2.780   2.372  20.323  0.00  0.00    +0.000 OA
ATOM     12  C   UNL     1       1.707   2.753  19.446  0.00  0.00    +0.000 C 
ATOM     13  C   UNL     1       2.013   3.837  18.423  0.00  0.00    +0.000 C 
ATOM     14  H   UNL     1       6.438   3.035  19.040  0.00  0.00    +0.000 HD
ENDROOT
TORSDOF 0
ENDMDL
MODEL 3
REMARK VINA RESULT:      -6.4      2.059      4.608
REMARK  Name = 
REMARK  1 active torsions:
REMARK  status: ('A' for Active; 'I' for Inactive)
REMARK    1  A    between atoms: C_1  and  C_2
REMARK                            x       y       z     vdW  Elec       q    Type
REMARK                         _______ _______ _______ _____ _____    ______ ____
ROOT
ATOM      1  C   UNL     1       7.402   7.070  17.099  0.00  0.00    +0.000 C 
ATOM      2  C   UNL     1       6.766   6.151  18.128  0.00  0.00    +0.000 C 
ATOM      3  O   UNL     1       5.360   6.424  18.175  0.00  0.00    +0.000 OA
ATOM      4  C   UNL     1       4.627   5.452  18.837  0.00  0.00    +0.000 C 
ATOM      5  C   UNL     1       5.065   4.200  19.022  0.00  0.00    +0.000 C 
ATOM      6  N   UNL     1       6.274   3.801  18.501  0.00  0.00    +0.000 N 
ATOM      7  C   UNL     1       7.135   4.675  17.887  0.00  0.00    +0.000 C 
ATOM      8  O   UNL     1       8.150   4.292  17.313  0.00  0.00    +0.000 OA
ATOM      9  C   UNL     1       4.268   3.197  19.768  0.00  0.00    +0.000 C 
ATOM     10  O   UNL     1       4.691   2.056  19.918  0.00  0.00    +0.000 OA
ATOM     11  O   UNL     1       3.120   3.619  20.336  0.00  0.00    +0.000 OA
ATOM     12  C   UNL     1       2.438   4.818  19.932  0.00  0.00    +0.000 C 
ATOM     13  C   UNL     1       3.293   5.912  19.308  0.00  0.00    +0.000 C 
ATOM     14  H   UNL     1       6.517   2.815  18.526  0.00  0.00    +0.000 HD
ENDROOT
TORSDOF 0
ENDMDL
MODEL 4
REMARK VINA RESULT:      -6.3      1.678      1.814
REMARK  Name = 
REMARK  1 active torsions:
REMARK  status: ('A' for Active; 'I' for Inactive)
REMARK    1  A    between atoms: C_1  and  C_2
REMARK                            x       y       z     vdW  Elec       q    Type
REMARK                         _______ _______ _______ _____ _____    ______ ____
ROOT
ATOM      1  C   UNL     1       2.530   3.137  17.456  0.00  0.00    +0.000 C 
ATOM      2  C   UNL     1       3.985   3.549  17.609  0.00  0.00    +0.000 C 
ATOM      3  O   UNL     1       4.109   4.927  17.236  0.00  0.00    +0.000 OA
ATOM      4  C   UNL     1       5.309   5.501  17.624  0.00  0.00    +0.000 C 
ATOM      5  C   UNL     1       6.076   5.008  18.605  0.00  0.00    +0.000 C 
ATOM      6  N   UNL     1       5.666   3.910  19.325  0.00  0.00    +0.000 N 
ATOM      7  C   UNL     1       4.538   3.198  19.003  0.00  0.00    +0.000 C 
ATOM      8  O   UNL     1       4.109   2.301  19.721  0.00  0.00    +0.000 OA
ATOM      9  C   UNL     1       7.372   5.630  18.968  0.00  0.00    +0.000 C 
ATOM     10  O   UNL     1       8.052   5.161  19.875  0.00  0.00    +0.000 OA
ATOM     11  O   UNL     1       7.797   6.661  18.210  0.00  0.00    +0.000 OA
ATOM     12  C   UNL     1       6.921   7.432  17.372  0.00  0.00    +0.000 C 
ATOM     13  C   UNL     1       5.665   6.734  16.871  0.00  0.00    +0.000 C 
ATOM     14  H   UNL     1       6.189   3.645  20.154  0.00  0.00    +0.000 HD
ENDROOT
TORSDOF 0
ENDMDL
MODEL 5
REMARK VINA RESULT:      -6.3      1.577      1.612
REMARK  Name = 
REMARK  1 active torsions:
REMARK  status: ('A' for Active; 'I' for Inactive)
REMARK    1  A    between atoms: C_1  and  C_2
REMARK                            x       y       z     vdW  Elec       q    Type
REMARK                         _______ _______ _______ _____ _____    ______ ____
ROOT
ATOM      1  C   UNL     1       1.867   3.674  18.925  0.00  0.00    +0.000 C 
ATOM      2  C   UNL     1       3.256   3.823  18.328  0.00  0.00    +0.000 C 
ATOM      3  O   UNL     1       3.511   5.216  18.110  0.00  0.00    +0.000 OA
ATOM      4  C   UNL     1       4.845   5.505  17.864  0.00  0.00    +0.000 C 
ATOM      5  C   UNL     1       5.850   4.695  18.222  0.00  0.00    +0.000 C 
ATOM      6  N   UNL     1       5.596   3.535  18.915  0.00  0.00    +0.000 N 
ATOM      7  C   UNL     1       4.323   3.088  19.162  0.00  0.00    +0.000 C 
ATOM      8  O   UNL     1       4.101   2.124  19.889  0.00  0.00    +0.000 OA
ATOM      9  C   UNL     1       7.261   5.021  17.910  0.00  0.00    +0.000 C 
ATOM     10  O   UNL     1       8.163   4.264  18.254  0.00  0.00    +0.000 OA
ATOM     11  O   UNL     1       7.493   6.123  17.167  0.00  0.00    +0.000 OA
ATOM     12  C   UNL     1       6.535   7.185  17.019  0.00  0.00    +0.000 C 
ATOM     13  C   UNL     1       5.069   6.810  17.186  0.00  0.00    +0.000 C 
ATOM     14  H   UNL     1       6.378   3.015  19.302  0.00  0.00    +0.000 HD
ENDROOT
TORSDOF 0
ENDMDL
MODEL 6
REMARK VINA RESULT:      -6.3      2.028      2.996
REMARK  Name = 
REMARK  1 active torsions:
REMARK  status: ('A' for Active; 'I' for Inactive)
REMARK    1  A    between atoms: C_1  and  C_2
REMARK                            x       y       z     vdW  Elec       q    Type
REMARK                         _______ _______ _______ _____ _____    ______ ____
ROOT
ATOM      1  C   UNL     1       4.294   2.243  19.877  0.00  0.00    +0.000 C 
ATOM      2  C   UNL     1       4.430   3.591  19.189  0.00  0.00    +0.000 C 
ATOM      3  O   UNL     1       5.786   4.034  19.319  0.00  0.00    +0.000 OA
ATOM      4  C   UNL     1       6.110   5.086  18.477  0.00  0.00    +0.000 C 
ATOM      5  C   UNL     1       5.423   5.376  17.365  0.00  0.00    +0.000 C 
ATOM      6  N   UNL     1       4.368   4.586  16.973  0.00  0.00    +0.000 N 
ATOM      7  C   UNL     1       3.891   3.557  17.746  0.00  0.00    +0.000 C 
ATOM      8  O   UNL     1       3.036   2.778  17.336  0.00  0.00    +0.000 OA
ATOM      9  C   UNL     1       5.778   6.533  16.509  0.00  0.00    +0.000 C 
ATOM     10  O   UNL     1       5.134   6.772  15.492  0.00  0.00    +0.000 OA
ATOM     11  O   UNL     1       6.767   7.342  16.940  0.00  0.00    +0.000 OA
ATOM     12  C   UNL     1       7.737   6.940  17.921  0.00  0.00    +0.000 C 
ATOM     13  C   UNL     1       7.309   5.858  18.903  0.00  0.00    +0.000 C 
ATOM     14  H   UNL     1       3.957   4.737  16.056  0.00  0.00    +0.000 HD
ENDROOT
TORSDOF 0
ENDMDL
MODEL 7
REMARK VINA RESULT:      -6.2      2.007      2.502
REMARK  Name = 
REMARK  1 active torsions:
REMARK  status: ('A' for Active; 'I' for Inactive)
REMARK    1  A    between atoms: C_1  and  C_2
REMARK                            x       y       z     vdW  Elec       q    Type
REMARK                         _______ _______ _______ _____ _____    ______ ____
ROOT
ATOM      1  C   UNL     1       2.402   2.788  21.271  0.00  0.00    +0.000 C 
ATOM      2  C   UNL     1       3.104   3.144  19.971  0.00  0.00    +0.000 C 
ATOM      3  O   UNL     1       2.942   4.547  19.735  0.00  0.00    +0.000 OA
ATOM      4  C   UNL     1       3.789   5.048  18.759  0.00  0.00    +0.000 C 
ATOM      5  C   UNL     1       4.924   4.441  18.389  0.00  0.00    +0.000 C 
ATOM      6  N   UNL     1       5.335   3.290  19.018  0.00  0.00    +0.000 N 
ATOM      7  C   UNL     1       4.561   2.643  19.950  0.00  0.00    +0.000 C 
ATOM      8  O   UNL     1       4.984   1.692  20.599  0.00  0.00    +0.000 OA
ATOM      9  C   UNL     1       5.786   4.989  17.315  0.00  0.00    +0.000 C 
ATOM     10  O   UNL     1       6.824   4.415  17.000  0.00  0.00    +0.000 OA
ATOM     11  O   UNL     1       5.338   6.077  16.657  0.00  0.00    +0.000 OA
ATOM     12  C   UNL     1       4.325   6.951  17.182  0.00  0.00    +0.000 C 
ATOM     13  C   UNL     1       3.341   6.339  18.169  0.00  0.00    +0.000 C 
ATOM     14  H   UNL     1       6.265   2.930  18.824  0.00  0.00    +0.000 HD
ENDROOT
TORSDOF 0
ENDMDL
MODEL 8
REMARK VINA RESULT:      -6.2      1.770      4.352
REMARK  Name = 
REMARK  1 active torsions:
REMARK  status: ('A' for Active; 'I' for Inactive)
REMARK    1  A    between atoms: C_1  and  C_2
REMARK                            x       y       z     vdW  Elec       q    Type
REMARK                         _______ _______ _______ _____ _____    ______ ____
ROOT
ATOM      1  C   UNL     1       6.626   6.956  17.145  0.00  0.00    +0.000 C 
ATOM      2  C   UNL     1       5.836   5.998  18.022  0.00  0.00    +0.000 C 
ATOM      3  O   UNL     1       4.500   5.911  17.512  0.00  0.00    +0.000 OA
ATOM      4  C   UNL     1       3.778   4.846  18.027  0.00  0.00    +0.000 C 
ATOM      5  C   UNL     1       4.350   3.766  18.575  0.00  0.00    +0.000 C 
ATOM      6  N   UNL     1       5.719   3.642  18.602  0.00  0.00    +0.000 N 
ATOM      7  C   UNL     1       6.558   4.649  18.195  0.00  0.00    +0.000 C 
ATOM      8  O   UNL     1       7.770   4.486  18.101  0.00  0.00    +0.000 OA
ATOM      9  C   UNL     1       3.542   2.664  19.149  0.00  0.00    +0.000 C 
ATOM     10  O   UNL     1       4.093   1.683  19.640  0.00  0.00    +0.000 OA
ATOM     11  O   UNL     1       2.204   2.829  19.182  0.00  0.00    +0.000 OA
ATOM     12  C   UNL     1       1.510   3.777  18.355  0.00  0.00    +0.000 C 
ATOM     13  C   UNL     1       2.302   4.993  17.898  0.00  0.00    +0.000 C 
ATOM     14  H   UNL     1       6.125   2.755  18.887  0.00  0.00    +0.000 HD
ENDROOT
TORSDOF 0
ENDMDL
MODEL 9
REMARK VINA RESULT:      -6.2      2.207      4.267
REMARK  Name = 
REMARK  1 active torsions:
REMARK  status: ('A' for Active; 'I' for Inactive)
REMARK    1  A    between atoms: C_1  and  C_2
REMARK                            x       y       z     vdW  Elec       q    Type
REMARK                         _______ _______ _______ _____ _____    ______ ____
ROOT
ATOM      1  C   UNL     1       5.899   3.634  13.099  0.00  0.00    +0.000 C 
ATOM      2  C   UNL     1       5.909   4.503  14.345  0.00  0.00    +0.000 C 
ATOM      3  O   UNL     1       5.440   3.721  15.449  0.00  0.00    +0.000 OA
ATOM      4  C   UNL     1       5.694   4.296  16.685  0.00  0.00    +0.000 C 
ATOM      5  C   UNL     1       6.640   5.223  16.883  0.00  0.00    +0.000 C 
ATOM      6  N   UNL     1       7.458   5.615  15.850  0.00  0.00    +0.000 N 
ATOM      7  C   UNL     1       7.274   5.184  14.560  0.00  0.00    +0.000 C 
ATOM      8  O   UNL     1       8.080   5.434  13.670  0.00  0.00    +0.000 OA
ATOM      9  C   UNL     1       6.857   5.842  18.212  0.00  0.00    +0.000 C 
ATOM     10  O   UNL     1       7.735   6.685  18.368  0.00  0.00    +0.000 OA
ATOM     11  O   UNL     1       6.003   5.504  19.200  0.00  0.00    +0.000 OA
ATOM     12  C   UNL     1       5.190   4.319  19.162  0.00  0.00    +0.000 C 
ATOM     13  C   UNL     1       4.837   3.777  17.785  0.00  0.00    +0.000 C 
ATOM     14  H   UNL     1       8.259   6.206  16.056  0.00  0.00    +0.000 HD
ENDROOT
TORSDOF 0
ENDMDL
