MODEL 1
REMARK VINA RESULT:      -6.7      0.000      0.000
REMARK  Name = 
REMARK  13 active torsions:
REMARK  status: ('A' for Active; 'I' for Inactive)
REMARK    1  A    between atoms: C_1  and  N_2
REMARK    2  A    between atoms: C_3  and  N_4
REMARK    3  A    between atoms: C_9  and  S_10
REMARK    4  A    between atoms: S_10  and  C_11
REMARK    5  A    between atoms: C_11  and  C_12
REMARK    6  A    between atoms: C_12  and  C_13
REMARK    7  A    between atoms: C_13  and  C_14
REMARK    8  A    between atoms: C_14  and  C_15
REMARK    9  A    between atoms: C_15  and  C_16
REMARK   10  A    between atoms: C_16  and  C_17
REMARK   11  A    between atoms: C_17  and  O_18
REMARK   12  A    between atoms: O_18  and  C_19
REMARK   13  A    between atoms: C_24  and  N_25
REMARK                            x       y       z     vdW  Elec       q    Type
REMARK                         _______ _______ _______ _____ _____    ______ ____
ROOT
ATOM      1  C   UNL     1       2.217   6.326  20.170  0.00  0.00    +0.000 C 
ENDROOT
BRANCH   1   2
ATOM      2  C   UNL     1       2.257   4.883  20.677  0.00  0.00    +0.000 C 
BRANCH   2   3
ATOM      3  C   UNL     1       1.336   3.976  19.845  0.00  0.00    +0.000 C 
BRANCH   3   4
ATOM      4  C   UNL     1       2.105   2.781  19.278  0.00  0.00    +0.000 C 
BRANCH   4   5
ATOM      5  S   UNL     1       3.887   2.903  19.662  0.00  0.00    +0.000 S 
BRANCH   5  11
ATOM      6  C   UNL     1       6.018   5.236  19.391  0.00  0.00    +0.000 C 
ATOM      7  N   UNL     1       5.421   4.673  18.203  0.00  0.00    +0.000 N 
ATOM      8  C   UNL     1       5.620   4.983  16.877  0.00  0.00    +0.000 A 
ATOM      9  C   UNL     1       4.785   4.156  16.161  0.00  0.00    +0.000 A 
ATOM     10  N   UNL     1       4.080   3.342  17.000  0.00  0.00    +0.000 NA
ATOM     11  C   UNL     1       4.476   3.660  18.211  0.00  0.00    +0.000 A 
BRANCH   8  12
ATOM     12  N   UNL     1       6.511   5.952  16.332  0.00  0.00    +0.000 N 
ATOM     13  O   UNL     1       7.563   5.562  15.824  0.00  0.00    +0.000 OA
ATOM     14  O   UNL     1       6.154   7.131  16.416  0.00  0.00    +0.000 OA
ENDBRANCH   8  12
ENDBRANCH   5  11
ENDBRANCH   4   5
ENDBRANCH   3   4
ENDBRANCH   2   3
ENDBRANCH   1   2
BRANCH   1  15
ATOM     15  C   UNL     1       2.176   6.411  18.639  0.00  0.00    +0.000 C 
BRANCH  15  16
ATOM     16  C   UNL     1       2.917   7.642  18.086  0.00  0.00    +0.000 C 
BRANCH  16  17
ATOM     17  C   UNL     1       1.965   8.817  17.880  0.00  0.00    +0.000 C 
BRANCH  17  18
ATOM     18  O   UNL     1       1.434   9.302  19.120  0.00  0.00    +0.000 OA
BRANCH  18  19
ATOM     19  C   UNL     1       0.267  10.012  18.960  0.00  0.00    +0.000 A 
ATOM     20  C   UNL     1      -0.590   9.810  17.867  0.00  0.00    +0.000 A 
ATOM     21  C   UNL     1      -1.771  10.542  17.725  0.00  0.00    +0.000 A 
ATOM     22  C   UNL     1      -2.143  11.470  18.694  0.00  0.00    +0.000 A 
ATOM     23  C   UNL     1      -1.333  11.664  19.810  0.00  0.00    +0.000 A 
ATOM     24  C   UNL     1      -0.136  10.937  19.930  0.00  0.00    +0.000 A 
BRANCH  24  25
ATOM     25  N   UNL     1       0.696  11.213  21.082  0.00  0.00    +0.000 N 
ATOM     26  O   UNL     1       1.506  12.146  20.992  0.00  0.00    +0.000 OA
ATOM     27  O   UNL     1       0.473  10.551  22.107  0.00  0.00    +0.000 OA
ENDBRANCH  24  25
ENDBRANCH  18  19
ENDBRANCH  17  18
ENDBRANCH  16  17
ENDBRANCH  15  16
ENDBRANCH   1  15
TORSDOF 12
ENDMDL
MODEL 2
REMARK VINA RESULT:      -6.6      6.385      8.837
REMARK  Name = 
REMARK  13 active torsions:
REMARK  status: ('A' for Active; 'I' for Inactive)
REMARK    1  A    between atoms: C_1  and  N_2
REMARK    2  A    between atoms: C_3  and  N_4
REMARK    3  A    between atoms: C_9  and  S_10
REMARK    4  A    between atoms: S_10  and  C_11
REMARK    5  A    between atoms: C_11  and  C_12
REMARK    6  A    between atoms: C_12  and  C_13
REMARK    7  A    between atoms: C_13  and  C_14
REMARK    8  A    between atoms: C_14  and  C_15
REMARK    9  A    between atoms: C_15  and  C_16
REMARK   10  A    between atoms: C_16  and  C_17
REMARK   11  A    between atoms: C_17  and  O_18
REMARK   12  A    between atoms: O_18  and  C_19
REMARK   13  A    between atoms: C_24  and  N_25
REMARK                            x       y       z     vdW  Elec       q    Type
REMARK                         _______ _______ _______ _____ _____    ______ ____
ROOT
ATOM      1  C   UNL     1       7.213   6.690  17.989  0.00  0.00    +0.000 C 
ENDROOT
BRANCH   1   2
ATOM      2  C   UNL     1       7.630   8.080  17.506  0.00  0.00    +0.000 C 
BRANCH   2   3
ATOM      3  C   UNL     1       8.639   8.724  18.470  0.00  0.00    +0.000 C 
BRANCH   3   4
ATOM      4  C   UNL     1       8.631  10.249  18.339  0.00  0.00    +0.000 C 
BRANCH   4   5
ATOM      5  S   UNL     1       9.618  11.028  19.665  0.00  0.00    +0.000 S 
BRANCH   5  11
ATOM      6  C   UNL     1       9.240  14.169  19.444  0.00  0.00    +0.000 C 
ATOM      7  N   UNL     1      10.312  13.526  18.719  0.00  0.00    +0.000 N 
ATOM      8  C   UNL     1      11.270  14.062  17.890  0.00  0.00    +0.000 A 
ATOM      9  C   UNL     1      12.031  13.003  17.449  0.00  0.00    +0.000 A 
ATOM     10  N   UNL     1      11.577  11.830  17.982  0.00  0.00    +0.000 NA
ATOM     11  C   UNL     1      10.557  12.162  18.740  0.00  0.00    +0.000 A 
BRANCH   8  12
ATOM     12  N   UNL     1      11.462  15.432  17.550  0.00  0.00    +0.000 N 
ATOM     13  O   UNL     1      12.063  16.156  18.345  0.00  0.00    +0.000 OA
ATOM     14  O   UNL     1      10.997  15.795  16.465  0.00  0.00    +0.000 OA
ENDBRANCH   8  12
ENDBRANCH   5  11
ENDBRANCH   4   5
ENDBRANCH   3   4
ENDBRANCH   2   3
ENDBRANCH   1   2
BRANCH   1  15
ATOM     15  C   UNL     1       6.047   6.109  17.179  0.00  0.00    +0.000 C 
BRANCH  15  16
ATOM     16  C   UNL     1       5.960   4.575  17.267  0.00  0.00    +0.000 C 
BRANCH  16  17
ATOM     17  C   UNL     1       5.258   4.131  18.546  0.00  0.00    +0.000 C 
BRANCH  17  18
ATOM     18  O   UNL     1       4.154   3.257  18.278  0.00  0.00    +0.000 OA
BRANCH  18  19
ATOM     19  C   UNL     1       3.240   3.220  19.306  0.00  0.00    +0.000 A 
ATOM     20  C   UNL     1       3.477   2.512  20.495  0.00  0.00    +0.000 A 
ATOM     21  C   UNL     1       2.535   2.489  21.525  0.00  0.00    +0.000 A 
ATOM     22  C   UNL     1       1.347   3.204  21.407  0.00  0.00    +0.000 A 
ATOM     23  C   UNL     1       1.100   3.946  20.255  0.00  0.00    +0.000 A 
ATOM     24  C   UNL     1       2.047   3.944  19.216  0.00  0.00    +0.000 A 
BRANCH  24  25
ATOM     25  N   UNL     1       1.721   4.691  18.019  0.00  0.00    +0.000 N 
ATOM     26  O   UNL     1       2.261   5.796  17.869  0.00  0.00    +0.000 OA
ATOM     27  O   UNL     1       0.992   4.129  17.188  0.00  0.00    +0.000 OA
ENDBRANCH  24  25
ENDBRANCH  18  19
ENDBRANCH  17  18
ENDBRANCH  16  17
ENDBRANCH  15  16
ENDBRANCH   1  15
TORSDOF 12
ENDMDL
MODEL 3
REMARK VINA RESULT:      -6.3      6.885      9.931
REMARK  Name = 
REMARK  13 active torsions:
REMARK  status: ('A' for Active; 'I' for Inactive)
REMARK    1  A    between atoms: C_1  and  N_2
REMARK    2  A    between atoms: C_3  and  N_4
REMARK    3  A    between atoms: C_9  and  S_10
REMARK    4  A    between atoms: S_10  and  C_11
REMARK    5  A    between atoms: C_11  and  C_12
REMARK    6  A    between atoms: C_12  and  C_13
REMARK    7  A    between atoms: C_13  and  C_14
REMARK    8  A    between atoms: C_14  and  C_15
REMARK    9  A    between atoms: C_15  and  C_16
REMARK   10  A    between atoms: C_16  and  C_17
REMARK   11  A    between atoms: C_17  and  O_18
REMARK   12  A    between atoms: O_18  and  C_19
REMARK   13  A    between atoms: C_24  and  N_25
REMARK                            x       y       z     vdW  Elec       q    Type
REMARK                         _______ _______ _______ _____ _____    ______ ____
ROOT
ATOM      1  C   UNL     1       7.719   8.687  17.794  0.00  0.00    +0.000 C 
ENDROOT
BRANCH   1   2
ATOM      2  C   UNL     1       8.890   9.026  18.718  0.00  0.00    +0.000 C 
BRANCH   2   3
ATOM      3  C   UNL     1       9.035  10.546  18.894  0.00  0.00    +0.000 C 
BRANCH   3   4
ATOM      4  C   UNL     1      10.042  11.123  17.897  0.00  0.00    +0.000 C 
BRANCH   4   5
ATOM      5  S   UNL     1      11.393  12.001  18.759  0.00  0.00    +0.000 S 
BRANCH   5  11
ATOM      6  C   UNL     1       9.780  14.339  20.169  0.00  0.00    +0.000 C 
ATOM      7  N   UNL     1      10.415  14.578  18.894  0.00  0.00    +0.000 N 
ATOM      8  C   UNL     1      10.453  15.715  18.120  0.00  0.00    +0.000 A 
ATOM      9  C   UNL     1      11.177  15.389  16.995  0.00  0.00    +0.000 A 
ATOM     10  N   UNL     1      11.591  14.089  17.051  0.00  0.00    +0.000 NA
ATOM     11  C   UNL     1      11.133  13.624  18.191  0.00  0.00    +0.000 A 
BRANCH   8  12
ATOM     12  N   UNL     1       9.877  16.985  18.407  0.00  0.00    +0.000 N 
ATOM     13  O   UNL     1      10.585  17.846  18.931  0.00  0.00    +0.000 OA
ATOM     14  O   UNL     1       8.688  17.126  18.107  0.00  0.00    +0.000 OA
ENDBRANCH   8  12
ENDBRANCH   5  11
ENDBRANCH   4   5
ENDBRANCH   3   4
ENDBRANCH   2   3
ENDBRANCH   1   2
BRANCH   1  15
ATOM     15  C   UNL     1       7.607   7.182  17.513  0.00  0.00    +0.000 C 
BRANCH  15  16
ATOM     16  C   UNL     1       7.804   6.320  18.772  0.00  0.00    +0.000 C 
BRANCH  16  17
ATOM     17  C   UNL     1       6.502   5.645  19.192  0.00  0.00    +0.000 C 
BRANCH  17  18
ATOM     18  O   UNL     1       6.413   4.299  18.705  0.00  0.00    +0.000 OA
BRANCH  18  19
ATOM     19  C   UNL     1       5.115   3.885  18.514  0.00  0.00    +0.000 A 
ATOM     20  C   UNL     1       4.309   3.433  19.571  0.00  0.00    +0.000 A 
ATOM     21  C   UNL     1       2.994   3.018  19.355  0.00  0.00    +0.000 A 
ATOM     22  C   UNL     1       2.439   3.077  18.080  0.00  0.00    +0.000 A 
ATOM     23  C   UNL     1       3.201   3.557  17.018  0.00  0.00    +0.000 A 
ATOM     24  C   UNL     1       4.532   3.952  17.245  0.00  0.00    +0.000 A 
BRANCH  24  25
ATOM     25  N   UNL     1       5.297   4.395  16.099  0.00  0.00    +0.000 N 
ATOM     26  O   UNL     1       5.997   3.553  15.519  0.00  0.00    +0.000 OA
ATOM     27  O   UNL     1       5.126   5.566  15.728  0.00  0.00    +0.000 OA
ENDBRANCH  24  25
ENDBRANCH  18  19
ENDBRANCH  17  18
ENDBRANCH  16  17
ENDBRANCH  15  16
ENDBRANCH   1  15
TORSDOF 12
ENDMDL
MODEL 4
REMARK VINA RESULT:      -6.2      2.739      9.132
REMARK  Name = 
REMARK  13 active torsions:
REMARK  status: ('A' for Active; 'I' for Inactive)
REMARK    1  A    between atoms: C_1  and  N_2
REMARK    2  A    between atoms: C_3  and  N_4
REMARK    3  A    between atoms: C_9  and  S_10
REMARK    4  A    between atoms: S_10  and  C_11
REMARK    5  A    between atoms: C_11  and  C_12
REMARK    6  A    between atoms: C_12  and  C_13
REMARK    7  A    between atoms: C_13  and  C_14
REMARK    8  A    between atoms: C_14  and  C_15
REMARK    9  A    between atoms: C_15  and  C_16
REMARK   10  A    between atoms: C_16  and  C_17
REMARK   11  A    between atoms: C_17  and  O_18
REMARK   12  A    between atoms: O_18  and  C_19
REMARK   13  A    between atoms: C_24  and  N_25
REMARK                            x       y       z     vdW  Elec       q    Type
REMARK                         _______ _______ _______ _____ _____    ______ ____
ROOT
ATOM      1  C   UNL     1       3.052   6.779  18.395  0.00  0.00    +0.000 C 
ENDROOT
BRANCH   1   2
ATOM      2  C   UNL     1       2.077   7.680  17.635  0.00  0.00    +0.000 C 
BRANCH   2   3
ATOM      3  C   UNL     1       2.291   9.158  17.996  0.00  0.00    +0.000 C 
BRANCH   3   4
ATOM      4  C   UNL     1       1.000   9.790  18.521  0.00  0.00    +0.000 C 
BRANCH   4   5
ATOM      5  S   UNL     1       0.820   9.523  20.320  0.00  0.00    +0.000 S 
BRANCH   5  11
ATOM      6  C   UNL     1      -0.559  10.096  23.117  0.00  0.00    +0.000 C 
ATOM      7  N   UNL     1      -0.917  10.894  21.968  0.00  0.00    +0.000 N 
ATOM      8  C   UNL     1      -1.812  11.934  21.853  0.00  0.00    +0.000 A 
ATOM      9  C   UNL     1      -1.778  12.323  20.533  0.00  0.00    +0.000 A 
ATOM     10  N   UNL     1      -0.890  11.561  19.829  0.00  0.00    +0.000 NA
ATOM     11  C   UNL     1      -0.382  10.720  20.702  0.00  0.00    +0.000 A 
BRANCH   8  12
ATOM     12  N   UNL     1      -2.612  12.513  22.878  0.00  0.00    +0.000 N 
ATOM     13  O   UNL     1      -3.811  12.233  22.916  0.00  0.00    +0.000 OA
ATOM     14  O   UNL     1      -2.031  13.269  23.663  0.00  0.00    +0.000 OA
ENDBRANCH   8  12
ENDBRANCH   5  11
ENDBRANCH   4   5
ENDBRANCH   3   4
ENDBRANCH   2   3
ENDBRANCH   1   2
BRANCH   1  15
ATOM     15  C   UNL     1       2.461   5.396  18.701  0.00  0.00    +0.000 C 
BRANCH  15  16
ATOM     16  C   UNL     1       2.782   4.353  17.616  0.00  0.00    +0.000 C 
BRANCH  16  17
ATOM     17  C   UNL     1       4.061   3.588  17.942  0.00  0.00    +0.000 C 
BRANCH  17  18
ATOM     18  O   UNL     1       5.126   3.913  17.038  0.00  0.00    +0.000 OA
BRANCH  18  19
ATOM     19  C   UNL     1       6.014   4.823  17.563  0.00  0.00    +0.000 A 
ATOM     20  C   UNL     1       6.506   4.720  18.874  0.00  0.00    +0.000 A 
ATOM     21  C   UNL     1       7.407   5.655  19.386  0.00  0.00    +0.000 A 
ATOM     22  C   UNL     1       7.868   6.698  18.588  0.00  0.00    +0.000 A 
ATOM     23  C   UNL     1       7.428   6.804  17.271  0.00  0.00    +0.000 A 
ATOM     24  C   UNL     1       6.503   5.868  16.774  0.00  0.00    +0.000 A 
BRANCH  24  25
ATOM     25  N   UNL     1       6.038   6.053  15.415  0.00  0.00    +0.000 N 
ATOM     26  O   UNL     1       6.601   5.400  14.525  0.00  0.00    +0.000 OA
ATOM     27  O   UNL     1       5.051   6.785  15.254  0.00  0.00    +0.000 OA
ENDBRANCH  24  25
ENDBRANCH  18  19
ENDBRANCH  17  18
ENDBRANCH  16  17
ENDBRANCH  15  16
ENDBRANCH   1  15
TORSDOF 12
ENDMDL
MODEL 5
REMARK VINA RESULT:      -6.2      6.637      9.195
REMARK  Name = 
REMARK  13 active torsions:
REMARK  status: ('A' for Active; 'I' for Inactive)
REMARK    1  A    between atoms: C_1  and  N_2
REMARK    2  A    between atoms: C_3  and  N_4
REMARK    3  A    between atoms: C_9  and  S_10
REMARK    4  A    between atoms: S_10  and  C_11
REMARK    5  A    between atoms: C_11  and  C_12
REMARK    6  A    between atoms: C_12  and  C_13
REMARK    7  A    between atoms: C_13  and  C_14
REMARK    8  A    between atoms: C_14  and  C_15
REMARK    9  A    between atoms: C_15  and  C_16
REMARK   10  A    between atoms: C_16  and  C_17
REMARK   11  A    between atoms: C_17  and  O_18
REMARK   12  A    between atoms: O_18  and  C_19
REMARK   13  A    between atoms: C_24  and  N_25
REMARK                            x       y       z     vdW  Elec       q    Type
REMARK                         _______ _______ _______ _____ _____    ______ ____
ROOT
ATOM      1  C   UNL     1       7.821   7.421  17.398  0.00  0.00    +0.000 C 
ENDROOT
BRANCH   1   2
ATOM      2  C   UNL     1       7.641   8.893  17.776  0.00  0.00    +0.000 C 
BRANCH   2   3
ATOM      3  C   UNL     1       8.788   9.379  18.675  0.00  0.00    +0.000 C 
BRANCH   3   4
ATOM      4  C   UNL     1       9.282  10.761  18.240  0.00  0.00    +0.000 C 
BRANCH   4   5
ATOM      5  S   UNL     1       9.491  11.868  19.678  0.00  0.00    +0.000 S 
BRANCH   5  11
ATOM      6  C   UNL     1      11.678  14.031  18.905  0.00  0.00    +0.000 C 
ATOM      7  N   UNL     1      10.286  14.290  18.621  0.00  0.00    +0.000 N 
ATOM      8  C   UNL     1       9.688  15.382  18.034  0.00  0.00    +0.000 A 
ATOM      9  C   UNL     1       8.337  15.119  18.025  0.00  0.00    +0.000 A 
ATOM     10  N   UNL     1       8.080  13.899  18.583  0.00  0.00    +0.000 NA
ATOM     11  C   UNL     1       9.253  13.418  18.926  0.00  0.00    +0.000 A 
BRANCH   8  12
ATOM     12  N   UNL     1      10.318  16.552  17.523  0.00  0.00    +0.000 N 
ATOM     13  O   UNL     1      10.948  16.467  16.468  0.00  0.00    +0.000 OA
ATOM     14  O   UNL     1      10.186  17.581  18.194  0.00  0.00    +0.000 OA
ENDBRANCH   8  12
ENDBRANCH   5  11
ENDBRANCH   4   5
ENDBRANCH   3   4
ENDBRANCH   2   3
ENDBRANCH   1   2
BRANCH   1  15
ATOM     15  C   UNL     1       6.539   6.601  17.593  0.00  0.00    +0.000 C 
BRANCH  15  16
ATOM     16  C   UNL     1       6.816   5.129  17.950  0.00  0.00    +0.000 C 
BRANCH  16  17
ATOM     17  C   UNL     1       5.646   4.512  18.709  0.00  0.00    +0.000 C 
BRANCH  17  18
ATOM     18  O   UNL     1       4.393   4.756  18.055  0.00  0.00    +0.000 OA
BRANCH  18  19
ATOM     19  C   UNL     1       3.314   4.599  18.893  0.00  0.00    +0.000 A 
ATOM     20  C   UNL     1       2.926   5.589  19.810  0.00  0.00    +0.000 A 
ATOM     21  C   UNL     1       1.826   5.408  20.651  0.00  0.00    +0.000 A 
ATOM     22  C   UNL     1       1.062   4.248  20.570  0.00  0.00    +0.000 A 
ATOM     23  C   UNL     1       1.398   3.265  19.642  0.00  0.00    +0.000 A 
ATOM     24  C   UNL     1       2.522   3.449  18.817  0.00  0.00    +0.000 A 
BRANCH  24  25
ATOM     25  N   UNL     1       2.858   2.375  17.906  0.00  0.00    +0.000 N 
ATOM     26  O   UNL     1       3.510   1.423  18.359  0.00  0.00    +0.000 OA
ATOM     27  O   UNL     1       2.392   2.446  16.759  0.00  0.00    +0.000 OA
ENDBRANCH  24  25
ENDBRANCH  18  19
ENDBRANCH  17  18
ENDBRANCH  16  17
ENDBRANCH  15  16
ENDBRANCH   1  15
TORSDOF 12
ENDMDL
MODEL 6
REMARK VINA RESULT:      -6.2      1.611      2.213
REMARK  Name = 
REMARK  13 active torsions:
REMARK  status: ('A' for Active; 'I' for Inactive)
REMARK    1  A    between atoms: C_1  and  N_2
REMARK    2  A    between atoms: C_3  and  N_4
REMARK    3  A    between atoms: C_9  and  S_10
REMARK    4  A    between atoms: S_10  and  C_11
REMARK    5  A    between atoms: C_11  and  C_12
REMARK    6  A    between atoms: C_12  and  C_13
REMARK    7  A    between atoms: C_13  and  C_14
REMARK    8  A    between atoms: C_14  and  C_15
REMARK    9  A    between atoms: C_15  and  C_16
REMARK   10  A    between atoms: C_16  and  C_17
REMARK   11  A    between atoms: C_17  and  O_18
REMARK   12  A    between atoms: O_18  and  C_19
REMARK   13  A    between atoms: C_24  and  N_25
REMARK                            x       y       z     vdW  Elec       q    Type
REMARK                         _______ _______ _______ _____ _____    ______ ____
ROOT
ATOM      1  C   UNL     1       1.271   4.926  19.481  0.00  0.00    +0.000 C 
ENDROOT
BRANCH   1   2
ATOM      2  C   UNL     1       0.984   3.426  19.406  0.00  0.00    +0.000 C 
BRANCH   2   3
ATOM      3  C   UNL     1       1.872   2.642  20.386  0.00  0.00    +0.000 C 
BRANCH   3   4
ATOM      4  C   UNL     1       3.179   3.388  20.664  0.00  0.00    +0.000 C 
BRANCH   4   5
ATOM      5  S   UNL     1       4.605   2.514  19.927  0.00  0.00    +0.000 S 
BRANCH   5  11
ATOM      6  C   UNL     1       6.296   5.141  19.384  0.00  0.00    +0.000 C 
ATOM      7  N   UNL     1       5.557   4.532  18.303  0.00  0.00    +0.000 N 
ATOM      8  C   UNL     1       5.441   4.908  16.984  0.00  0.00    +0.000 A 
ATOM      9  C   UNL     1       4.602   3.989  16.397  0.00  0.00    +0.000 A 
ATOM     10  N   UNL     1       4.197   3.056  17.308  0.00  0.00    +0.000 NA
ATOM     11  C   UNL     1       4.781   3.392  18.436  0.00  0.00    +0.000 A 
BRANCH   8  12
ATOM     12  N   UNL     1       6.063   6.012  16.334  0.00  0.00    +0.000 N 
ATOM     13  O   UNL     1       7.289   6.009  16.214  0.00  0.00    +0.000 OA
ATOM     14  O   UNL     1       5.310   6.907  15.937  0.00  0.00    +0.000 OA
ENDBRANCH   8  12
ENDBRANCH   5  11
ENDBRANCH   4   5
ENDBRANCH   3   4
ENDBRANCH   2   3
ENDBRANCH   1   2
BRANCH   1  15
ATOM     15  C   UNL     1       1.737   5.505  18.139  0.00  0.00    +0.000 C 
BRANCH  15  16
ATOM     16  C   UNL     1       2.534   6.813  18.294  0.00  0.00    +0.000 C 
BRANCH  16  17
ATOM     17  C   UNL     1       2.184   7.525  19.597  0.00  0.00    +0.000 C 
BRANCH  17  18
ATOM     18  O   UNL     1       1.611   8.819  19.365  0.00  0.00    +0.000 OA
BRANCH  18  19
ATOM     19  C   UNL     1       0.915   9.297  20.451  0.00  0.00    +0.000 A 
ATOM     20  C   UNL     1       1.117   8.800  21.749  0.00  0.00    +0.000 A 
ATOM     21  C   UNL     1       0.400   9.301  22.837  0.00  0.00    +0.000 A 
ATOM     22  C   UNL     1      -0.511  10.339  22.661  0.00  0.00    +0.000 A 
ATOM     23  C   UNL     1      -0.705  10.878  21.392  0.00  0.00    +0.000 A 
ATOM     24  C   UNL     1       0.007  10.350  20.301  0.00  0.00    +0.000 A 
BRANCH  24  25
ATOM     25  N   UNL     1      -0.267  10.912  18.995  0.00  0.00    +0.000 N 
ATOM     26  O   UNL     1       0.387  11.907  18.652  0.00  0.00    +0.000 OA
ATOM     27  O   UNL     1      -1.075  10.301  18.280  0.00  0.00    +0.000 OA
ENDBRANCH  24  25
ENDBRANCH  18  19
ENDBRANCH  17  18
ENDBRANCH  16  17
ENDBRANCH  15  16
ENDBRANCH   1  15
TORSDOF 12
ENDMDL
MODEL 7
REMARK VINA RESULT:      -6.1      5.718      7.438
REMARK  Name = 
REMARK  13 active torsions:
REMARK  status: ('A' for Active; 'I' for Inactive)
REMARK    1  A    between atoms: C_1  and  N_2
REMARK    2  A    between atoms: C_3  and  N_4
REMARK    3  A    between atoms: C_9  and  S_10
REMARK    4  A    between atoms: S_10  and  C_11
REMARK    5  A    between atoms: C_11  and  C_12
REMARK    6  A    between atoms: C_12  and  C_13
REMARK    7  A    between atoms: C_13  and  C_14
REMARK    8  A    between atoms: C_14  and  C_15
REMARK    9  A    between atoms: C_15  and  C_16
REMARK   10  A    between atoms: C_16  and  C_17
REMARK   11  A    between atoms: C_17  and  O_18
REMARK   12  A    between atoms: O_18  and  C_19
REMARK   13  A    between atoms: C_24  and  N_25
REMARK                            x       y       z     vdW  Elec       q    Type
REMARK                         _______ _______ _______ _____ _____    ______ ____
ROOT
ATOM      1  C   UNL     1       7.846   6.408  18.606  0.00  0.00    +0.000 C 
ENDROOT
BRANCH   1   2
ATOM      2  C   UNL     1       7.246   5.258  17.795  0.00  0.00    +0.000 C 
BRANCH   2   3
ATOM      3  C   UNL     1       6.968   5.687  16.346  0.00  0.00    +0.000 C 
BRANCH   3   4
ATOM      4  C   UNL     1       5.489   5.514  15.994  0.00  0.00    +0.000 C 
BRANCH   4   5
ATOM      5  S   UNL     1       4.417   6.085  17.360  0.00  0.00    +0.000 S 
BRANCH   5  11
ATOM      6  C   UNL     1       2.221   5.603  19.596  0.00  0.00    +0.000 C 
ATOM      7  N   UNL     1       2.609   4.514  18.730  0.00  0.00    +0.000 N 
ATOM      8  C   UNL     1       2.171   3.210  18.693  0.00  0.00    +0.000 A 
ATOM      9  C   UNL     1       2.884   2.595  17.689  0.00  0.00    +0.000 A 
ATOM     10  N   UNL     1       3.746   3.477  17.102  0.00  0.00    +0.000 NA
ATOM     11  C   UNL     1       3.563   4.616  17.731  0.00  0.00    +0.000 A 
BRANCH   8  12
ATOM     12  N   UNL     1       1.176   2.600  19.509  0.00  0.00    +0.000 N 
ATOM     13  O   UNL     1       0.126   2.234  18.981  0.00  0.00    +0.000 OA
ATOM     14  O   UNL     1       1.448   2.488  20.709  0.00  0.00    +0.000 OA
ENDBRANCH   8  12
ENDBRANCH   5  11
ENDBRANCH   4   5
ENDBRANCH   3   4
ENDBRANCH   2   3
ENDBRANCH   1   2
BRANCH   1  15
ATOM     15  C   UNL     1       7.871   7.729  17.827  0.00  0.00    +0.000 C 
BRANCH  15  16
ATOM     16  C   UNL     1       8.642   8.843  18.557  0.00  0.00    +0.000 C 
BRANCH  16  17
ATOM     17  C   UNL     1       8.499  10.181  17.837  0.00  0.00    +0.000 C 
BRANCH  17  18
ATOM     18  O   UNL     1       9.545  11.095  18.191  0.00  0.00    +0.000 OA
BRANCH  18  19
ATOM     19  C   UNL     1       9.085  12.373  18.410  0.00  0.00    +0.000 A 
ATOM     20  C   UNL     1       8.142  12.985  17.570  0.00  0.00    +0.000 A 
ATOM     21  C   UNL     1       7.689  14.284  17.812  0.00  0.00    +0.000 A 
ATOM     22  C   UNL     1       8.140  14.990  18.922  0.00  0.00    +0.000 A 
ATOM     23  C   UNL     1       9.047  14.395  19.796  0.00  0.00    +0.000 A 
ATOM     24  C   UNL     1       9.512  13.095  19.529  0.00  0.00    +0.000 A 
BRANCH  24  25
ATOM     25  N   UNL     1      10.492  12.542  20.440  0.00  0.00    +0.000 N 
ATOM     26  O   UNL     1      10.071  11.991  21.467  0.00  0.00    +0.000 OA
ATOM     27  O   UNL     1      11.678  12.581  20.080  0.00  0.00    +0.000 OA
ENDBRANCH  24  25
ENDBRANCH  18  19
ENDBRANCH  17  18
ENDBRANCH  16  17
ENDBRANCH  15  16
ENDBRANCH   1  15
TORSDOF 12
ENDMDL
MODEL 8
REMARK VINA RESULT:      -6.1      3.933      9.007
REMARK  Name = 
REMARK  13 active torsions:
REMARK  status: ('A' for Active; 'I' for Inactive)
REMARK    1  A    between atoms: C_1  and  N_2
REMARK    2  A    between atoms: C_3  and  N_4
REMARK    3  A    between atoms: C_9  and  S_10
REMARK    4  A    between atoms: S_10  and  C_11
REMARK    5  A    between atoms: C_11  and  C_12
REMARK    6  A    between atoms: C_12  and  C_13
REMARK    7  A    between atoms: C_13  and  C_14
REMARK    8  A    between atoms: C_14  and  C_15
REMARK    9  A    between atoms: C_15  and  C_16
REMARK   10  A    between atoms: C_16  and  C_17
REMARK   11  A    between atoms: C_17  and  O_18
REMARK   12  A    between atoms: O_18  and  C_19
REMARK   13  A    between atoms: C_24  and  N_25
REMARK                            x       y       z     vdW  Elec       q    Type
REMARK                         _______ _______ _______ _____ _____    ______ ____
ROOT
ATOM      1  C   UNL     1       2.525   6.474  18.024  0.00  0.00    +0.000 C 
ENDROOT
BRANCH   1   2
ATOM      2  C   UNL     1       2.588   7.798  18.788  0.00  0.00    +0.000 C 
BRANCH   2   3
ATOM      3  C   UNL     1       2.172   8.976  17.892  0.00  0.00    +0.000 C 
BRANCH   3   4
ATOM      4  C   UNL     1       0.650   9.055  17.758  0.00  0.00    +0.000 C 
BRANCH   4   5
ATOM      5  S   UNL     1      -0.005  10.553  18.574  0.00  0.00    +0.000 S 
BRANCH   5  11
ATOM      6  C   UNL     1      -2.489  12.226  19.618  0.00  0.00    +0.000 C 
ATOM      7  N   UNL     1      -2.644  11.353  18.477  0.00  0.00    +0.000 N 
ATOM      8  C   UNL     1      -3.752  11.094  17.702  0.00  0.00    +0.000 A 
ATOM      9  C   UNL     1      -3.352  10.173  16.761  0.00  0.00    +0.000 A 
ATOM     10  N   UNL     1      -2.034   9.857  16.926  0.00  0.00    +0.000 NA
ATOM     11  C   UNL     1      -1.628  10.574  17.949  0.00  0.00    +0.000 A 
BRANCH   8  12
ATOM     12  N   UNL     1      -5.053  11.659  17.823  0.00  0.00    +0.000 N 
ATOM     13  O   UNL     1      -5.728  11.373  18.813  0.00  0.00    +0.000 OA
ATOM     14  O   UNL     1      -5.412  12.405  16.907  0.00  0.00    +0.000 OA
ENDBRANCH   8  12
ENDBRANCH   5  11
ENDBRANCH   4   5
ENDBRANCH   3   4
ENDBRANCH   2   3
ENDBRANCH   1   2
BRANCH   1  15
ATOM     15  C   UNL     1       3.816   5.655  18.157  0.00  0.00    +0.000 C 
BRANCH  15  16
ATOM     16  C   UNL     1       4.111   4.793  16.916  0.00  0.00    +0.000 C 
BRANCH  16  17
ATOM     17  C   UNL     1       3.099   3.659  16.775  0.00  0.00    +0.000 C 
BRANCH  17  18
ATOM     18  O   UNL     1       3.357   2.592  17.697  0.00  0.00    +0.000 OA
BRANCH  18  19
ATOM     19  C   UNL     1       2.659   2.722  18.875  0.00  0.00    +0.000 A 
ATOM     20  C   UNL     1       1.269   2.914  18.905  0.00  0.00    +0.000 A 
ATOM     21  C   UNL     1       0.581   3.044  20.113  0.00  0.00    +0.000 A 
ATOM     22  C   UNL     1       1.261   2.947  21.324  0.00  0.00    +0.000 A 
ATOM     23  C   UNL     1       2.635   2.718  21.326  0.00  0.00    +0.000 A 
ATOM     24  C   UNL     1       3.320   2.611  20.103  0.00  0.00    +0.000 A 
BRANCH  24  25
ATOM     25  N   UNL     1       4.754   2.424  20.160  0.00  0.00    +0.000 N 
ATOM     26  O   UNL     1       5.174   1.379  20.676  0.00  0.00    +0.000 OA
ATOM     27  O   UNL     1       5.455   3.285  19.607  0.00  0.00    +0.000 OA
ENDBRANCH  24  25
ENDBRANCH  18  19
ENDBRANCH  17  18
ENDBRANCH  16  17
ENDBRANCH  15  16
ENDBRANCH   1  15
TORSDOF 12
ENDMDL
MODEL 9
REMARK VINA RESULT:      -6.1      2.239      7.477
REMARK  Name = 
REMARK  13 active torsions:
REMARK  status: ('A' for Active; 'I' for Inactive)
REMARK    1  A    between atoms: C_1  and  N_2
REMARK    2  A    between atoms: C_3  and  N_4
REMARK    3  A    between atoms: C_9  and  S_10
REMARK    4  A    between atoms: S_10  and  C_11
REMARK    5  A    between atoms: C_11  and  C_12
REMARK    6  A    between atoms: C_12  and  C_13
REMARK    7  A    between atoms: C_13  and  C_14
REMARK    8  A    between atoms: C_14  and  C_15
REMARK    9  A    between atoms: C_15  and  C_16
REMARK   10  A    between atoms: C_16  and  C_17
REMARK   11  A    between atoms: C_17  and  O_18
REMARK   12  A    between atoms: O_18  and  C_19
REMARK   13  A    between atoms: C_24  and  N_25
REMARK                            x       y       z     vdW  Elec       q    Type
REMARK                         _______ _______ _______ _____ _____    ______ ____
ROOT
ATOM      1  C   UNL     1       3.588   2.450  20.373  0.00  0.00    +0.000 C 
ENDROOT
BRANCH   1   2
ATOM      2  C   UNL     1       3.171   3.896  20.645  0.00  0.00    +0.000 C 
BRANCH   2   3
ATOM      3  C   UNL     1       1.665   3.994  20.937  0.00  0.00    +0.000 C 
BRANCH   3   4
ATOM      4  C   UNL     1       1.095   5.328  20.451  0.00  0.00    +0.000 C 
BRANCH   4   5
ATOM      5  S   UNL     1       2.410   6.394  19.763  0.00  0.00    +0.000 S 
BRANCH   5  11
ATOM      6  C   UNL     1       2.008   8.797  17.733  0.00  0.00    +0.000 C 
ATOM      7  N   UNL     1       1.601   8.950  19.110  0.00  0.00    +0.000 N 
ATOM      8  C   UNL     1       1.030  10.025  19.752  0.00  0.00    +0.000 A 
ATOM      9  C   UNL     1       0.866   9.643  21.065  0.00  0.00    +0.000 A 
ATOM     10  N   UNL     1       1.313   8.367  21.254  0.00  0.00    +0.000 NA
ATOM     11  C   UNL     1       1.741   7.968  20.077  0.00  0.00    +0.000 A 
BRANCH   8  12
ATOM     12  N   UNL     1       0.665  11.282  19.193  0.00  0.00    +0.000 N 
ATOM     13  O   UNL     1       1.548  12.118  18.998  0.00  0.00    +0.000 OA
ATOM     14  O   UNL     1      -0.535  11.442  18.944  0.00  0.00    +0.000 OA
ENDBRANCH   8  12
ENDBRANCH   5  11
ENDBRANCH   4   5
ENDBRANCH   3   4
ENDBRANCH   2   3
ENDBRANCH   1   2
BRANCH   1  15
ATOM     15  C   UNL     1       4.021   2.225  18.918  0.00  0.00    +0.000 C 
BRANCH  15  16
ATOM     16  C   UNL     1       3.120   2.953  17.904  0.00  0.00    +0.000 C 
BRANCH  16  17
ATOM     17  C   UNL     1       3.853   4.117  17.245  0.00  0.00    +0.000 C 
BRANCH  17  18
ATOM     18  O   UNL     1       5.238   3.821  17.021  0.00  0.00    +0.000 OA
BRANCH  18  19
ATOM     19  C   UNL     1       6.079   4.785  17.527  0.00  0.00    +0.000 A 
ATOM     20  C   UNL     1       6.580   4.730  18.837  0.00  0.00    +0.000 A 
ATOM     21  C   UNL     1       7.433   5.719  19.330  0.00  0.00    +0.000 A 
ATOM     22  C   UNL     1       7.838   6.769  18.512  0.00  0.00    +0.000 A 
ATOM     23  C   UNL     1       7.389   6.830  17.195  0.00  0.00    +0.000 A 
ATOM     24  C   UNL     1       6.513   5.840  16.718  0.00  0.00    +0.000 A 
BRANCH  24  25
ATOM     25  N   UNL     1       6.036   5.977  15.357  0.00  0.00    +0.000 N 
ATOM     26  O   UNL     1       5.111   6.777  15.154  0.00  0.00    +0.000 OA
ATOM     27  O   UNL     1       6.648   5.347  14.482  0.00  0.00    +0.000 OA
ENDBRANCH  24  25
ENDBRANCH  18  19
ENDBRANCH  17  18
ENDBRANCH  16  17
ENDBRANCH  15  16
ENDBRANCH   1  15
TORSDOF 12
ENDMDL
