MODEL 1
REMARK VINA RESULT:      -6.4      0.000      0.000
REMARK  Name = 
REMARK  11 active torsions:
REMARK  status: ('A' for Active; 'I' for Inactive)
REMARK    1  A    between atoms: C_1  and  C_2
REMARK    2  A    between atoms: C_5  and  S_6
REMARK    3  A    between atoms: S_6  and  C_7
REMARK    4  A    between atoms: C_7  and  C_8
REMARK    5  A    between atoms: C_8  and  N_9
REMARK    6  A    between atoms: N_9  and  C_10
REMARK    7  A    between atoms: N_9  and  C_11
REMARK    8  A    between atoms: N_9  and  C_12
REMARK    9  A    between atoms: C_21  and  C_22
REMARK   10  A    between atoms: C_23  and  C_24
REMARK   11  A    between atoms: C_32  and  O_33
REMARK                            x       y       z     vdW  Elec       q    Type
REMARK                         _______ _______ _______ _____ _____    ______ ____
ROOT
ATOM      1  C   UNL     1       0.043  13.837  18.625  0.00  0.00    +0.000 C 
ATOM      2  C   UNL     1      -0.122  12.521  19.435  0.00  0.00    +0.000 C 
ATOM      3  C   UNL     1       1.311  11.965  19.655  0.00  0.00    +0.000 C 
ATOM      4  C   UNL     1       1.332  10.554  20.236  0.00  0.00    +0.000 C 
ATOM      5  C   UNL     1       0.561   9.551  19.374  0.00  0.00    +0.000 C 
ATOM      6  C   UNL     1      -0.872  10.055  19.156  0.00  0.00    +0.000 C 
ATOM      7  C   UNL     1      -0.940  11.494  18.584  0.00  0.00    +0.000 C 
ATOM      8  C   UNL     1      -2.403  11.919  18.403  0.00  0.00    +0.000 C 
ATOM      9  C   UNL     1      -3.102  12.227  19.721  0.00  0.00    +0.000 C 
ATOM     10  C   UNL     1      -2.320  13.254  20.565  0.00  0.00    +0.000 C 
ATOM     11  C   UNL     1      -0.864  12.779  20.801  0.00  0.00    +0.000 C 
ATOM     12  C   UNL     1      -0.086  13.715  21.748  0.00  0.00    +0.000 C 
ATOM     13  C   UNL     1      -0.846  13.994  23.043  0.00  0.00    +0.000 C 
ATOM     14  C   UNL     1      -2.257  14.589  22.777  0.00  0.00    +0.000 C 
ATOM     15  C   UNL     1      -2.024  15.993  22.188  0.00  0.00    +0.000 C 
ATOM     16  C   UNL     1      -3.083  14.559  24.109  0.00  0.00    +0.000 C 
ATOM     17  C   UNL     1      -3.738  13.149  24.137  0.00  0.00    +0.000 C 
ATOM     18  C   UNL     1      -3.426  12.473  22.797  0.00  0.00    +0.000 C 
ATOM     19  C   UNL     1      -3.066  13.632  21.857  0.00  0.00    +0.000 C 
ENDROOT
BRANCH  16  20
ATOM     20  C   UNL     1      -4.100  15.649  24.375  0.00  0.00    +0.000 C 
ATOM     21  C   UNL     1      -3.863  16.741  25.117  0.00  0.00    +0.000 C 
ATOM     22  C   UNL     1      -5.097  17.522  25.152  0.00  0.00    +0.000 C 
ATOM     23  O   UNL     1      -5.213  18.593  25.705  0.00  0.00    +0.000 OA
ATOM     24  O   UNL     1      -6.065  16.867  24.476  0.00  0.00    +0.000 OA
ATOM     25  C   UNL     1      -5.508  15.687  23.895  0.00  0.00    +0.000 C 
ENDBRANCH  16  20
BRANCH  19  26
ATOM     26  O   UNL     1      -4.286  14.270  21.467  0.00  0.00    +0.000 OA
ATOM     27  H   UNL     1      -4.632  14.772  22.226  0.00  0.00    +0.000 HD
ENDBRANCH  19  26
BRANCH   5  28
ATOM     28  S   UNL     1       1.316   9.227  17.717  0.00  0.00    +0.000 S 
BRANCH  28  29
ATOM     29  C   UNL     1       2.766   8.253  18.193  0.00  0.00    +0.000 C 
BRANCH  29  30
ATOM     30  C   UNL     1       2.315   7.010  18.974  0.00  0.00    +0.000 C 
BRANCH  30  31
ATOM     31  N   UNL     1       2.993   5.703  18.491  0.00  0.00    +0.000 N 
ATOM     32  C   UNL     1       1.974   4.719  17.926  0.00  0.00    +0.000 C 
ATOM     33  C   UNL     1       4.064   5.997  17.449  0.00  0.00    +0.000 C 
ATOM     34  C   UNL     1       3.664   5.047  19.703  0.00  0.00    +0.000 C 
ENDBRANCH  30  31
ENDBRANCH  29  30
ENDBRANCH  28  29
ENDBRANCH   5  28
TORSDOF 6
ENDMDL
MODEL 2
REMARK VINA RESULT:      -6.3      0.844      1.411
REMARK  Name = 
REMARK  11 active torsions:
REMARK  status: ('A' for Active; 'I' for Inactive)
REMARK    1  A    between atoms: C_1  and  C_2
REMARK    2  A    between atoms: C_5  and  S_6
REMARK    3  A    between atoms: S_6  and  C_7
REMARK    4  A    between atoms: C_7  and  C_8
REMARK    5  A    between atoms: C_8  and  N_9
REMARK    6  A    between atoms: N_9  and  C_10
REMARK    7  A    between atoms: N_9  and  C_11
REMARK    8  A    between atoms: N_9  and  C_12
REMARK    9  A    between atoms: C_21  and  C_22
REMARK   10  A    between atoms: C_23  and  C_24
REMARK   11  A    between atoms: C_32  and  O_33
REMARK                            x       y       z     vdW  Elec       q    Type
REMARK                         _______ _______ _______ _____ _____    ______ ____
ROOT
ATOM      1  C   UNL     1       0.359  13.809  19.330  0.00  0.00    +0.000 C 
ATOM      2  C   UNL     1      -0.046  12.496  20.056  0.00  0.00    +0.000 C 
ATOM      3  C   UNL     1       1.274  11.869  20.586  0.00  0.00    +0.000 C 
ATOM      4  C   UNL     1       1.098  10.455  21.130  0.00  0.00    +0.000 C 
ATOM      5  C   UNL     1       0.499   9.497  20.095  0.00  0.00    +0.000 C 
ATOM      6  C   UNL     1      -0.822  10.071  19.567  0.00  0.00    +0.000 C 
ATOM      7  C   UNL     1      -0.692  11.516  19.022  0.00  0.00    +0.000 C 
ATOM      8  C   UNL     1      -2.055  12.013  18.520  0.00  0.00    +0.000 C 
ATOM      9  C   UNL     1      -3.022  12.343  19.650  0.00  0.00    +0.000 C 
ATOM     10  C   UNL     1      -2.408  13.324  20.669  0.00  0.00    +0.000 C 
ATOM     11  C   UNL     1      -1.067  12.778  21.222  0.00  0.00    +0.000 C 
ATOM     12  C   UNL     1      -0.485  13.667  22.339  0.00  0.00    +0.000 C 
ATOM     13  C   UNL     1      -1.507  13.971  23.432  0.00  0.00    +0.000 C 
ATOM     14  C   UNL     1      -2.791  14.636  22.863  0.00  0.00    +0.000 C 
ATOM     15  C   UNL     1      -2.367  16.033  22.370  0.00  0.00    +0.000 C 
ATOM     16  C   UNL     1      -3.900  14.635  23.971  0.00  0.00    +0.000 C 
ATOM     17  C   UNL     1      -4.607  13.258  23.822  0.00  0.00    +0.000 C 
ATOM     18  C   UNL     1      -4.028  12.579  22.575  0.00  0.00    +0.000 C 
ATOM     19  C   UNL     1      -3.411  13.727  21.765  0.00  0.00    +0.000 C 
ENDROOT
BRANCH  16  20
ATOM     20  C   UNL     1      -4.902  15.771  24.019  0.00  0.00    +0.000 C 
ATOM     21  C   UNL     1      -6.069  15.779  23.358  0.00  0.00    +0.000 C 
ATOM     22  C   UNL     1      -6.724  17.054  23.642  0.00  0.00    +0.000 C 
ATOM     23  O   UNL     1      -7.819  17.366  23.232  0.00  0.00    +0.000 OA
ATOM     24  O   UNL     1      -5.922  17.807  24.426  0.00  0.00    +0.000 OA
ATOM     25  C   UNL     1      -4.760  17.049  24.766  0.00  0.00    +0.000 C 
ENDBRANCH  16  20
BRANCH  19  26
ATOM     26  O   UNL     1      -4.480  14.427  21.119  0.00  0.00    +0.000 OA
ATOM     27  H   UNL     1      -4.114  14.942  20.380  0.00  0.00    +0.000 HD
ENDBRANCH  19  26
BRANCH   5  28
ATOM     28  S   UNL     1       1.598   9.151  18.648  0.00  0.00    +0.000 S 
BRANCH  28  29
ATOM     29  C   UNL     1       2.285   7.545  19.124  0.00  0.00    +0.000 C 
BRANCH  29  30
ATOM     30  C   UNL     1       2.488   6.682  17.870  0.00  0.00    +0.000 C 
BRANCH  30  31
ATOM     31  N   UNL     1       3.464   5.499  18.092  0.00  0.00    +0.000 N 
ATOM     32  C   UNL     1       3.990   5.467  19.522  0.00  0.00    +0.000 C 
ATOM     33  C   UNL     1       2.796   4.172  17.753  0.00  0.00    +0.000 C 
ATOM     34  C   UNL     1       4.658   5.694  17.151  0.00  0.00    +0.000 C 
ENDBRANCH  30  31
ENDBRANCH  29  30
ENDBRANCH  28  29
ENDBRANCH   5  28
TORSDOF 6
ENDMDL
MODEL 3
REMARK VINA RESULT:      -6.2      1.160      1.785
REMARK  Name = 
REMARK  11 active torsions:
REMARK  status: ('A' for Active; 'I' for Inactive)
REMARK    1  A    between atoms: C_1  and  C_2
REMARK    2  A    between atoms: C_5  and  S_6
REMARK    3  A    between atoms: S_6  and  C_7
REMARK    4  A    between atoms: C_7  and  C_8
REMARK    5  A    between atoms: C_8  and  N_9
REMARK    6  A    between atoms: N_9  and  C_10
REMARK    7  A    between atoms: N_9  and  C_11
REMARK    8  A    between atoms: N_9  and  C_12
REMARK    9  A    between atoms: C_21  and  C_22
REMARK   10  A    between atoms: C_23  and  C_24
REMARK   11  A    between atoms: C_32  and  O_33
REMARK                            x       y       z     vdW  Elec       q    Type
REMARK                         _______ _______ _______ _____ _____    ______ ____
ROOT
ATOM      1  C   UNL     1       1.682  12.841  20.901  0.00  0.00    +0.000 C 
ATOM      2  C   UNL     1       0.675  11.749  20.445  0.00  0.00    +0.000 C 
ATOM      3  C   UNL     1       1.270  10.390  20.906  0.00  0.00    +0.000 C 
ATOM      4  C   UNL     1       0.528   9.181  20.344  0.00  0.00    +0.000 C 
ATOM      5  C   UNL     1       0.478   9.181  18.813  0.00  0.00    +0.000 C 
ATOM      6  C   UNL     1      -0.130  10.501  18.319  0.00  0.00    +0.000 C 
ATOM      7  C   UNL     1       0.581  11.757  18.883  0.00  0.00    +0.000 C 
ATOM      8  C   UNL     1      -0.090  13.028  18.344  0.00  0.00    +0.000 C 
ATOM      9  C   UNL     1      -1.447  13.300  18.981  0.00  0.00    +0.000 C 
ATOM     10  C   UNL     1      -1.370  13.316  20.521  0.00  0.00    +0.000 C 
ATOM     11  C   UNL     1      -0.755  11.998  21.056  0.00  0.00    +0.000 C 
ATOM     12  C   UNL     1      -0.780  11.920  22.596  0.00  0.00    +0.000 C 
ATOM     13  C   UNL     1      -2.163  12.216  23.171  0.00  0.00    +0.000 C 
ATOM     14  C   UNL     1      -2.701  13.602  22.719  0.00  0.00    +0.000 C 
ATOM     15  C   UNL     1      -1.798  14.652  23.396  0.00  0.00    +0.000 C 
ATOM     16  C   UNL     1      -4.222  13.704  23.084  0.00  0.00    +0.000 C 
ATOM     17  C   UNL     1      -4.963  13.076  21.870  0.00  0.00    +0.000 C 
ATOM     18  C   UNL     1      -3.911  12.783  20.794  0.00  0.00    +0.000 C 
ATOM     19  C   UNL     1      -2.720  13.677  21.167  0.00  0.00    +0.000 C 
ENDROOT
BRANCH  16  20
ATOM     20  C   UNL     1      -4.806  15.051  23.455  0.00  0.00    +0.000 C 
ATOM     21  C   UNL     1      -4.509  15.722  24.578  0.00  0.00    +0.000 C 
ATOM     22  C   UNL     1      -5.297  16.953  24.574  0.00  0.00    +0.000 C 
ATOM     23  O   UNL     1      -5.233  17.808  25.428  0.00  0.00    +0.000 OA
ATOM     24  O   UNL     1      -6.087  16.978  23.479  0.00  0.00    +0.000 OA
ATOM     25  C   UNL     1      -5.804  15.833  22.675  0.00  0.00    +0.000 C 
ENDBRANCH  16  20
BRANCH  19  26
ATOM     26  O   UNL     1      -3.037  15.013  20.761  0.00  0.00    +0.000 OA
ATOM     27  H   UNL     1      -2.224  15.443  20.444  0.00  0.00    +0.000 HD
ENDBRANCH  19  26
BRANCH   5  28
ATOM     28  S   UNL     1       2.121   8.961  17.994  0.00  0.00    +0.000 S 
BRANCH  28  29
ATOM     29  C   UNL     1       2.518   7.265  18.488  0.00  0.00    +0.000 C 
BRANCH  29  30
ATOM     30  C   UNL     1       3.767   6.790  17.732  0.00  0.00    +0.000 C 
BRANCH  30  31
ATOM     31  N   UNL     1       4.019   5.266  17.860  0.00  0.00    +0.000 N 
ATOM     32  C   UNL     1       4.824   4.934  19.112  0.00  0.00    +0.000 C 
ATOM     33  C   UNL     1       2.705   4.496  17.867  0.00  0.00    +0.000 C 
ATOM     34  C   UNL     1       4.835   4.822  16.641  0.00  0.00    +0.000 C 
ENDBRANCH  30  31
ENDBRANCH  29  30
ENDBRANCH  28  29
ENDBRANCH   5  28
TORSDOF 6
ENDMDL
MODEL 4
REMARK VINA RESULT:      -6.2      1.215      1.645
REMARK  Name = 
REMARK  11 active torsions:
REMARK  status: ('A' for Active; 'I' for Inactive)
REMARK    1  A    between atoms: C_1  and  C_2
REMARK    2  A    between atoms: C_5  and  S_6
REMARK    3  A    between atoms: S_6  and  C_7
REMARK    4  A    between atoms: C_7  and  C_8
REMARK    5  A    between atoms: C_8  and  N_9
REMARK    6  A    between atoms: N_9  and  C_10
REMARK    7  A    between atoms: N_9  and  C_11
REMARK    8  A    between atoms: N_9  and  C_12
REMARK    9  A    between atoms: C_21  and  C_22
REMARK   10  A    between atoms: C_23  and  C_24
REMARK   11  A    between atoms: C_32  and  O_33
REMARK                            x       y       z     vdW  Elec       q    Type
REMARK                         _______ _______ _______ _____ _____    ______ ____
ROOT
ATOM      1  C   UNL     1       1.551  12.840  20.933  0.00  0.00    +0.000 C 
ATOM      2  C   UNL     1       0.533  11.741  20.521  0.00  0.00    +0.000 C 
ATOM      3  C   UNL     1       1.108  10.397  21.047  0.00  0.00    +0.000 C 
ATOM      4  C   UNL     1       0.355   9.172  20.536  0.00  0.00    +0.000 C 
ATOM      5  C   UNL     1       0.314   9.104  19.006  0.00  0.00    +0.000 C 
ATOM      6  C   UNL     1      -0.275  10.407  18.449  0.00  0.00    +0.000 C 
ATOM      7  C   UNL     1       0.449  11.679  18.960  0.00  0.00    +0.000 C 
ATOM      8  C   UNL     1      -0.203  12.932  18.359  0.00  0.00    +0.000 C 
ATOM      9  C   UNL     1      -1.560  13.250  18.975  0.00  0.00    +0.000 C 
ATOM     10  C   UNL     1      -1.492  13.334  20.513  0.00  0.00    +0.000 C 
ATOM     11  C   UNL     1      -0.897  12.034  21.111  0.00  0.00    +0.000 C 
ATOM     12  C   UNL     1      -0.932  12.027  22.653  0.00  0.00    +0.000 C 
ATOM     13  C   UNL     1      -2.315  12.366  23.205  0.00  0.00    +0.000 C 
ATOM     14  C   UNL     1      -2.832  13.736  22.687  0.00  0.00    +0.000 C 
ATOM     15  C   UNL     1      -1.921  14.805  23.321  0.00  0.00    +0.000 C 
ATOM     16  C   UNL     1      -4.354  13.873  23.037  0.00  0.00    +0.000 C 
ATOM     17  C   UNL     1      -5.096  13.200  21.848  0.00  0.00    +0.000 C 
ATOM     18  C   UNL     1      -4.041  12.845  20.793  0.00  0.00    +0.000 C 
ATOM     19  C   UNL     1      -2.842  13.740  21.132  0.00  0.00    +0.000 C 
ENDROOT
BRANCH  16  20
ATOM     20  C   UNL     1      -4.924  15.243  23.342  0.00  0.00    +0.000 C 
ATOM     21  C   UNL     1      -4.717  15.910  24.487  0.00  0.00    +0.000 C 
ATOM     22  C   UNL     1      -5.456  17.168  24.400  0.00  0.00    +0.000 C 
ATOM     23  O   UNL     1      -5.447  18.026  25.254  0.00  0.00    +0.000 OA
ATOM     24  O   UNL     1      -6.130  17.214  23.231  0.00  0.00    +0.000 OA
ATOM     25  C   UNL     1      -5.809  16.054  22.463  0.00  0.00    +0.000 C 
ENDBRANCH  16  20
BRANCH  19  26
ATOM     26  O   UNL     1      -3.139  15.060  20.664  0.00  0.00    +0.000 OA
ATOM     27  H   UNL     1      -2.671  15.206  19.824  0.00  0.00    +0.000 HD
ENDBRANCH  19  26
BRANCH   5  28
ATOM     28  S   UNL     1       1.959   8.826  18.209  0.00  0.00    +0.000 S 
BRANCH  28  29
ATOM     29  C   UNL     1       2.541   7.382  19.132  0.00  0.00    +0.000 C 
BRANCH  29  30
ATOM     30  C   UNL     1       2.579   6.161  18.202  0.00  0.00    +0.000 C 
BRANCH  30  31
ATOM     31  N   UNL     1       2.436   4.813  18.954  0.00  0.00    +0.000 N 
ATOM     32  C   UNL     1       1.475   3.871  18.236  0.00  0.00    +0.000 C 
ATOM     33  C   UNL     1       3.791   4.139  19.129  0.00  0.00    +0.000 C 
ATOM     34  C   UNL     1       1.860   5.110  20.342  0.00  0.00    +0.000 C 
ENDBRANCH  30  31
ENDBRANCH  29  30
ENDBRANCH  28  29
ENDBRANCH   5  28
TORSDOF 6
ENDMDL
MODEL 5
REMARK VINA RESULT:      -6.1      1.259      1.999
REMARK  Name = 
REMARK  11 active torsions:
REMARK  status: ('A' for Active; 'I' for Inactive)
REMARK    1  A    between atoms: C_1  and  C_2
REMARK    2  A    between atoms: C_5  and  S_6
REMARK    3  A    between atoms: S_6  and  C_7
REMARK    4  A    between atoms: C_7  and  C_8
REMARK    5  A    between atoms: C_8  and  N_9
REMARK    6  A    between atoms: N_9  and  C_10
REMARK    7  A    between atoms: N_9  and  C_11
REMARK    8  A    between atoms: N_9  and  C_12
REMARK    9  A    between atoms: C_21  and  C_22
REMARK   10  A    between atoms: C_23  and  C_24
REMARK   11  A    between atoms: C_32  and  O_33
REMARK                            x       y       z     vdW  Elec       q    Type
REMARK                         _______ _______ _______ _____ _____    ______ ____
ROOT
ATOM      1  C   UNL     1       1.428  12.849  20.977  0.00  0.00    +0.000 C 
ATOM      2  C   UNL     1       0.468  11.701  20.560  0.00  0.00    +0.000 C 
ATOM      3  C   UNL     1       1.090  10.391  21.118  0.00  0.00    +0.000 C 
ATOM      4  C   UNL     1       0.402   9.128  20.609  0.00  0.00    +0.000 C 
ATOM      5  C   UNL     1       0.398   9.037  19.080  0.00  0.00    +0.000 C 
ATOM      6  C   UNL     1      -0.235  10.305  18.491  0.00  0.00    +0.000 C 
ATOM      7  C   UNL     1       0.421  11.614  18.998  0.00  0.00    +0.000 C 
ATOM      8  C   UNL     1      -0.273  12.829  18.366  0.00  0.00    +0.000 C 
ATOM      9  C   UNL     1      -1.655  13.095  18.948  0.00  0.00    +0.000 C 
ATOM     10  C   UNL     1      -1.625  13.204  20.486  0.00  0.00    +0.000 C 
ATOM     11  C   UNL     1      -0.986  11.940  21.115  0.00  0.00    +0.000 C 
ATOM     12  C   UNL     1      -1.054  11.951  22.656  0.00  0.00    +0.000 C 
ATOM     13  C   UNL     1      -2.462  12.237  23.174  0.00  0.00    +0.000 C 
ATOM     14  C   UNL     1      -3.028  13.576  22.625  0.00  0.00    +0.000 C 
ATOM     15  C   UNL     1      -2.178  14.692  23.262  0.00  0.00    +0.000 C 
ATOM     16  C   UNL     1      -4.561  13.650  22.941  0.00  0.00    +0.000 C 
ATOM     17  C   UNL     1      -5.247  12.929  21.746  0.00  0.00    +0.000 C 
ATOM     18  C   UNL     1      -4.155  12.606  20.719  0.00  0.00    +0.000 C 
ATOM     19  C   UNL     1      -3.004  13.558  21.071  0.00  0.00    +0.000 C 
ENDROOT
BRANCH  16  20
ATOM     20  C   UNL     1      -5.197  14.997  23.214  0.00  0.00    +0.000 C 
ATOM     21  C   UNL     1      -6.091  15.590  22.408  0.00  0.00    +0.000 C 
ATOM     22  C   UNL     1      -6.435  16.877  23.008  0.00  0.00    +0.000 C 
ATOM     23  O   UNL     1      -7.250  17.647  22.552  0.00  0.00    +0.000 OA
ATOM     24  O   UNL     1      -5.711  17.057  24.133  0.00  0.00    +0.000 OA
ATOM     25  C   UNL     1      -4.933  15.885  24.378  0.00  0.00    +0.000 C 
ENDBRANCH  16  20
BRANCH  19  26
ATOM     26  O   UNL     1      -3.349  14.857  20.577  0.00  0.00    +0.000 OA
ATOM     27  H   UNL     1      -3.756  15.367  21.299  0.00  0.00    +0.000 HD
ENDBRANCH  19  26
BRANCH   5  28
ATOM     28  S   UNL     1       2.070   8.821  18.321  0.00  0.00    +0.000 S 
BRANCH  28  29
ATOM     29  C   UNL     1       2.533   7.201  18.983  0.00  0.00    +0.000 C 
BRANCH  29  30
ATOM     30  C   UNL     1       3.334   6.426  17.926  0.00  0.00    +0.000 C 
BRANCH  30  31
ATOM     31  N   UNL     1       3.272   4.888  18.116  0.00  0.00    +0.000 N 
ATOM     32  C   UNL     1       4.146   4.163  17.099  0.00  0.00    +0.000 C 
ATOM     33  C   UNL     1       3.686   4.498  19.529  0.00  0.00    +0.000 C 
ATOM     34  C   UNL     1       1.822   4.447  17.896  0.00  0.00    +0.000 C 
ENDBRANCH  30  31
ENDBRANCH  29  30
ENDBRANCH  28  29
ENDBRANCH   5  28
TORSDOF 6
ENDMDL
MODEL 6
REMARK VINA RESULT:      -6.0      1.790      2.344
REMARK  Name = 
REMARK  11 active torsions:
REMARK  status: ('A' for Active; 'I' for Inactive)
REMARK    1  A    between atoms: C_1  and  C_2
REMARK    2  A    between atoms: C_5  and  S_6
REMARK    3  A    between atoms: S_6  and  C_7
REMARK    4  A    between atoms: C_7  and  C_8
REMARK    5  A    between atoms: C_8  and  N_9
REMARK    6  A    between atoms: N_9  and  C_10
REMARK    7  A    between atoms: N_9  and  C_11
REMARK    8  A    between atoms: N_9  and  C_12
REMARK    9  A    between atoms: C_21  and  C_22
REMARK   10  A    between atoms: C_23  and  C_24
REMARK   11  A    between atoms: C_32  and  O_33
REMARK                            x       y       z     vdW  Elec       q    Type
REMARK                         _______ _______ _______ _____ _____    ______ ____
ROOT
ATOM      1  C   UNL     1       0.631  12.981  21.474  0.00  0.00    +0.000 C 
ATOM      2  C   UNL     1      -0.251  11.706  21.364  0.00  0.00    +0.000 C 
ATOM      3  C   UNL     1       0.386  10.654  22.313  0.00  0.00    +0.000 C 
ATOM      4  C   UNL     1      -0.215   9.259  22.163  0.00  0.00    +0.000 C 
ATOM      5  C   UNL     1      -0.115   8.727  20.731  0.00  0.00    +0.000 C 
ATOM      6  C   UNL     1      -0.759   9.730  19.764  0.00  0.00    +0.000 C 
ATOM      7  C   UNL     1      -0.192  11.166  19.897  0.00  0.00    +0.000 C 
ATOM      8  C   UNL     1      -0.892  12.102  18.901  0.00  0.00    +0.000 C 
ATOM      9  C   UNL     1      -2.320  12.444  19.308  0.00  0.00    +0.000 C 
ATOM     10  C   UNL     1      -2.395  12.998  20.745  0.00  0.00    +0.000 C 
ATOM     11  C   UNL     1      -1.748  12.011  21.750  0.00  0.00    +0.000 C 
ATOM     12  C   UNL     1      -1.917  12.466  23.214  0.00  0.00    +0.000 C 
ATOM     13  C   UNL     1      -3.367  12.807  23.552  0.00  0.00    +0.000 C 
ATOM     14  C   UNL     1      -3.949  13.893  22.607  0.00  0.00    +0.000 C 
ATOM     15  C   UNL     1      -3.190  15.194  22.930  0.00  0.00    +0.000 C 
ATOM     16  C   UNL     1      -5.502  13.967  22.808  0.00  0.00    +0.000 C 
ATOM     17  C   UNL     1      -6.077  12.890  21.845  0.00  0.00    +0.000 C 
ATOM     18  C   UNL     1      -4.908  12.347  21.015  0.00  0.00    +0.000 C 
ATOM     19  C   UNL     1      -3.822  13.426  21.130  0.00  0.00    +0.000 C 
ENDROOT
BRANCH  16  20
ATOM     20  C   UNL     1      -6.209  15.296  22.641  0.00  0.00    +0.000 C 
ATOM     21  C   UNL     1      -6.421  16.170  23.635  0.00  0.00    +0.000 C 
ATOM     22  C   UNL     1      -7.154  17.303  23.073  0.00  0.00    +0.000 C 
ATOM     23  O   UNL     1      -7.468  18.291  23.697  0.00  0.00    +0.000 OA
ATOM     24  O   UNL     1      -7.411  17.070  21.768  0.00  0.00    +0.000 OA
ATOM     25  C   UNL     1      -6.798  15.838  21.387  0.00  0.00    +0.000 C 
ENDBRANCH  16  20
BRANCH  19  26
ATOM     26  O   UNL     1      -4.187  14.502  20.259  0.00  0.00    +0.000 OA
ATOM     27  H   UNL     1      -4.824  14.171  19.603  0.00  0.00    +0.000 HD
ENDBRANCH  19  26
BRANCH   5  28
ATOM     28  S   UNL     1       1.611   8.398  20.155  0.00  0.00    +0.000 S 
BRANCH  28  29
ATOM     29  C   UNL     1       1.767   6.638  20.549  0.00  0.00    +0.000 C 
BRANCH  29  30
ATOM     30  C   UNL     1       2.459   5.912  19.387  0.00  0.00    +0.000 C 
BRANCH  30  31
ATOM     31  N   UNL     1       2.093   4.408  19.299  0.00  0.00    +0.000 N 
ATOM     32  C   UNL     1       0.978   4.045  20.274  0.00  0.00    +0.000 C 
ATOM     33  C   UNL     1       1.687   4.029  17.880  0.00  0.00    +0.000 C 
ATOM     34  C   UNL     1       3.338   3.600  19.679  0.00  0.00    +0.000 C 
ENDBRANCH  30  31
ENDBRANCH  29  30
ENDBRANCH  28  29
ENDBRANCH   5  28
TORSDOF 6
ENDMDL
MODEL 7
REMARK VINA RESULT:      -5.8      4.302      5.741
REMARK  Name = 
REMARK  11 active torsions:
REMARK  status: ('A' for Active; 'I' for Inactive)
REMARK    1  A    between atoms: C_1  and  C_2
REMARK    2  A    between atoms: C_5  and  S_6
REMARK    3  A    between atoms: S_6  and  C_7
REMARK    4  A    between atoms: C_7  and  C_8
REMARK    5  A    between atoms: C_8  and  N_9
REMARK    6  A    between atoms: N_9  and  C_10
REMARK    7  A    between atoms: N_9  and  C_11
REMARK    8  A    between atoms: N_9  and  C_12
REMARK    9  A    between atoms: C_21  and  C_22
REMARK   10  A    between atoms: C_23  and  C_24
REMARK   11  A    between atoms: C_32  and  O_33
REMARK                            x       y       z     vdW  Elec       q    Type
REMARK                         _______ _______ _______ _____ _____    ______ ____
ROOT
ATOM      1  C   UNL     1      -0.063  14.075  18.159  0.00  0.00    +0.000 C 
ATOM      2  C   UNL     1       0.596  14.897  19.301  0.00  0.00    +0.000 C 
ATOM      3  C   UNL     1       0.950  16.281  18.691  0.00  0.00    +0.000 C 
ATOM      4  C   UNL     1       1.814  17.145  19.605  0.00  0.00    +0.000 C 
ATOM      5  C   UNL     1       3.121  16.454  20.003  0.00  0.00    +0.000 C 
ATOM      6  C   UNL     1       2.811  15.091  20.636  0.00  0.00    +0.000 C 
ATOM      7  C   UNL     1       1.917  14.188  19.748  0.00  0.00    +0.000 C 
ATOM      8  C   UNL     1       1.653  12.852  20.455  0.00  0.00    +0.000 C 
ATOM      9  C   UNL     1       0.671  12.975  21.614  0.00  0.00    +0.000 C 
ATOM     10  C   UNL     1      -0.646  13.654  21.187  0.00  0.00    +0.000 C 
ATOM     11  C   UNL     1      -0.369  15.034  20.538  0.00  0.00    +0.000 C 
ATOM     12  C   UNL     1      -1.667  15.803  20.215  0.00  0.00    +0.000 C 
ATOM     13  C   UNL     1      -2.611  15.878  21.413  0.00  0.00    +0.000 C 
ATOM     14  C   UNL     1      -2.972  14.471  21.964  0.00  0.00    +0.000 C 
ATOM     15  C   UNL     1      -3.826  13.792  20.876  0.00  0.00    +0.000 C 
ATOM     16  C   UNL     1      -3.679  14.632  23.353  0.00  0.00    +0.000 C 
ATOM     17  C   UNL     1      -2.517  14.683  24.385  0.00  0.00    +0.000 C 
ATOM     18  C   UNL     1      -1.216  14.397  23.624  0.00  0.00    +0.000 C 
ATOM     19  C   UNL     1      -1.672  13.703  22.333  0.00  0.00    +0.000 C 
ENDROOT
BRANCH  16  20
ATOM     20  C   UNL     1      -4.742  13.635  23.765  0.00  0.00    +0.000 C 
ATOM     21  C   UNL     1      -6.043  13.746  23.456  0.00  0.00    +0.000 C 
ATOM     22  C   UNL     1      -6.733  12.607  24.057  0.00  0.00    +0.000 C 
ATOM     23  O   UNL     1      -7.916  12.382  23.934  0.00  0.00    +0.000 OA
ATOM     24  O   UNL     1      -5.849  11.861  24.755  0.00  0.00    +0.000 OA
ATOM     25  C   UNL     1      -4.541  12.407  24.581  0.00  0.00    +0.000 C 
ENDBRANCH  16  20
BRANCH  19  26
ATOM     26  O   UNL     1      -2.000  12.348  22.662  0.00  0.00    +0.000 OA
ATOM     27  H   UNL     1      -1.214  11.920  23.042  0.00  0.00    +0.000 HD
ENDBRANCH  19  26
BRANCH   5  28
ATOM     28  S   UNL     1       4.301  16.185  18.605  0.00  0.00    +0.000 S 
BRANCH  28  29
ATOM     29  C   UNL     1       5.881  16.492  19.434  0.00  0.00    +0.000 C 
BRANCH  29  30
ATOM     30  C   UNL     1       6.563  15.153  19.749  0.00  0.00    +0.000 C 
BRANCH  30  31
ATOM     31  N   UNL     1       7.691  14.789  18.750  0.00  0.00    +0.000 N 
ATOM     32  C   UNL     1       7.175  13.899  17.624  0.00  0.00    +0.000 C 
ATOM     33  C   UNL     1       8.331  16.043  18.171  0.00  0.00    +0.000 C 
ATOM     34  C   UNL     1       8.762  14.008  19.518  0.00  0.00    +0.000 C 
ENDBRANCH  30  31
ENDBRANCH  29  30
ENDBRANCH  28  29
ENDBRANCH   5  28
TORSDOF 6
ENDMDL
MODEL 8
REMARK VINA RESULT:      -5.8      5.356      7.463
REMARK  Name = 
REMARK  11 active torsions:
REMARK  status: ('A' for Active; 'I' for Inactive)
REMARK    1  A    between atoms: C_1  and  C_2
REMARK    2  A    between atoms: C_5  and  S_6
REMARK    3  A    between atoms: S_6  and  C_7
REMARK    4  A    between atoms: C_7  and  C_8
REMARK    5  A    between atoms: C_8  and  N_9
REMARK    6  A    between atoms: N_9  and  C_10
REMARK    7  A    between atoms: N_9  and  C_11
REMARK    8  A    between atoms: N_9  and  C_12
REMARK    9  A    between atoms: C_21  and  C_22
REMARK   10  A    between atoms: C_23  and  C_24
REMARK   11  A    between atoms: C_32  and  O_33
REMARK                            x       y       z     vdW  Elec       q    Type
REMARK                         _______ _______ _______ _____ _____    ______ ____
ROOT
ATOM      1  C   UNL     1       2.689  17.382  19.910  0.00  0.00    +0.000 C 
ATOM      2  C   UNL     1       3.492  16.070  20.128  0.00  0.00    +0.000 C 
ATOM      3  C   UNL     1       4.331  16.284  21.418  0.00  0.00    +0.000 C 
ATOM      4  C   UNL     1       5.359  15.184  21.664  0.00  0.00    +0.000 C 
ATOM      5  C   UNL     1       6.329  15.013  20.491  0.00  0.00    +0.000 C 
ATOM      6  C   UNL     1       5.536  14.772  19.199  0.00  0.00    +0.000 C 
ATOM      7  C   UNL     1       4.465  15.857  18.921  0.00  0.00    +0.000 C 
ATOM      8  C   UNL     1       3.719  15.538  17.618  0.00  0.00    +0.000 C 
ATOM      9  C   UNL     1       2.747  14.373  17.758  0.00  0.00    +0.000 C 
ATOM     10  C   UNL     1       1.767  14.575  18.931  0.00  0.00    +0.000 C 
ATOM     11  C   UNL     1       2.535  14.826  20.254  0.00  0.00    +0.000 C 
ATOM     12  C   UNL     1       1.594  14.904  21.474  0.00  0.00    +0.000 C 
ATOM     13  C   UNL     1       0.638  13.716  21.548  0.00  0.00    +0.000 C 
ATOM     14  C   UNL     1      -0.210  13.565  20.255  0.00  0.00    +0.000 C 
ATOM     15  C   UNL     1      -1.153  14.782  20.219  0.00  0.00    +0.000 C 
ATOM     16  C   UNL     1      -0.928  12.172  20.275  0.00  0.00    +0.000 C 
ATOM     17  C   UNL     1       0.101  11.186  19.655  0.00  0.00    +0.000 C 
ATOM     18  C   UNL     1       1.288  12.019  19.155  0.00  0.00    +0.000 C 
ATOM     19  C   UNL     1       0.729  13.442  19.023  0.00  0.00    +0.000 C 
ENDROOT
BRANCH  16  20
ATOM     20  C   UNL     1      -2.291  12.031  19.628  0.00  0.00    +0.000 C 
ATOM     21  C   UNL     1      -2.517  11.386  18.474  0.00  0.00    +0.000 C 
ATOM     22  C   UNL     1      -3.944  11.501  18.181  0.00  0.00    +0.000 C 
ATOM     23  O   UNL     1      -4.489  10.991  17.229  0.00  0.00    +0.000 OA
ATOM     24  O   UNL     1      -4.540  12.250  19.134  0.00  0.00    +0.000 OA
ATOM     25  C   UNL     1      -3.575  12.588  20.131  0.00  0.00    +0.000 C 
ENDBRANCH  16  20
BRANCH  19  26
ATOM     26  O   UNL     1      -0.053  13.491  17.825  0.00  0.00    +0.000 OA
ATOM     27  H   UNL     1      -0.671  14.240  17.886  0.00  0.00    +0.000 HD
ENDBRANCH  19  26
BRANCH   5  28
ATOM     28  S   UNL     1       7.457  16.451  20.215  0.00  0.00    +0.000 S 
BRANCH  28  29
ATOM     29  C   UNL     1       8.380  15.882  18.766  0.00  0.00    +0.000 C 
BRANCH  29  30
ATOM     30  C   UNL     1       9.769  15.394  19.201  0.00  0.00    +0.000 C 
BRANCH  30  31
ATOM     31  N   UNL     1      10.257  14.150  18.416  0.00  0.00    +0.000 N 
ATOM     32  C   UNL     1      11.178  14.539  17.265  0.00  0.00    +0.000 C 
ATOM     33  C   UNL     1      10.965  13.166  19.339  0.00  0.00    +0.000 C 
ATOM     34  C   UNL     1       9.024  13.458  17.824  0.00  0.00    +0.000 C 
ENDBRANCH  30  31
ENDBRANCH  29  30
ENDBRANCH  28  29
ENDBRANCH   5  28
TORSDOF 6
ENDMDL
MODEL 9
REMARK VINA RESULT:      -5.7      1.378      1.969
REMARK  Name = 
REMARK  11 active torsions:
REMARK  status: ('A' for Active; 'I' for Inactive)
REMARK    1  A    between atoms: C_1  and  C_2
REMARK    2  A    between atoms: C_5  and  S_6
REMARK    3  A    between atoms: S_6  and  C_7
REMARK    4  A    between atoms: C_7  and  C_8
REMARK    5  A    between atoms: C_8  and  N_9
REMARK    6  A    between atoms: N_9  and  C_10
REMARK    7  A    between atoms: N_9  and  C_11
REMARK    8  A    between atoms: N_9  and  C_12
REMARK    9  A    between atoms: C_21  and  C_22
REMARK   10  A    between atoms: C_23  and  C_24
REMARK   11  A    between atoms: C_32  and  O_33
REMARK                            x       y       z     vdW  Elec       q    Type
REMARK                         _______ _______ _______ _____ _____    ______ ____
ROOT
ATOM      1  C   UNL     1       1.601  12.878  21.007  0.00  0.00    +0.000 C 
ATOM      2  C   UNL     1       0.581  11.792  20.565  0.00  0.00    +0.000 C 
ATOM      3  C   UNL     1       1.099  10.447  21.146  0.00  0.00    +0.000 C 
ATOM      4  C   UNL     1       0.346   9.229  20.621  0.00  0.00    +0.000 C 
ATOM      5  C   UNL     1       0.382   9.130  19.093  0.00  0.00    +0.000 C 
ATOM      6  C   UNL     1      -0.149  10.433  18.481  0.00  0.00    +0.000 C 
ATOM      7  C   UNL     1       0.576  11.699  19.003  0.00  0.00    +0.000 C 
ATOM      8  C   UNL     1      -0.018  12.953  18.345  0.00  0.00    +0.000 C 
ATOM      9  C   UNL     1      -1.397  13.312  18.884  0.00  0.00    +0.000 C 
ATOM     10  C   UNL     1      -1.406  13.427  20.422  0.00  0.00    +0.000 C 
ATOM     11  C   UNL     1      -0.870  12.128  21.075  0.00  0.00    +0.000 C 
ATOM     12  C   UNL     1      -0.984  12.153  22.613  0.00  0.00    +0.000 C 
ATOM     13  C   UNL     1      -2.385  12.532  23.086  0.00  0.00    +0.000 C 
ATOM     14  C   UNL     1      -2.845  13.902  22.516  0.00  0.00    +0.000 C 
ATOM     15  C   UNL     1      -1.944  14.964  23.175  0.00  0.00    +0.000 C 
ATOM     16  C   UNL     1      -4.379  14.078  22.784  0.00  0.00    +0.000 C 
ATOM     17  C   UNL     1      -5.074  13.396  21.572  0.00  0.00    +0.000 C 
ATOM     18  C   UNL     1      -3.975  12.997  20.580  0.00  0.00    +0.000 C 
ATOM     19  C   UNL     1      -2.776  13.874  20.963  0.00  0.00    +0.000 C 
ENDROOT
BRANCH  16  20
ATOM     20  C   UNL     1      -4.934  15.465  23.034  0.00  0.00    +0.000 C 
ATOM     21  C   UNL     1      -5.057  16.412  22.091  0.00  0.00    +0.000 C 
ATOM     22  C   UNL     1      -5.601  17.604  22.737  0.00  0.00    +0.000 C 
ATOM     23  O   UNL     1      -5.874  18.630  22.157  0.00  0.00    +0.000 OA
ATOM     24  O   UNL     1      -5.750  17.372  24.059  0.00  0.00    +0.000 OA
ATOM     25  C   UNL     1      -5.403  16.014  24.334  0.00  0.00    +0.000 C 
ENDBRANCH  16  20
BRANCH  19  26
ATOM     26  O   UNL     1      -3.020  15.190  20.455  0.00  0.00    +0.000 OA
ATOM     27  H   UNL     1      -3.863  15.513  20.818  0.00  0.00    +0.000 HD
ENDBRANCH  19  26
BRANCH   5  28
ATOM     28  S   UNL     1       2.058   8.801  18.386  0.00  0.00    +0.000 S 
BRANCH  28  29
ATOM     29  C   UNL     1       2.503   7.283  19.266  0.00  0.00    +0.000 C 
BRANCH  29  30
ATOM     30  C   UNL     1       2.603   6.121  18.267  0.00  0.00    +0.000 C 
BRANCH  30  31
ATOM     31  N   UNL     1       2.406   4.730  18.922  0.00  0.00    +0.000 N 
ATOM     32  C   UNL     1       1.932   4.853  20.366  0.00  0.00    +0.000 C 
ATOM     33  C   UNL     1       1.423   3.886  18.121  0.00  0.00    +0.000 C 
ATOM     34  C   UNL     1       3.763   4.019  18.927  0.00  0.00    +0.000 C 
ENDBRANCH  30  31
ENDBRANCH  29  30
ENDBRANCH  28  29
ENDBRANCH   5  28
TORSDOF 6
ENDMDL
