MODEL 1
REMARK VINA RESULT:      -6.9      0.000      0.000
REMARK  Name = 
REMARK  7 active torsions:
REMARK  status: ('A' for Active; 'I' for Inactive)
REMARK    1  A    between atoms: C_1  and  O_2
REMARK    2  A    between atoms: O_2  and  C_3
REMARK    3  A    between atoms: C_3  and  C_4
REMARK    4  A    between atoms: C_10  and  C_11
REMARK    5  A    between atoms: C_11  and  C_12
REMARK    6  A    between atoms: C_15  and  O_16
REMARK    7  A    between atoms: O_16  and  C_17
REMARK                            x       y       z     vdW  Elec       q    Type
REMARK                         _______ _______ _______ _____ _____    ______ ____
ROOT
ATOM      1  C   UNL     1       6.005   3.201  12.506  0.00  0.00    +0.000 C 
ATOM      2  O   UNL     1       4.811   3.494  12.447  0.00  0.00    +0.000 OA
ATOM      3  N   UNL     1       6.943   3.723  13.370  0.00  0.00    +0.000 N 
ATOM      4  C   UNL     1       6.692   4.592  14.403  0.00  0.00    +0.000 A 
ATOM      5  N   UNL     1       7.642   5.244  15.039  0.00  0.00    +0.000 NA
ATOM      6  N   UNL     1       7.139   6.026  16.063  0.00  0.00    +0.000 NA
ATOM      7  C   UNL     1       5.834   5.894  16.192  0.00  0.00    +0.000 A 
ATOM      8  S   UNL     1       5.128   4.837  15.037  0.00  0.00    +0.000 S 
ATOM      9  H   UNL     1       7.923   3.519  13.217  0.00  0.00    +0.000 HD
ENDROOT
BRANCH   1  10
ATOM     10  C   UNL     1       6.608   2.221  11.504  0.00  0.00    +0.000 C 
BRANCH  10  12
ATOM     11  C   UNL     1       6.207  -0.089  11.309  0.00  0.00    +0.000 C 
ATOM     12  O   UNL     1       5.661   1.216  11.159  0.00  0.00    +0.000 OA
ENDBRANCH  10  12
ENDBRANCH   1  10
BRANCH   7  13
ATOM     13  C   UNL     1       5.008   6.509  17.275  0.00  0.00    +0.000 C 
BRANCH  13  14
ATOM     14  C   UNL     1       4.194   5.528  18.089  0.00  0.00    +0.000 A 
ATOM     15  C   UNL     1       2.792   5.584  18.079  0.00  0.00    +0.000 A 
ATOM     16  C   UNL     1       2.039   4.619  18.753  0.00  0.00    +0.000 A 
ATOM     17  C   UNL     1       2.669   3.574  19.430  0.00  0.00    +0.000 A 
ATOM     18  C   UNL     1       4.061   3.533  19.480  0.00  0.00    +0.000 A 
ATOM     19  C   UNL     1       4.819   4.502  18.812  0.00  0.00    +0.000 A 
BRANCH  17  20
ATOM     20  O   UNL     1       1.833   2.674  20.032  0.00  0.00    +0.000 OA
ATOM     21  C   UNL     1       1.800   2.731  21.454  0.00  0.00    +0.000 C 
ENDBRANCH  17  20
ENDBRANCH  13  14
ENDBRANCH   7  13
TORSDOF 5
ENDMDL
MODEL 2
REMARK VINA RESULT:      -6.7      0.354      1.130
REMARK  Name = 
REMARK  7 active torsions:
REMARK  status: ('A' for Active; 'I' for Inactive)
REMARK    1  A    between atoms: C_1  and  O_2
REMARK    2  A    between atoms: O_2  and  C_3
REMARK    3  A    between atoms: C_3  and  C_4
REMARK    4  A    between atoms: C_10  and  C_11
REMARK    5  A    between atoms: C_11  and  C_12
REMARK    6  A    between atoms: C_15  and  O_16
REMARK    7  A    between atoms: O_16  and  C_17
REMARK                            x       y       z     vdW  Elec       q    Type
REMARK                         _______ _______ _______ _____ _____    ______ ____
ROOT
ATOM      1  C   UNL     1       5.948   3.412  12.617  0.00  0.00    +0.000 C 
ATOM      2  O   UNL     1       4.731   3.555  12.727  0.00  0.00    +0.000 OA
ATOM      3  N   UNL     1       6.923   4.002  13.393  0.00  0.00    +0.000 N 
ATOM      4  C   UNL     1       6.710   4.774  14.507  0.00  0.00    +0.000 A 
ATOM      5  N   UNL     1       7.650   5.505  15.065  0.00  0.00    +0.000 NA
ATOM      6  N   UNL     1       7.197   6.161  16.196  0.00  0.00    +0.000 NA
ATOM      7  C   UNL     1       5.945   5.858  16.475  0.00  0.00    +0.000 A 
ATOM      8  S   UNL     1       5.225   4.784  15.345  0.00  0.00    +0.000 S 
ATOM      9  H   UNL     1       7.892   3.932  13.105  0.00  0.00    +0.000 HD
ENDROOT
BRANCH   1  10
ATOM     10  C   UNL     1       6.527   2.572  11.481  0.00  0.00    +0.000 C 
BRANCH  10  12
ATOM     11  C   UNL     1       6.231   0.254  11.217  0.00  0.00    +0.000 C 
ATOM     12  O   UNL     1       5.621   1.535  11.120  0.00  0.00    +0.000 OA
ENDBRANCH  10  12
ENDBRANCH   1  10
BRANCH   7  13
ATOM     13  C   UNL     1       5.202   6.304  17.692  0.00  0.00    +0.000 C 
BRANCH  13  14
ATOM     14  C   UNL     1       4.333   5.243  18.331  0.00  0.00    +0.000 A 
ATOM     15  C   UNL     1       4.911   4.114  18.930  0.00  0.00    +0.000 A 
ATOM     16  C   UNL     1       4.116   3.184  19.605  0.00  0.00    +0.000 A 
ATOM     17  C   UNL     1       2.738   3.372  19.709  0.00  0.00    +0.000 A 
ATOM     18  C   UNL     1       2.149   4.469  19.082  0.00  0.00    +0.000 A 
ATOM     19  C   UNL     1       2.941   5.399  18.399  0.00  0.00    +0.000 A 
BRANCH  17  20
ATOM     20  O   UNL     1       2.064   2.412  20.413  0.00  0.00    +0.000 OA
ATOM     21  C   UNL     1       1.492   2.848  21.642  0.00  0.00    +0.000 C 
ENDBRANCH  17  20
ENDBRANCH  13  14
ENDBRANCH   7  13
TORSDOF 5
ENDMDL
MODEL 3
REMARK VINA RESULT:      -6.7      4.423      6.561
REMARK  Name = 
REMARK  7 active torsions:
REMARK  status: ('A' for Active; 'I' for Inactive)
REMARK    1  A    between atoms: C_1  and  O_2
REMARK    2  A    between atoms: O_2  and  C_3
REMARK    3  A    between atoms: C_3  and  C_4
REMARK    4  A    between atoms: C_10  and  C_11
REMARK    5  A    between atoms: C_11  and  C_12
REMARK    6  A    between atoms: C_15  and  O_16
REMARK    7  A    between atoms: O_16  and  C_17
REMARK                            x       y       z     vdW  Elec       q    Type
REMARK                         _______ _______ _______ _____ _____    ______ ____
ROOT
ATOM      1  C   UNL     1       8.517   9.124  18.468  0.00  0.00    +0.000 C 
ATOM      2  O   UNL     1       7.619   9.529  17.731  0.00  0.00    +0.000 OA
ATOM      3  N   UNL     1       8.679   7.840  18.943  0.00  0.00    +0.000 N 
ATOM      4  C   UNL     1       7.926   6.748  18.590  0.00  0.00    +0.000 A 
ATOM      5  N   UNL     1       7.963   5.608  19.245  0.00  0.00    +0.000 NA
ATOM      6  N   UNL     1       7.144   4.652  18.672  0.00  0.00    +0.000 NA
ATOM      7  C   UNL     1       6.560   5.093  17.576  0.00  0.00    +0.000 A 
ATOM      8  S   UNL     1       6.940   6.725  17.199  0.00  0.00    +0.000 S 
ATOM      9  H   UNL     1       9.364   7.665  19.668  0.00  0.00    +0.000 HD
ENDROOT
BRANCH   1  10
ATOM     10  C   UNL     1       9.557  10.093  19.022  0.00  0.00    +0.000 C 
BRANCH  10  12
ATOM     11  C   UNL     1      10.004  11.668  20.712  0.00  0.00    +0.000 C 
ATOM     12  O   UNL     1       9.050  10.759  20.173  0.00  0.00    +0.000 OA
ENDBRANCH  10  12
ENDBRANCH   1  10
BRANCH   7  13
ATOM     13  C   UNL     1       5.711   4.272  16.660  0.00  0.00    +0.000 C 
BRANCH  13  14
ATOM     14  C   UNL     1       4.340   3.929  17.200  0.00  0.00    +0.000 A 
ATOM     15  C   UNL     1       4.009   2.603  17.513  0.00  0.00    +0.000 A 
ATOM     16  C   UNL     1       2.778   2.300  18.102  0.00  0.00    +0.000 A 
ATOM     17  C   UNL     1       1.868   3.314  18.403  0.00  0.00    +0.000 A 
ATOM     18  C   UNL     1       2.171   4.630  18.057  0.00  0.00    +0.000 A 
ATOM     19  C   UNL     1       3.400   4.936  17.461  0.00  0.00    +0.000 A 
BRANCH  17  20
ATOM     20  O   UNL     1       0.708   2.904  19.000  0.00  0.00    +0.000 OA
ATOM     21  C   UNL     1       0.670   3.044  20.417  0.00  0.00    +0.000 C 
ENDBRANCH  17  20
ENDBRANCH  13  14
ENDBRANCH   7  13
TORSDOF 5
ENDMDL
MODEL 4
REMARK VINA RESULT:      -6.4      4.502      6.485
REMARK  Name = 
REMARK  7 active torsions:
REMARK  status: ('A' for Active; 'I' for Inactive)
REMARK    1  A    between atoms: C_1  and  O_2
REMARK    2  A    between atoms: O_2  and  C_3
REMARK    3  A    between atoms: C_3  and  C_4
REMARK    4  A    between atoms: C_10  and  C_11
REMARK    5  A    between atoms: C_11  and  C_12
REMARK    6  A    between atoms: C_15  and  O_16
REMARK    7  A    between atoms: O_16  and  C_17
REMARK                            x       y       z     vdW  Elec       q    Type
REMARK                         _______ _______ _______ _____ _____    ______ ____
ROOT
ATOM      1  C   UNL     1       8.554   9.327  18.456  0.00  0.00    +0.000 C 
ATOM      2  O   UNL     1       7.670   9.687  17.679  0.00  0.00    +0.000 OA
ATOM      3  N   UNL     1       8.737   8.061  18.969  0.00  0.00    +0.000 N 
ATOM      4  C   UNL     1       8.028   6.938  18.620  0.00  0.00    +0.000 A 
ATOM      5  N   UNL     1       8.075   5.817  19.306  0.00  0.00    +0.000 NA
ATOM      6  N   UNL     1       7.305   4.822  18.730  0.00  0.00    +0.000 NA
ATOM      7  C   UNL     1       6.746   5.218  17.604  0.00  0.00    +0.000 A 
ATOM      8  S   UNL     1       7.091   6.851  17.198  0.00  0.00    +0.000 S 
ATOM      9  H   UNL     1       9.402   7.924  19.721  0.00  0.00    +0.000 HD
ENDROOT
BRANCH   1  10
ATOM     10  C   UNL     1       9.546  10.340  19.019  0.00  0.00    +0.000 C 
BRANCH  10  12
ATOM     11  C   UNL     1       9.454  12.682  18.817  0.00  0.00    +0.000 C 
ATOM     12  O   UNL     1       9.674  11.451  18.139  0.00  0.00    +0.000 OA
ENDBRANCH  10  12
ENDBRANCH   1  10
BRANCH   7  13
ATOM     13  C   UNL     1       5.954   4.349  16.682  0.00  0.00    +0.000 C 
BRANCH  13  14
ATOM     14  C   UNL     1       4.588   3.953  17.198  0.00  0.00    +0.000 A 
ATOM     15  C   UNL     1       3.605   4.926  17.431  0.00  0.00    +0.000 A 
ATOM     16  C   UNL     1       2.314   4.553  17.814  0.00  0.00    +0.000 A 
ATOM     17  C   UNL     1       1.978   3.206  17.953  0.00  0.00    +0.000 A 
ATOM     18  C   UNL     1       2.959   2.234  17.765  0.00  0.00    +0.000 A 
ATOM     19  C   UNL     1       4.255   2.604  17.388  0.00  0.00    +0.000 A 
BRANCH  17  20
ATOM     20  O   UNL     1       0.681   2.957  18.308  0.00  0.00    +0.000 OA
ATOM     21  C   UNL     1       0.459   2.750  19.699  0.00  0.00    +0.000 C 
ENDBRANCH  17  20
ENDBRANCH  13  14
ENDBRANCH   7  13
TORSDOF 5
ENDMDL
MODEL 5
REMARK VINA RESULT:      -6.4      4.445      7.910
REMARK  Name = 
REMARK  7 active torsions:
REMARK  status: ('A' for Active; 'I' for Inactive)
REMARK    1  A    between atoms: C_1  and  O_2
REMARK    2  A    between atoms: O_2  and  C_3
REMARK    3  A    between atoms: C_3  and  C_4
REMARK    4  A    between atoms: C_10  and  C_11
REMARK    5  A    between atoms: C_11  and  C_12
REMARK    6  A    between atoms: C_15  and  O_16
REMARK    7  A    between atoms: O_16  and  C_17
REMARK                            x       y       z     vdW  Elec       q    Type
REMARK                         _______ _______ _______ _____ _____    ______ ____
ROOT
ATOM      1  C   UNL     1       1.700   9.210  18.420  0.00  0.00    +0.000 C 
ATOM      2  O   UNL     1       2.091   8.894  17.297  0.00  0.00    +0.000 OA
ATOM      3  N   UNL     1       1.645   8.399  19.533  0.00  0.00    +0.000 N 
ATOM      4  C   UNL     1       2.123   7.115  19.621  0.00  0.00    +0.000 A 
ATOM      5  N   UNL     1       1.834   6.307  20.618  0.00  0.00    +0.000 NA
ATOM      6  N   UNL     1       2.467   5.083  20.496  0.00  0.00    +0.000 NA
ATOM      7  C   UNL     1       3.250   5.034  19.437  0.00  0.00    +0.000 A 
ATOM      8  S   UNL     1       3.228   6.469  18.494  0.00  0.00    +0.000 S 
ATOM      9  H   UNL     1       1.158   8.726  20.358  0.00  0.00    +0.000 HD
ENDROOT
BRANCH   1  10
ATOM     10  C   UNL     1       1.128  10.601  18.676  0.00  0.00    +0.000 C 
BRANCH  10  12
ATOM     11  C   UNL     1      -1.189  10.557  18.268  0.00  0.00    +0.000 C 
ATOM     12  O   UNL     1      -0.168  10.505  19.257  0.00  0.00    +0.000 OA
ENDBRANCH  10  12
ENDBRANCH   1  10
BRANCH   7  13
ATOM     13  C   UNL     1       4.160   3.901  19.090  0.00  0.00    +0.000 C 
BRANCH  13  14
ATOM     14  C   UNL     1       5.137   4.189  17.972  0.00  0.00    +0.000 A 
ATOM     15  C   UNL     1       4.760   4.010  16.633  0.00  0.00    +0.000 A 
ATOM     16  C   UNL     1       5.628   4.369  15.598  0.00  0.00    +0.000 A 
ATOM     17  C   UNL     1       6.876   4.927  15.880  0.00  0.00    +0.000 A 
ATOM     18  C   UNL     1       7.276   5.069  17.208  0.00  0.00    +0.000 A 
ATOM     19  C   UNL     1       6.412   4.705  18.247  0.00  0.00    +0.000 A 
BRANCH  17  20
ATOM     20  O   UNL     1       7.631   5.262  14.790  0.00  0.00    +0.000 OA
ATOM     21  C   UNL     1       7.169   4.742  13.547  0.00  0.00    +0.000 C 
ENDBRANCH  17  20
ENDBRANCH  13  14
ENDBRANCH   7  13
TORSDOF 5
ENDMDL
MODEL 6
REMARK VINA RESULT:      -6.3      3.888      5.731
REMARK  Name = 
REMARK  7 active torsions:
REMARK  status: ('A' for Active; 'I' for Inactive)
REMARK    1  A    between atoms: C_1  and  O_2
REMARK    2  A    between atoms: O_2  and  C_3
REMARK    3  A    between atoms: C_3  and  C_4
REMARK    4  A    between atoms: C_10  and  C_11
REMARK    5  A    between atoms: C_11  and  C_12
REMARK    6  A    between atoms: C_15  and  O_16
REMARK    7  A    between atoms: O_16  and  C_17
REMARK                            x       y       z     vdW  Elec       q    Type
REMARK                         _______ _______ _______ _____ _____    ______ ____
ROOT
ATOM      1  C   UNL     1       7.878   7.985  17.937  0.00  0.00    +0.000 C 
ATOM      2  O   UNL     1       8.299   7.085  18.662  0.00  0.00    +0.000 OA
ATOM      3  N   UNL     1       7.010   7.852  16.875  0.00  0.00    +0.000 N 
ATOM      4  C   UNL     1       6.367   6.700  16.497  0.00  0.00    +0.000 A 
ATOM      5  N   UNL     1       5.746   6.568  15.346  0.00  0.00    +0.000 NA
ATOM      6  N   UNL     1       5.145   5.328  15.217  0.00  0.00    +0.000 NA
ATOM      7  C   UNL     1       5.294   4.592  16.300  0.00  0.00    +0.000 A 
ATOM      8  S   UNL     1       6.220   5.352  17.531  0.00  0.00    +0.000 S 
ATOM      9  H   UNL     1       6.861   8.641  16.257  0.00  0.00    +0.000 HD
ENDROOT
BRANCH   1  10
ATOM     10  C   UNL     1       8.377   9.417  18.115  0.00  0.00    +0.000 C 
BRANCH  10  12
ATOM     11  C   UNL     1       9.433  10.880  19.625  0.00  0.00    +0.000 C 
ATOM     12  O   UNL     1       9.176   9.521  19.288  0.00  0.00    +0.000 OA
ENDBRANCH  10  12
ENDBRANCH   1  10
BRANCH   7  13
ATOM     13  C   UNL     1       4.666   3.255  16.527  0.00  0.00    +0.000 C 
BRANCH  13  14
ATOM     14  C   UNL     1       3.692   3.197  17.683  0.00  0.00    +0.000 A 
ATOM     15  C   UNL     1       2.455   3.855  17.606  0.00  0.00    +0.000 A 
ATOM     16  C   UNL     1       1.516   3.721  18.632  0.00  0.00    +0.000 A 
ATOM     17  C   UNL     1       1.787   2.918  19.740  0.00  0.00    +0.000 A 
ATOM     18  C   UNL     1       3.030   2.295  19.846  0.00  0.00    +0.000 A 
ATOM     19  C   UNL     1       3.975   2.432  18.823  0.00  0.00    +0.000 A 
BRANCH  17  20
ATOM     20  O   UNL     1       0.787   2.842  20.670  0.00  0.00    +0.000 OA
ATOM     21  C   UNL     1       1.220   2.716  22.021  0.00  0.00    +0.000 C 
ENDBRANCH  17  20
ENDBRANCH  13  14
ENDBRANCH   7  13
TORSDOF 5
ENDMDL
MODEL 7
REMARK VINA RESULT:      -6.3      3.878      4.886
REMARK  Name = 
REMARK  7 active torsions:
REMARK  status: ('A' for Active; 'I' for Inactive)
REMARK    1  A    between atoms: C_1  and  O_2
REMARK    2  A    between atoms: O_2  and  C_3
REMARK    3  A    between atoms: C_3  and  C_4
REMARK    4  A    between atoms: C_10  and  C_11
REMARK    5  A    between atoms: C_11  and  C_12
REMARK    6  A    between atoms: C_15  and  O_16
REMARK    7  A    between atoms: O_16  and  C_17
REMARK                            x       y       z     vdW  Elec       q    Type
REMARK                         _______ _______ _______ _____ _____    ______ ____
ROOT
ATOM      1  C   UNL     1       6.573   5.091  15.311  0.00  0.00    +0.000 C 
ATOM      2  O   UNL     1       7.231   5.787  16.084  0.00  0.00    +0.000 OA
ATOM      3  N   UNL     1       5.354   4.501  15.566  0.00  0.00    +0.000 N 
ATOM      4  C   UNL     1       4.594   4.673  16.696  0.00  0.00    +0.000 A 
ATOM      5  N   UNL     1       3.566   3.909  16.994  0.00  0.00    +0.000 NA
ATOM      6  N   UNL     1       2.942   4.308  18.162  0.00  0.00    +0.000 NA
ATOM      7  C   UNL     1       3.494   5.390  18.673  0.00  0.00    +0.000 A 
ATOM      8  S   UNL     1       4.844   5.965  17.781  0.00  0.00    +0.000 S 
ATOM      9  H   UNL     1       4.987   3.823  14.908  0.00  0.00    +0.000 HD
ENDROOT
BRANCH   1  10
ATOM     10  C   UNL     1       7.126   4.731  13.935  0.00  0.00    +0.000 C 
BRANCH  10  12
ATOM     11  C   UNL     1       6.573   3.533  11.988  0.00  0.00    +0.000 C 
ATOM     12  O   UNL     1       6.437   3.606  13.402  0.00  0.00    +0.000 OA
ENDBRANCH  10  12
ENDBRANCH   1  10
BRANCH   7  13
ATOM     13  C   UNL     1       2.983   6.140  19.861  0.00  0.00    +0.000 C 
BRANCH  13  14
ATOM     14  C   UNL     1       2.207   7.396  19.534  0.00  0.00    +0.000 A 
ATOM     15  C   UNL     1       1.543   8.106  20.545  0.00  0.00    +0.000 A 
ATOM     16  C   UNL     1       0.908   9.318  20.261  0.00  0.00    +0.000 A 
ATOM     17  C   UNL     1       0.941   9.850  18.971  0.00  0.00    +0.000 A 
ATOM     18  C   UNL     1       1.563   9.131  17.951  0.00  0.00    +0.000 A 
ATOM     19  C   UNL     1       2.194   7.914  18.231  0.00  0.00    +0.000 A 
BRANCH  17  20
ATOM     20  O   UNL     1       0.308  11.052  18.815  0.00  0.00    +0.000 OA
ATOM     21  C   UNL     1      -0.896  11.208  19.560  0.00  0.00    +0.000 C 
ENDBRANCH  17  20
ENDBRANCH  13  14
ENDBRANCH   7  13
TORSDOF 5
ENDMDL
MODEL 8
REMARK VINA RESULT:      -6.2      2.118      7.181
REMARK  Name = 
REMARK  7 active torsions:
REMARK  status: ('A' for Active; 'I' for Inactive)
REMARK    1  A    between atoms: C_1  and  O_2
REMARK    2  A    between atoms: O_2  and  C_3
REMARK    3  A    between atoms: C_3  and  C_4
REMARK    4  A    between atoms: C_10  and  C_11
REMARK    5  A    between atoms: C_11  and  C_12
REMARK    6  A    between atoms: C_15  and  O_16
REMARK    7  A    between atoms: O_16  and  C_17
REMARK                            x       y       z     vdW  Elec       q    Type
REMARK                         _______ _______ _______ _____ _____    ______ ____
ROOT
ATOM      1  C   UNL     1       2.579   4.967  19.391  0.00  0.00    +0.000 C 
ATOM      2  O   UNL     1       2.138   4.956  18.243  0.00  0.00    +0.000 OA
ATOM      3  N   UNL     1       3.904   4.903  19.768  0.00  0.00    +0.000 N 
ATOM      4  C   UNL     1       4.985   4.925  18.923  0.00  0.00    +0.000 A 
ATOM      5  N   UNL     1       6.205   4.620  19.309  0.00  0.00    +0.000 NA
ATOM      6  N   UNL     1       7.124   4.756  18.284  0.00  0.00    +0.000 NA
ATOM      7  C   UNL     1       6.569   5.206  17.178  0.00  0.00    +0.000 A 
ATOM      8  S   UNL     1       4.874   5.452  17.305  0.00  0.00    +0.000 S 
ATOM      9  H   UNL     1       4.133   4.761  20.744  0.00  0.00    +0.000 HD
ENDROOT
BRANCH   1  10
ATOM     10  C   UNL     1       1.627   4.975  20.583  0.00  0.00    +0.000 C 
BRANCH  10  12
ATOM     11  C   UNL     1       1.481   2.778  21.410  0.00  0.00    +0.000 C 
ATOM     12  O   UNL     1       0.858   3.778  20.612  0.00  0.00    +0.000 OA
ENDBRANCH  10  12
ENDBRANCH   1  10
BRANCH   7  13
ATOM     13  C   UNL     1       7.306   5.572  15.930  0.00  0.00    +0.000 C 
BRANCH  13  14
ATOM     14  C   UNL     1       6.885   4.808  14.695  0.00  0.00    +0.000 A 
ATOM     15  C   UNL     1       5.747   3.989  14.717  0.00  0.00    +0.000 A 
ATOM     16  C   UNL     1       5.302   3.360  13.551  0.00  0.00    +0.000 A 
ATOM     17  C   UNL     1       5.973   3.552  12.343  0.00  0.00    +0.000 A 
ATOM     18  C   UNL     1       7.129   4.330  12.319  0.00  0.00    +0.000 A 
ATOM     19  C   UNL     1       7.581   4.956  13.487  0.00  0.00    +0.000 A 
BRANCH  17  20
ATOM     20  O   UNL     1       5.435   2.908  11.263  0.00  0.00    +0.000 OA
ATOM     21  C   UNL     1       4.027   3.055  11.106  0.00  0.00    +0.000 C 
ENDBRANCH  17  20
ENDBRANCH  13  14
ENDBRANCH   7  13
TORSDOF 5
ENDMDL
MODEL 9
REMARK VINA RESULT:      -6.1      1.276      1.781
REMARK  Name = 
REMARK  7 active torsions:
REMARK  status: ('A' for Active; 'I' for Inactive)
REMARK    1  A    between atoms: C_1  and  O_2
REMARK    2  A    between atoms: O_2  and  C_3
REMARK    3  A    between atoms: C_3  and  C_4
REMARK    4  A    between atoms: C_10  and  C_11
REMARK    5  A    between atoms: C_11  and  C_12
REMARK    6  A    between atoms: C_15  and  O_16
REMARK    7  A    between atoms: O_16  and  C_17
REMARK                            x       y       z     vdW  Elec       q    Type
REMARK                         _______ _______ _______ _____ _____    ______ ____
ROOT
ATOM      1  C   UNL     1       6.196   3.948  13.427  0.00  0.00    +0.000 C 
ATOM      2  O   UNL     1       5.094   3.569  13.821  0.00  0.00    +0.000 OA
ATOM      3  N   UNL     1       7.086   4.749  14.109  0.00  0.00    +0.000 N 
ATOM      4  C   UNL     1       6.954   5.182  15.405  0.00  0.00    +0.000 A 
ATOM      5  N   UNL     1       7.701   6.131  15.925  0.00  0.00    +0.000 NA
ATOM      6  N   UNL     1       7.400   6.359  17.256  0.00  0.00    +0.000 NA
ATOM      7  C   UNL     1       6.472   5.536  17.701  0.00  0.00    +0.000 A 
ATOM      8  S   UNL     1       5.872   4.458  16.507  0.00  0.00    +0.000 S 
ATOM      9  H   UNL     1       7.890   5.122  13.618  0.00  0.00    +0.000 HD
ENDROOT
BRANCH   1  10
ATOM     10  C   UNL     1       6.671   3.606  12.018  0.00  0.00    +0.000 C 
BRANCH  10  12
ATOM     11  C   UNL     1       7.058   1.470  11.110  0.00  0.00    +0.000 C 
ATOM     12  O   UNL     1       6.077   2.390  11.576  0.00  0.00    +0.000 OA
ENDBRANCH  10  12
ENDBRANCH   1  10
BRANCH   7  13
ATOM     13  C   UNL     1       6.010   5.444  19.120  0.00  0.00    +0.000 C 
BRANCH  13  14
ATOM     14  C   UNL     1       4.632   4.848  19.303  0.00  0.00    +0.000 A 
ATOM     15  C   UNL     1       4.478   3.485  19.593  0.00  0.00    +0.000 A 
ATOM     16  C   UNL     1       3.213   2.954  19.858  0.00  0.00    +0.000 A 
ATOM     17  C   UNL     1       2.085   3.776  19.856  0.00  0.00    +0.000 A 
ATOM     18  C   UNL     1       2.222   5.124  19.528  0.00  0.00    +0.000 A 
ATOM     19  C   UNL     1       3.488   5.657  19.255  0.00  0.00    +0.000 A 
BRANCH  17  20
ATOM     20  O   UNL     1       0.904   3.154  20.153  0.00  0.00    +0.000 OA
ATOM     21  C   UNL     1       0.389   2.306  19.131  0.00  0.00    +0.000 C 
ENDBRANCH  17  20
ENDBRANCH  13  14
ENDBRANCH   7  13
TORSDOF 5
ENDMDL
