MODEL 1
REMARK VINA RESULT:      -9.6      0.000      0.000
REMARK  Name = 
REMARK  6 active torsions:
REMARK  status: ('A' for Active; 'I' for Inactive)
REMARK    1  A    between atoms: C_4  and  C_5
REMARK    2  A    between atoms: C_5  and  N_6
REMARK    3  A    between atoms: N_6  and  C_7
REMARK    4  A    between atoms: C_17  and  C_18
REMARK    5  A    between atoms: C_18  and  C_19
REMARK    6  A    between atoms: C_18  and  C_25
REMARK                            x       y       z     vdW  Elec       q    Type
REMARK                         _______ _______ _______ _____ _____    ______ ____
ROOT
ATOM      1  C   UNL     1       3.886   3.039  17.334  0.00  0.00    +0.000 C 
ATOM      2  C   UNL     1       3.887   1.915  18.427  0.00  0.00    +0.000 C 
ATOM      3  C   UNL     1       2.417   1.479  18.577  0.00  0.00    +0.000 C 
ATOM      4  C   UNL     1       1.568   2.751  18.815  0.00  0.00    +0.000 C 
ATOM      5  C   UNL     1       0.535   2.519  19.924  0.00  0.00    +0.000 C 
ATOM      6  C   UNL     1       1.110   2.491  21.336  0.00  0.00    +0.000 C 
ATOM      7  C   UNL     1       2.418   3.234  21.547  0.00  0.00    +0.000 C 
ATOM      8  C   UNL     1       3.270   3.513  20.300  0.00  0.00    +0.000 C 
ATOM      9  C   UNL     1       4.272   2.427  19.838  0.00  0.00    +0.000 C 
ATOM     10  N   UNL     1       2.417   3.918  19.157  0.00  0.00    +0.000 NA
ATOM     11  C   UNL     1       3.315   4.378  17.988  0.00  0.00    +0.000 C 
ENDROOT
BRANCH   1  12
ATOM     12  N   UNL     1       5.012   3.089  16.385  0.00  0.00    +0.000 NA
ATOM     13  H   UNL     1       5.881   3.043  16.916  0.00  0.00    +0.000 HD
BRANCH  12  14
ATOM     14  C   UNL     1       5.083   4.317  15.537  0.00  0.00    +0.000 C 
BRANCH  14  18
ATOM     15  C   UNL     1       7.332   4.228  11.798  0.00  0.00    +0.000 A 
ATOM     16  C   UNL     1       7.758   5.033  12.853  0.00  0.00    +0.000 A 
ATOM     17  C   UNL     1       7.061   5.047  14.071  0.00  0.00    +0.000 A 
ATOM     18  C   UNL     1       5.909   4.266  14.252  0.00  0.00    +0.000 A 
ATOM     19  C   UNL     1       5.555   3.386  13.211  0.00  0.00    +0.000 A 
ATOM     20  C   UNL     1       6.244   3.375  11.991  0.00  0.00    +0.000 A 
ENDBRANCH  14  18
ENDBRANCH  12  14
ENDBRANCH   1  12
BRANCH  11  21
ATOM     21  C   UNL     1       4.184   5.639  18.512  0.00  0.00    +0.000 C 
BRANCH  21  22
ATOM     22  C   UNL     1       5.568   6.138  18.030  0.00  0.00    +0.000 A 
ATOM     23  C   UNL     1       5.708   7.354  17.340  0.00  0.00    +0.000 A 
ATOM     24  C   UNL     1       6.899   8.091  17.429  0.00  0.00    +0.000 A 
ATOM     25  C   UNL     1       7.983   7.616  18.167  0.00  0.00    +0.000 A 
ATOM     26  C   UNL     1       7.900   6.372  18.781  0.00  0.00    +0.000 A 
ATOM     27  C   UNL     1       6.713   5.635  18.697  0.00  0.00    +0.000 A 
ENDBRANCH  21  22
BRANCH  21  28
ATOM     28  C   UNL     1       3.266   6.916  18.592  0.00  0.00    +0.000 A 
ATOM     29  C   UNL     1       3.081   7.730  17.465  0.00  0.00    +0.000 A 
ATOM     30  C   UNL     1       2.255   8.856  17.522  0.00  0.00    +0.000 A 
ATOM     31  C   UNL     1       1.598   9.200  18.705  0.00  0.00    +0.000 A 
ATOM     32  C   UNL     1       1.756   8.402  19.830  0.00  0.00    +0.000 A 
ATOM     33  C   UNL     1       2.560   7.269  19.767  0.00  0.00    +0.000 A 
ENDBRANCH  21  28
ENDBRANCH  11  21
TORSDOF 6
ENDMDL
MODEL 2
REMARK VINA RESULT:      -9.5      0.445      1.281
REMARK  Name = 
REMARK  6 active torsions:
REMARK  status: ('A' for Active; 'I' for Inactive)
REMARK    1  A    between atoms: C_4  and  C_5
REMARK    2  A    between atoms: C_5  and  N_6
REMARK    3  A    between atoms: N_6  and  C_7
REMARK    4  A    between atoms: C_17  and  C_18
REMARK    5  A    between atoms: C_18  and  C_19
REMARK    6  A    between atoms: C_18  and  C_25
REMARK                            x       y       z     vdW  Elec       q    Type
REMARK                         _______ _______ _______ _____ _____    ______ ____
ROOT
ATOM      1  C   UNL     1       3.893   3.316  17.511  0.00  0.00    +0.000 C 
ATOM      2  C   UNL     1       3.894   2.105  18.508  0.00  0.00    +0.000 C 
ATOM      3  C   UNL     1       2.454   1.559  18.500  0.00  0.00    +0.000 C 
ATOM      4  C   UNL     1       1.496   2.745  18.767  0.00  0.00    +0.000 C 
ATOM      5  C   UNL     1       0.401   2.349  19.764  0.00  0.00    +0.000 C 
ATOM      6  C   UNL     1       0.865   2.240  21.213  0.00  0.00    +0.000 C 
ATOM      7  C   UNL     1       2.094   3.050  21.590  0.00  0.00    +0.000 C 
ATOM      8  C   UNL     1       3.016   3.492  20.445  0.00  0.00    +0.000 C 
ATOM      9  C   UNL     1       4.129   2.520  19.982  0.00  0.00    +0.000 C 
ATOM     10  N   UNL     1       2.227   3.934  19.271  0.00  0.00    +0.000 NA
ATOM     11  C   UNL     1       3.175   4.552  18.220  0.00  0.00    +0.000 C 
ENDROOT
BRANCH   1  12
ATOM     12  N   UNL     1       5.082   3.523  16.666  0.00  0.00    +0.000 NA
ATOM     13  H   UNL     1       5.843   3.852  17.259  0.00  0.00    +0.000 HD
BRANCH  12  14
ATOM     14  C   UNL     1       4.923   4.521  15.566  0.00  0.00    +0.000 C 
BRANCH  14  18
ATOM     15  C   UNL     1       7.299   4.159  11.925  0.00  0.00    +0.000 A 
ATOM     16  C   UNL     1       7.752   4.948  12.981  0.00  0.00    +0.000 A 
ATOM     17  C   UNL     1       7.011   5.048  14.169  0.00  0.00    +0.000 A 
ATOM     18  C   UNL     1       5.790   4.372  14.317  0.00  0.00    +0.000 A 
ATOM     19  C   UNL     1       5.403   3.502  13.280  0.00  0.00    +0.000 A 
ATOM     20  C   UNL     1       6.135   3.406  12.089  0.00  0.00    +0.000 A 
ENDBRANCH  14  18
ENDBRANCH  12  14
ENDBRANCH   1  12
BRANCH  11  21
ATOM     21  C   UNL     1       3.904   5.820  18.913  0.00  0.00    +0.000 C 
BRANCH  21  22
ATOM     22  C   UNL     1       5.340   6.356  18.699  0.00  0.00    +0.000 A 
ATOM     23  C   UNL     1       6.460   5.664  19.189  0.00  0.00    +0.000 A 
ATOM     24  C   UNL     1       7.701   5.763  18.539  0.00  0.00    +0.000 A 
ATOM     25  C   UNL     1       7.861   6.580  17.421  0.00  0.00    +0.000 A 
ATOM     26  C   UNL     1       6.791   7.346  16.973  0.00  0.00    +0.000 A 
ATOM     27  C   UNL     1       5.552   7.248  17.618  0.00  0.00    +0.000 A 
ENDBRANCH  21  22
BRANCH  21  28
ATOM     28  C   UNL     1       2.957   7.076  18.845  0.00  0.00    +0.000 A 
ATOM     29  C   UNL     1       2.237   7.484  19.978  0.00  0.00    +0.000 A 
ATOM     30  C   UNL     1       1.406   8.607  19.932  0.00  0.00    +0.000 A 
ATOM     31  C   UNL     1       1.271   9.348  18.756  0.00  0.00    +0.000 A 
ATOM     32  C   UNL     1       1.984   8.970  17.626  0.00  0.00    +0.000 A 
ATOM     33  C   UNL     1       2.828   7.866  17.678  0.00  0.00    +0.000 A 
ENDBRANCH  21  28
ENDBRANCH  11  21
TORSDOF 6
ENDMDL
MODEL 3
REMARK VINA RESULT:      -9.5      0.067      1.203
REMARK  Name = 
REMARK  6 active torsions:
REMARK  status: ('A' for Active; 'I' for Inactive)
REMARK    1  A    between atoms: C_4  and  C_5
REMARK    2  A    between atoms: C_5  and  N_6
REMARK    3  A    between atoms: N_6  and  C_7
REMARK    4  A    between atoms: C_17  and  C_18
REMARK    5  A    between atoms: C_18  and  C_19
REMARK    6  A    between atoms: C_18  and  C_25
REMARK                            x       y       z     vdW  Elec       q    Type
REMARK                         _______ _______ _______ _____ _____    ______ ____
ROOT
ATOM      1  C   UNL     1       3.901   3.043  17.357  0.00  0.00    +0.000 C 
ATOM      2  C   UNL     1       3.905   1.928  18.461  0.00  0.00    +0.000 C 
ATOM      3  C   UNL     1       2.437   1.486  18.612  0.00  0.00    +0.000 C 
ATOM      4  C   UNL     1       1.581   2.756  18.836  0.00  0.00    +0.000 C 
ATOM      5  C   UNL     1       0.547   2.528  19.945  0.00  0.00    +0.000 C 
ATOM      6  C   UNL     1       1.118   2.516  21.358  0.00  0.00    +0.000 C 
ATOM      7  C   UNL     1       2.422   3.268  21.566  0.00  0.00    +0.000 C 
ATOM      8  C   UNL     1       3.275   3.541  20.318  0.00  0.00    +0.000 C 
ATOM      9  C   UNL     1       4.284   2.455  19.869  0.00  0.00    +0.000 C 
ATOM     10  N   UNL     1       2.423   3.931  19.170  0.00  0.00    +0.000 NA
ATOM     11  C   UNL     1       3.321   4.384  17.999  0.00  0.00    +0.000 C 
ENDROOT
BRANCH   1  12
ATOM     12  N   UNL     1       5.028   3.090  16.411  0.00  0.00    +0.000 NA
ATOM     13  H   UNL     1       5.896   3.034  16.943  0.00  0.00    +0.000 HD
BRANCH  12  14
ATOM     14  C   UNL     1       5.111   4.322  15.570  0.00  0.00    +0.000 C 
BRANCH  14  18
ATOM     15  C   UNL     1       7.337   4.039  11.828  0.00  0.00    +0.000 A 
ATOM     16  C   UNL     1       6.140   3.343  11.985  0.00  0.00    +0.000 A 
ATOM     17  C   UNL     1       5.399   3.450  13.172  0.00  0.00    +0.000 A 
ATOM     18  C   UNL     1       5.853   4.245  14.237  0.00  0.00    +0.000 A 
ATOM     19  C   UNL     1       7.010   5.017  14.019  0.00  0.00    +0.000 A 
ATOM     20  C   UNL     1       7.756   4.906  12.838  0.00  0.00    +0.000 A 
ENDBRANCH  14  18
ENDBRANCH  12  14
ENDBRANCH   1  12
BRANCH  11  21
ATOM     21  C   UNL     1       4.182   5.655  18.513  0.00  0.00    +0.000 C 
BRANCH  21  22
ATOM     22  C   UNL     1       5.565   6.156  18.030  0.00  0.00    +0.000 A 
ATOM     23  C   UNL     1       5.703   7.374  17.342  0.00  0.00    +0.000 A 
ATOM     24  C   UNL     1       6.893   8.112  17.430  0.00  0.00    +0.000 A 
ATOM     25  C   UNL     1       7.979   7.637  18.165  0.00  0.00    +0.000 A 
ATOM     26  C   UNL     1       7.898   6.391  18.777  0.00  0.00    +0.000 A 
ATOM     27  C   UNL     1       6.712   5.653  18.694  0.00  0.00    +0.000 A 
ENDBRANCH  21  22
BRANCH  21  28
ATOM     28  C   UNL     1       3.258   6.928  18.580  0.00  0.00    +0.000 A 
ATOM     29  C   UNL     1       2.570   7.245  19.760  0.00  0.00    +0.000 A 
ATOM     30  C   UNL     1       1.759   8.381  19.834  0.00  0.00    +0.000 A 
ATOM     31  C   UNL     1       1.614   9.227  18.733  0.00  0.00    +0.000 A 
ATOM     32  C   UNL     1       2.297   8.941  17.558  0.00  0.00    +0.000 A 
ATOM     33  C   UNL     1       3.120   7.822  17.491  0.00  0.00    +0.000 A 
ENDBRANCH  21  28
ENDBRANCH  11  21
TORSDOF 6
ENDMDL
MODEL 4
REMARK VINA RESULT:      -9.3      0.482      1.290
REMARK  Name = 
REMARK  6 active torsions:
REMARK  status: ('A' for Active; 'I' for Inactive)
REMARK    1  A    between atoms: C_4  and  C_5
REMARK    2  A    between atoms: C_5  and  N_6
REMARK    3  A    between atoms: N_6  and  C_7
REMARK    4  A    between atoms: C_17  and  C_18
REMARK    5  A    between atoms: C_18  and  C_19
REMARK    6  A    between atoms: C_18  and  C_25
REMARK                            x       y       z     vdW  Elec       q    Type
REMARK                         _______ _______ _______ _____ _____    ______ ____
ROOT
ATOM      1  C   UNL     1       3.978   3.382  17.372  0.00  0.00    +0.000 C 
ATOM      2  C   UNL     1       3.898   2.133  18.317  0.00  0.00    +0.000 C 
ATOM      3  C   UNL     1       2.452   1.614  18.201  0.00  0.00    +0.000 C 
ATOM      4  C   UNL     1       1.499   2.807  18.457  0.00  0.00    +0.000 C 
ATOM      5  C   UNL     1       0.338   2.393  19.369  0.00  0.00    +0.000 C 
ATOM      6  C   UNL     1       0.711   2.219  20.837  0.00  0.00    +0.000 C 
ATOM      7  C   UNL     1       1.928   2.990  21.321  0.00  0.00    +0.000 C 
ATOM      8  C   UNL     1       2.926   3.459  20.252  0.00  0.00    +0.000 C 
ATOM      9  C   UNL     1       4.049   2.485  19.819  0.00  0.00    +0.000 C 
ATOM     10  N   UNL     1       2.217   3.962  19.051  0.00  0.00    +0.000 NA
ATOM     11  C   UNL     1       3.238   4.602  18.086  0.00  0.00    +0.000 C 
ENDROOT
BRANCH   1  12
ATOM     12  N   UNL     1       5.219   3.599  16.610  0.00  0.00    +0.000 NA
ATOM     13  H   UNL     1       5.953   3.873  17.263  0.00  0.00    +0.000 HD
BRANCH  12  14
ATOM     14  C   UNL     1       5.151   4.661  15.561  0.00  0.00    +0.000 C 
BRANCH  14  18
ATOM     15  C   UNL     1       7.163   3.838  11.777  0.00  0.00    +0.000 A 
ATOM     16  C   UNL     1       5.934   3.244  12.061  0.00  0.00    +0.000 A 
ATOM     17  C   UNL     1       5.263   3.524  13.260  0.00  0.00    +0.000 A 
ATOM     18  C   UNL     1       5.819   4.394  14.212  0.00  0.00    +0.000 A 
ATOM     19  C   UNL     1       7.009   5.060  13.862  0.00  0.00    +0.000 A 
ATOM     20  C   UNL     1       7.686   4.777  12.668  0.00  0.00    +0.000 A 
ENDBRANCH  14  18
ENDBRANCH  12  14
ENDBRANCH   1  12
BRANCH  11  21
ATOM     21  C   UNL     1       3.944   5.828  18.872  0.00  0.00    +0.000 C 
BRANCH  21  22
ATOM     22  C   UNL     1       5.384   6.377  18.730  0.00  0.00    +0.000 A 
ATOM     23  C   UNL     1       6.488   5.679  19.247  0.00  0.00    +0.000 A 
ATOM     24  C   UNL     1       7.752   5.801  18.651  0.00  0.00    +0.000 A 
ATOM     25  C   UNL     1       7.953   6.648  17.562  0.00  0.00    +0.000 A 
ATOM     26  C   UNL     1       6.896   7.420  17.092  0.00  0.00    +0.000 A 
ATOM     27  C   UNL     1       5.633   7.299  17.683  0.00  0.00    +0.000 A 
ENDBRANCH  21  22
BRANCH  21  28
ATOM     28  C   UNL     1       2.995   7.085  18.851  0.00  0.00    +0.000 A 
ATOM     29  C   UNL     1       2.847   7.844  17.681  0.00  0.00    +0.000 A 
ATOM     30  C   UNL     1       1.996   8.952  17.649  0.00  0.00    +0.000 A 
ATOM     31  C   UNL     1       1.274   9.331  18.782  0.00  0.00    +0.000 A 
ATOM     32  C   UNL     1       1.394   8.586  19.948  0.00  0.00    +0.000 A 
ATOM     33  C   UNL     1       2.225   7.472  19.974  0.00  0.00    +0.000 A 
ENDBRANCH  21  28
ENDBRANCH  11  21
TORSDOF 6
ENDMDL
MODEL 5
REMARK VINA RESULT:      -8.7      1.568      6.007
REMARK  Name = 
REMARK  6 active torsions:
REMARK  status: ('A' for Active; 'I' for Inactive)
REMARK    1  A    between atoms: C_4  and  C_5
REMARK    2  A    between atoms: C_5  and  N_6
REMARK    3  A    between atoms: N_6  and  C_7
REMARK    4  A    between atoms: C_17  and  C_18
REMARK    5  A    between atoms: C_18  and  C_19
REMARK    6  A    between atoms: C_18  and  C_25
REMARK                            x       y       z     vdW  Elec       q    Type
REMARK                         _______ _______ _______ _____ _____    ______ ____
ROOT
ATOM      1  C   UNL     1       2.561   6.356  18.537  0.00  0.00    +0.000 C 
ATOM      2  C   UNL     1       1.437   5.264  18.507  0.00  0.00    +0.000 C 
ATOM      3  C   UNL     1       1.075   4.998  19.981  0.00  0.00    +0.000 C 
ATOM      4  C   UNL     1       2.388   4.697  20.744  0.00  0.00    +0.000 C 
ATOM      5  C   UNL     1       2.207   3.510  21.697  0.00  0.00    +0.000 C 
ATOM      6  C   UNL     1       2.148   2.147  21.016  0.00  0.00    +0.000 C 
ATOM      7  C   UNL     1       2.824   2.041  19.659  0.00  0.00    +0.000 C 
ATOM      8  C   UNL     1       3.062   3.352  18.895  0.00  0.00    +0.000 C 
ATOM      9  C   UNL     1       1.927   3.888  17.988  0.00  0.00    +0.000 C 
ATOM     10  N   UNL     1       3.511   4.426  19.813  0.00  0.00    +0.000 NA
ATOM     11  C   UNL     1       3.926   5.663  18.987  0.00  0.00    +0.000 C 
ENDROOT
BRANCH   1  12
ATOM     12  N   UNL     1       2.556   7.390  17.488  0.00  0.00    +0.000 NA
ATOM     13  H   UNL     1       3.396   7.278  16.922  0.00  0.00    +0.000 HD
BRANCH  12  14
ATOM     14  C   UNL     1       2.544   8.802  17.977  0.00  0.00    +0.000 C 
BRANCH  14  18
ATOM     15  C   UNL     1      -1.004  10.414  19.941  0.00  0.00    +0.000 A 
ATOM     16  C   UNL     1      -0.905  10.428  18.551  0.00  0.00    +0.000 A 
ATOM     17  C   UNL     1       0.217   9.885  17.907  0.00  0.00    +0.000 A 
ATOM     18  C   UNL     1       1.276   9.331  18.644  0.00  0.00    +0.000 A 
ATOM     19  C   UNL     1       1.110   9.236  20.039  0.00  0.00    +0.000 A 
ATOM     20  C   UNL     1      -0.005   9.784  20.687  0.00  0.00    +0.000 A 
ENDBRANCH  14  18
ENDBRANCH  12  14
ENDBRANCH   1  12
BRANCH  11  21
ATOM     21  C   UNL     1       5.142   5.212  18.018  0.00  0.00    +0.000 C 
BRANCH  21  22
ATOM     22  C   UNL     1       5.103   4.830  16.519  0.00  0.00    +0.000 A 
ATOM     23  C   UNL     1       5.091   5.812  15.514  0.00  0.00    +0.000 A 
ATOM     24  C   UNL     1       5.644   5.548  14.251  0.00  0.00    +0.000 A 
ATOM     25  C   UNL     1       6.178   4.296  13.950  0.00  0.00    +0.000 A 
ATOM     26  C   UNL     1       6.117   3.280  14.898  0.00  0.00    +0.000 A 
ATOM     27  C   UNL     1       5.569   3.541  16.159  0.00  0.00    +0.000 A 
ENDBRANCH  21  22
BRANCH  21  28
ATOM     28  C   UNL     1       6.347   6.213  18.181  0.00  0.00    +0.000 A 
ATOM     29  C   UNL     1       7.403   5.915  19.054  0.00  0.00    +0.000 A 
ATOM     30  C   UNL     1       8.485   6.790  19.193  0.00  0.00    +0.000 A 
ATOM     31  C   UNL     1       8.537   7.982  18.468  0.00  0.00    +0.000 A 
ATOM     32  C   UNL     1       7.508   8.290  17.588  0.00  0.00    +0.000 A 
ATOM     33  C   UNL     1       6.443   7.410  17.434  0.00  0.00    +0.000 A 
ENDBRANCH  21  28
ENDBRANCH  11  21
TORSDOF 6
ENDMDL
MODEL 6
REMARK VINA RESULT:      -8.6      1.601      6.079
REMARK  Name = 
REMARK  6 active torsions:
REMARK  status: ('A' for Active; 'I' for Inactive)
REMARK    1  A    between atoms: C_4  and  C_5
REMARK    2  A    between atoms: C_5  and  N_6
REMARK    3  A    between atoms: N_6  and  C_7
REMARK    4  A    between atoms: C_17  and  C_18
REMARK    5  A    between atoms: C_18  and  C_19
REMARK    6  A    between atoms: C_18  and  C_25
REMARK                            x       y       z     vdW  Elec       q    Type
REMARK                         _______ _______ _______ _____ _____    ______ ____
ROOT
ATOM      1  C   UNL     1       2.811   6.578  18.856  0.00  0.00    +0.000 C 
ATOM      2  C   UNL     1       1.562   5.648  18.666  0.00  0.00    +0.000 C 
ATOM      3  C   UNL     1       1.150   5.210  20.084  0.00  0.00    +0.000 C 
ATOM      4  C   UNL     1       2.406   4.640  20.788  0.00  0.00    +0.000 C 
ATOM      5  C   UNL     1       2.068   3.355  21.552  0.00  0.00    +0.000 C 
ATOM      6  C   UNL     1       1.853   2.127  20.673  0.00  0.00    +0.000 C 
ATOM      7  C   UNL     1       2.531   2.144  19.313  0.00  0.00    +0.000 C 
ATOM      8  C   UNL     1       2.937   3.515  18.754  0.00  0.00    +0.000 C 
ATOM      9  C   UNL     1       1.889   4.316  17.943  0.00  0.00    +0.000 C 
ATOM     10  N   UNL     1       3.500   4.376  19.821  0.00  0.00    +0.000 NA
ATOM     11  C   UNL     1       4.075   5.662  19.190  0.00  0.00    +0.000 C 
ENDROOT
BRANCH   1  12
ATOM     12  N   UNL     1       2.946   7.750  17.975  0.00  0.00    +0.000 NA
ATOM     13  H   UNL     1       3.660   8.365  18.365  0.00  0.00    +0.000 HD
BRANCH  12  14
ATOM     14  C   UNL     1       1.709   8.571  17.803  0.00  0.00    +0.000 C 
BRANCH  14  18
ATOM     15  C   UNL     1       0.598  11.527  20.815  0.00  0.00    +0.000 A 
ATOM     16  C   UNL     1       0.542  10.167  21.114  0.00  0.00    +0.000 A 
ATOM     17  C   UNL     1       0.926   9.208  20.164  0.00  0.00    +0.000 A 
ATOM     18  C   UNL     1       1.358   9.592  18.885  0.00  0.00    +0.000 A 
ATOM     19  C   UNL     1       1.503  10.971  18.639  0.00  0.00    +0.000 A 
ATOM     20  C   UNL     1       1.113  11.931  19.581  0.00  0.00    +0.000 A 
ENDBRANCH  14  18
ENDBRANCH  12  14
ENDBRANCH   1  12
BRANCH  11  21
ATOM     21  C   UNL     1       5.240   5.217  18.158  0.00  0.00    +0.000 C 
BRANCH  21  22
ATOM     22  C   UNL     1       5.124   4.829  16.665  0.00  0.00    +0.000 A 
ATOM     23  C   UNL     1       4.972   5.805  15.665  0.00  0.00    +0.000 A 
ATOM     24  C   UNL     1       5.453   5.576  14.366  0.00  0.00    +0.000 A 
ATOM     25  C   UNL     1       6.052   4.364  14.026  0.00  0.00    +0.000 A 
ATOM     26  C   UNL     1       6.129   3.349  14.974  0.00  0.00    +0.000 A 
ATOM     27  C   UNL     1       5.653   3.575  16.271  0.00  0.00    +0.000 A 
ENDBRANCH  21  22
BRANCH  21  28
ATOM     28  C   UNL     1       6.444   6.227  18.253  0.00  0.00    +0.000 A 
ATOM     29  C   UNL     1       6.457   7.392  17.473  0.00  0.00    +0.000 A 
ATOM     30  C   UNL     1       7.514   8.302  17.561  0.00  0.00    +0.000 A 
ATOM     31  C   UNL     1       8.584   8.071  18.427  0.00  0.00    +0.000 A 
ATOM     32  C   UNL     1       8.586   6.931  19.219  0.00  0.00    +0.000 A 
ATOM     33  C   UNL     1       7.525   6.036  19.146  0.00  0.00    +0.000 A 
ENDBRANCH  21  28
ENDBRANCH  11  21
TORSDOF 6
ENDMDL
MODEL 7
REMARK VINA RESULT:      -8.5      8.256     11.606
REMARK  Name = 
REMARK  6 active torsions:
REMARK  status: ('A' for Active; 'I' for Inactive)
REMARK    1  A    between atoms: C_4  and  C_5
REMARK    2  A    between atoms: C_5  and  N_6
REMARK    3  A    between atoms: N_6  and  C_7
REMARK    4  A    between atoms: C_17  and  C_18
REMARK    5  A    between atoms: C_18  and  C_19
REMARK    6  A    between atoms: C_18  and  C_25
REMARK                            x       y       z     vdW  Elec       q    Type
REMARK                         _______ _______ _______ _____ _____    ______ ____
ROOT
ATOM      1  C   UNL     1      -4.163  13.174  21.256  0.00  0.00    +0.000 C 
ATOM      2  C   UNL     1      -4.954  13.240  22.609  0.00  0.00    +0.000 C 
ATOM      3  C   UNL     1      -5.360  14.717  22.781  0.00  0.00    +0.000 C 
ATOM      4  C   UNL     1      -4.086  15.580  22.618  0.00  0.00    +0.000 C 
ATOM      5  C   UNL     1      -4.031  16.681  23.684  0.00  0.00    +0.000 C 
ATOM      6  C   UNL     1      -3.670  16.196  25.084  0.00  0.00    +0.000 C 
ATOM      7  C   UNL     1      -2.875  14.904  25.167  0.00  0.00    +0.000 C 
ATOM      8  C   UNL     1      -2.924  13.976  23.945  0.00  0.00    +0.000 C 
ATOM      9  C   UNL     1      -4.077  12.946  23.852  0.00  0.00    +0.000 C 
ATOM     10  N   UNL     1      -2.854  14.755  22.686  0.00  0.00    +0.000 NA
ATOM     11  C   UNL     1      -2.709  13.786  21.493  0.00  0.00    +0.000 C 
ENDROOT
BRANCH   1  12
ATOM     12  N   UNL     1      -4.349  11.991  20.399  0.00  0.00    +0.000 NA
ATOM     13  H   UNL     1      -3.477  11.463  20.387  0.00  0.00    +0.000 HD
BRANCH  12  14
ATOM     14  C   UNL     1      -4.705  12.277  18.977  0.00  0.00    +0.000 C 
BRANCH  14  18
ATOM     15  C   UNL     1      -2.579  10.031  15.899  0.00  0.00    +0.000 A 
ATOM     16  C   UNL     1      -3.780  10.669  15.596  0.00  0.00    +0.000 A 
ATOM     17  C   UNL     1      -4.458  11.420  16.569  0.00  0.00    +0.000 A 
ATOM     18  C   UNL     1      -3.954  11.532  17.875  0.00  0.00    +0.000 A 
ATOM     19  C   UNL     1      -2.690  10.966  18.130  0.00  0.00    +0.000 A 
ATOM     20  C   UNL     1      -2.015  10.209  17.163  0.00  0.00    +0.000 A 
ENDBRANCH  14  18
ENDBRANCH  12  14
ENDBRANCH   1  12
BRANCH  11  21
ATOM     21  C   UNL     1      -1.338  12.953  21.711  0.00  0.00    +0.000 C 
BRANCH  21  22
ATOM     22  C   UNL     1      -1.126  11.421  21.763  0.00  0.00    +0.000 A 
ATOM     23  C   UNL     1      -0.600  10.717  20.667  0.00  0.00    +0.000 A 
ATOM     24  C   UNL     1       0.136   9.538  20.862  0.00  0.00    +0.000 A 
ATOM     25  C   UNL     1       0.326   9.015  22.140  0.00  0.00    +0.000 A 
ATOM     26  C   UNL     1      -0.263   9.643  23.231  0.00  0.00    +0.000 A 
ATOM     27  C   UNL     1      -0.996  10.821  23.040  0.00  0.00    +0.000 A 
ENDBRANCH  21  22
BRANCH  21  28
ATOM     28  C   UNL     1      -0.220  13.514  20.753  0.00  0.00    +0.000 A 
ATOM     29  C   UNL     1      -0.546  13.951  19.461  0.00  0.00    +0.000 A 
ATOM     30  C   UNL     1       0.436  14.465  18.610  0.00  0.00    +0.000 A 
ATOM     31  C   UNL     1       1.766  14.553  19.026  0.00  0.00    +0.000 A 
ATOM     32  C   UNL     1       2.109  14.139  20.306  0.00  0.00    +0.000 A 
ATOM     33  C   UNL     1       1.128  13.647  21.160  0.00  0.00    +0.000 A 
ENDBRANCH  21  28
ENDBRANCH  11  21
TORSDOF 6
ENDMDL
MODEL 8
REMARK VINA RESULT:      -8.3      8.134     12.252
REMARK  Name = 
REMARK  6 active torsions:
REMARK  status: ('A' for Active; 'I' for Inactive)
REMARK    1  A    between atoms: C_4  and  C_5
REMARK    2  A    between atoms: C_5  and  N_6
REMARK    3  A    between atoms: N_6  and  C_7
REMARK    4  A    between atoms: C_17  and  C_18
REMARK    5  A    between atoms: C_18  and  C_19
REMARK    6  A    between atoms: C_18  and  C_25
REMARK                            x       y       z     vdW  Elec       q    Type
REMARK                         _______ _______ _______ _____ _____    ______ ____
ROOT
ATOM      1  C   UNL     1      -1.586  14.625  23.687  0.00  0.00    +0.000 C 
ATOM      2  C   UNL     1      -2.955  15.369  23.509  0.00  0.00    +0.000 C 
ATOM      3  C   UNL     1      -3.895  14.771  24.573  0.00  0.00    +0.000 C 
ATOM      4  C   UNL     1      -3.858  13.230  24.425  0.00  0.00    +0.000 C 
ATOM      5  C   UNL     1      -5.268  12.637  24.524  0.00  0.00    +0.000 C 
ATOM      6  C   UNL     1      -6.140  12.855  23.293  0.00  0.00    +0.000 C 
ATOM      7  C   UNL     1      -5.409  13.073  21.978  0.00  0.00    +0.000 C 
ATOM      8  C   UNL     1      -3.946  13.533  22.062  0.00  0.00    +0.000 C 
ATOM      9  C   UNL     1      -3.659  15.051  22.165  0.00  0.00    +0.000 C 
ATOM     10  N   UNL     1      -3.229  12.819  23.146  0.00  0.00    +0.000 NA
ATOM     11  C   UNL     1      -1.725  13.159  23.073  0.00  0.00    +0.000 C 
ENDROOT
BRANCH   1  12
ATOM     12  N   UNL     1      -0.346  15.398  23.509  0.00  0.00    +0.000 NA
ATOM     13  H   UNL     1       0.079  15.541  24.425  0.00  0.00    +0.000 HD
BRANCH  12  14
ATOM     14  C   UNL     1      -0.513  16.749  22.892  0.00  0.00    +0.000 C 
BRANCH  14  18
ATOM     15  C   UNL     1       0.395  17.363  18.668  0.00  0.00    +0.000 A 
ATOM     16  C   UNL     1       1.427  17.210  19.592  0.00  0.00    +0.000 A 
ATOM     17  C   UNL     1       1.148  16.981  20.947  0.00  0.00    +0.000 A 
ATOM     18  C   UNL     1      -0.176  16.919  21.412  0.00  0.00    +0.000 A 
ATOM     19  C   UNL     1      -1.201  16.976  20.448  0.00  0.00    +0.000 A 
ATOM     20  C   UNL     1      -0.926  17.212  19.094  0.00  0.00    +0.000 A 
ENDBRANCH  14  18
ENDBRANCH  12  14
ENDBRANCH   1  12
BRANCH  11  21
ATOM     21  C   UNL     1      -1.187  12.666  21.628  0.00  0.00    +0.000 C 
BRANCH  21  22
ATOM     22  C   UNL     1      -0.220  13.380  20.652  0.00  0.00    +0.000 A 
ATOM     23  C   UNL     1       1.166  13.405  20.882  0.00  0.00    +0.000 A 
ATOM     24  C   UNL     1       2.066  13.481  19.809  0.00  0.00    +0.000 A 
ATOM     25  C   UNL     1       1.609  13.577  18.495  0.00  0.00    +0.000 A 
ATOM     26  C   UNL     1       0.243  13.648  18.250  0.00  0.00    +0.000 A 
ATOM     27  C   UNL     1      -0.658  13.570  19.318  0.00  0.00    +0.000 A 
ENDBRANCH  21  22
BRANCH  21  28
ATOM     28  C   UNL     1      -0.681  11.179  21.731  0.00  0.00    +0.000 A 
ATOM     29  C   UNL     1      -0.605  10.539  22.977  0.00  0.00    +0.000 A 
ATOM     30  C   UNL     1      -0.172   9.214  23.077  0.00  0.00    +0.000 A 
ATOM     31  C   UNL     1       0.198   8.497  21.938  0.00  0.00    +0.000 A 
ATOM     32  C   UNL     1       0.118   9.105  20.692  0.00  0.00    +0.000 A 
ATOM     33  C   UNL     1      -0.333  10.417  20.591  0.00  0.00    +0.000 A 
ENDBRANCH  21  28
ENDBRANCH  11  21
TORSDOF 6
ENDMDL
MODEL 9
REMARK VINA RESULT:      -8.3      6.898     11.688
REMARK  Name = 
REMARK  6 active torsions:
REMARK  status: ('A' for Active; 'I' for Inactive)
REMARK    1  A    between atoms: C_4  and  C_5
REMARK    2  A    between atoms: C_5  and  N_6
REMARK    3  A    between atoms: N_6  and  C_7
REMARK    4  A    between atoms: C_17  and  C_18
REMARK    5  A    between atoms: C_18  and  C_19
REMARK    6  A    between atoms: C_18  and  C_25
REMARK                            x       y       z     vdW  Elec       q    Type
REMARK                         _______ _______ _______ _____ _____    ______ ____
ROOT
ATOM      1  C   UNL     1       0.091  14.003  21.341  0.00  0.00    +0.000 C 
ATOM      2  C   UNL     1       1.548  14.564  21.488  0.00  0.00    +0.000 C 
ATOM      3  C   UNL     1       1.580  15.862  20.659  0.00  0.00    +0.000 C 
ATOM      4  C   UNL     1       1.045  15.534  19.244  0.00  0.00    +0.000 C 
ATOM      5  C   UNL     1       1.908  16.200  18.166  0.00  0.00    +0.000 C 
ATOM      6  C   UNL     1       3.265  15.543  17.938  0.00  0.00    +0.000 C 
ATOM      7  C   UNL     1       3.377  14.076  18.318  0.00  0.00    +0.000 C 
ATOM      8  C   UNL     1       2.337  13.531  19.307  0.00  0.00    +0.000 C 
ATOM      9  C   UNL     1       2.624  13.669  20.822  0.00  0.00    +0.000 C 
ATOM     10  N   UNL     1       0.989  14.070  19.008  0.00  0.00    +0.000 NA
ATOM     11  C   UNL     1      -0.055  13.354  19.891  0.00  0.00    +0.000 C 
ENDROOT
BRANCH   1  12
ATOM     12  N   UNL     1      -0.532  13.367  22.514  0.00  0.00    +0.000 NA
ATOM     13  H   UNL     1      -0.825  12.427  22.252  0.00  0.00    +0.000 HD
BRANCH  12  14
ATOM     14  C   UNL     1      -1.736  14.063  23.059  0.00  0.00    +0.000 C 
BRANCH  14  18
ATOM     15  C   UNL     1      -5.568  13.739  20.997  0.00  0.00    +0.000 A 
ATOM     16  C   UNL     1      -4.719  14.812  20.732  0.00  0.00    +0.000 A 
ATOM     17  C   UNL     1      -3.471  14.911  21.366  0.00  0.00    +0.000 A 
ATOM     18  C   UNL     1      -3.054  13.944  22.295  0.00  0.00    +0.000 A 
ATOM     19  C   UNL     1      -3.881  12.818  22.471  0.00  0.00    +0.000 A 
ATOM     20  C   UNL     1      -5.131  12.720  21.845  0.00  0.00    +0.000 A 
ENDBRANCH  14  18
ENDBRANCH  12  14
ENDBRANCH   1  12
BRANCH  11  21
ATOM     21  C   UNL     1       0.008  11.776  19.532  0.00  0.00    +0.000 C 
BRANCH  21  22
ATOM     22  C   UNL     1       0.455  10.592  20.422  0.00  0.00    +0.000 A 
ATOM     23  C   UNL     1      -0.346  10.125  21.477  0.00  0.00    +0.000 A 
ATOM     24  C   UNL     1      -0.290   8.781  21.876  0.00  0.00    +0.000 A 
ATOM     25  C   UNL     1       0.589   7.888  21.265  0.00  0.00    +0.000 A 
ATOM     26  C   UNL     1       1.458   8.348  20.282  0.00  0.00    +0.000 A 
ATOM     27  C   UNL     1       1.403   9.688  19.880  0.00  0.00    +0.000 A 
ENDBRANCH  21  22
BRANCH  21  28
ATOM     28  C   UNL     1      -1.347  11.331  18.865  0.00  0.00    +0.000 A 
ATOM     29  C   UNL     1      -2.532  12.035  19.124  0.00  0.00    +0.000 A 
ATOM     30  C   UNL     1      -3.736  11.657  18.524  0.00  0.00    +0.000 A 
ATOM     31  C   UNL     1      -3.788  10.568  17.653  0.00  0.00    +0.000 A 
ATOM     32  C   UNL     1      -2.625   9.864  17.371  0.00  0.00    +0.000 A 
ATOM     33  C   UNL     1      -1.423  10.253  17.952  0.00  0.00    +0.000 A 
ENDBRANCH  21  28
ENDBRANCH  11  21
TORSDOF 6
ENDMDL
