MODEL 1
REMARK VINA RESULT:      -7.4      0.000      0.000
REMARK  Name = 
REMARK  9 active torsions:
REMARK  status: ('A' for Active; 'I' for Inactive)
REMARK    1  A    between atoms: C_1  and  N_2
REMARK    2  A    between atoms: N_2  and  C_3
REMARK    3  A    between atoms: N_2  and  C_4
REMARK    4  A    between atoms: C_11  and  C_12
REMARK    5  A    between atoms: N_17  and  C_18
REMARK    6  A    between atoms: C_18  and  C_19
REMARK    7  A    between atoms: C_19  and  N_20
REMARK    8  A    between atoms: N_20  and  C_21
REMARK    9  A    between atoms: C_21  and  C_22
REMARK                            x       y       z     vdW  Elec       q    Type
REMARK                         _______ _______ _______ _____ _____    ______ ____
ROOT
ATOM      1  C   UNL     1       3.165   4.025  19.322  0.00  0.00    +0.000 A 
ATOM      2  C   UNL     1       3.873   3.875  18.102  0.00  0.00    +0.000 A 
ATOM      3  C   UNL     1       4.085   4.920  17.200  0.00  0.00    +0.000 A 
ATOM      4  C   UNL     1       3.597   6.195  17.455  0.00  0.00    +0.000 A 
ATOM      5  C   UNL     1       2.895   6.379  18.651  0.00  0.00    +0.000 A 
ATOM      6  C   UNL     1       2.676   5.352  19.570  0.00  0.00    +0.000 A 
ATOM      7  N   UNL     1       1.972   5.850  20.659  0.00  0.00    +0.000 NA
ATOM      8  C   UNL     1       1.749   7.127  20.413  0.00  0.00    +0.000 A 
ATOM      9  N   UNL     1       2.295   7.498  19.204  0.00  0.00    +0.000 N 
ENDROOT
BRANCH   8  10
ATOM     10  C   UNL     1       1.035   8.005  21.293  0.00  0.00    +0.000 A 
ATOM     11  C   UNL     1      -0.331   8.093  21.508  0.00  0.00    +0.000 A 
ATOM     12  C   UNL     1      -0.541   9.102  22.484  0.00  0.00    +0.000 A 
ATOM     13  C   UNL     1       0.701   9.587  22.801  0.00  0.00    +0.000 A 
ATOM     14  O   UNL     1       1.656   8.928  22.099  0.00  0.00    +0.000 OA
ENDBRANCH   8  10
BRANCH   1  16
ATOM     15  C   UNL     1       4.133   2.250  20.745  0.00  0.00    +0.000 C 
ATOM     16  N   UNL     1       2.971   2.900  20.147  0.00  0.00    +0.000 N 
ATOM     17  C   UNL     1       1.680   2.716  20.795  0.00  0.00    +0.000 C 
ENDBRANCH   1  16
BRANCH   9  18
ATOM     18  C   UNL     1       2.313   8.839  18.644  0.00  0.00    +0.000 C 
BRANCH  18  19
ATOM     19  C   UNL     1       1.107   9.096  17.732  0.00  0.00    +0.000 C 
BRANCH  19  20
ATOM     20  N   UNL     1       0.544  10.445  17.904  0.00  0.00    +0.000 NA
ATOM     21  H   UNL     1       0.288  10.843  17.001  0.00  0.00    +0.000 HD
BRANCH  20  22
ATOM     22  C   UNL     1      -0.663  10.374  18.740  0.00  0.00    +0.000 C 
BRANCH  22  23
ATOM     23  C   UNL     1      -1.927  10.592  17.943  0.00  0.00    +0.000 A 
ATOM     24  C   UNL     1      -2.923  11.458  18.419  0.00  0.00    +0.000 A 
ATOM     25  C   UNL     1      -4.085  11.683  17.678  0.00  0.00    +0.000 A 
ATOM     26  C   UNL     1      -4.262  11.051  16.450  0.00  0.00    +0.000 A 
ATOM     27  C   UNL     1      -3.276  10.198  15.959  0.00  0.00    +0.000 A 
ATOM     28  C   UNL     1      -2.114   9.970  16.699  0.00  0.00    +0.000 A 
ENDBRANCH  22  23
ENDBRANCH  20  22
ENDBRANCH  19  20
ENDBRANCH  18  19
ENDBRANCH   9  18
TORSDOF 7
ENDMDL
MODEL 2
REMARK VINA RESULT:      -7.3      0.504      1.072
REMARK  Name = 
REMARK  9 active torsions:
REMARK  status: ('A' for Active; 'I' for Inactive)
REMARK    1  A    between atoms: C_1  and  N_2
REMARK    2  A    between atoms: N_2  and  C_3
REMARK    3  A    between atoms: N_2  and  C_4
REMARK    4  A    between atoms: C_11  and  C_12
REMARK    5  A    between atoms: N_17  and  C_18
REMARK    6  A    between atoms: C_18  and  C_19
REMARK    7  A    between atoms: C_19  and  N_20
REMARK    8  A    between atoms: N_20  and  C_21
REMARK    9  A    between atoms: C_21  and  C_22
REMARK                            x       y       z     vdW  Elec       q    Type
REMARK                         _______ _______ _______ _____ _____    ______ ____
ROOT
ATOM      1  C   UNL     1       2.896   4.078  19.303  0.00  0.00    +0.000 A 
ATOM      2  C   UNL     1       3.652   3.931  18.112  0.00  0.00    +0.000 A 
ATOM      3  C   UNL     1       3.974   4.996  17.267  0.00  0.00    +0.000 A 
ATOM      4  C   UNL     1       3.557   6.289  17.555  0.00  0.00    +0.000 A 
ATOM      5  C   UNL     1       2.811   6.470  18.725  0.00  0.00    +0.000 A 
ATOM      6  C   UNL     1       2.481   5.422  19.586  0.00  0.00    +0.000 A 
ATOM      7  N   UNL     1       1.759   5.921  20.662  0.00  0.00    +0.000 NA
ATOM      8  C   UNL     1       1.630   7.219  20.463  0.00  0.00    +0.000 A 
ATOM      9  N   UNL     1       2.258   7.602  19.298  0.00  0.00    +0.000 N 
ENDROOT
BRANCH   8  10
ATOM     10  C   UNL     1       0.932   8.105  21.347  0.00  0.00    +0.000 A 
ATOM     11  C   UNL     1      -0.435   8.273  21.504  0.00  0.00    +0.000 A 
ATOM     12  C   UNL     1      -0.627   9.254  22.511  0.00  0.00    +0.000 A 
ATOM     13  C   UNL     1       0.627   9.644  22.904  0.00  0.00    +0.000 A 
ATOM     14  O   UNL     1       1.570   8.954  22.219  0.00  0.00    +0.000 OA
ENDBRANCH   8  10
BRANCH   1  16
ATOM     15  C   UNL     1       2.607   3.031  21.524  0.00  0.00    +0.000 C 
ATOM     16  N   UNL     1       2.590   2.935  20.068  0.00  0.00    +0.000 N 
ATOM     17  C   UNL     1       1.793   1.877  19.465  0.00  0.00    +0.000 C 
ENDBRANCH   1  16
BRANCH   9  18
ATOM     18  C   UNL     1       2.389   8.961  18.799  0.00  0.00    +0.000 C 
BRANCH  18  19
ATOM     19  C   UNL     1       1.273   9.320  17.811  0.00  0.00    +0.000 C 
BRANCH  19  20
ATOM     20  N   UNL     1       0.783  10.697  17.983  0.00  0.00    +0.000 NA
ATOM     21  H   UNL     1       0.499  11.090  17.087  0.00  0.00    +0.000 HD
BRANCH  20  22
ATOM     22  C   UNL     1      -0.379  10.700  18.882  0.00  0.00    +0.000 C 
BRANCH  22  23
ATOM     23  C   UNL     1      -1.687  10.767  18.128  0.00  0.00    +0.000 A 
ATOM     24  C   UNL     1      -1.896   9.959  17.001  0.00  0.00    +0.000 A 
ATOM     25  C   UNL     1      -3.110   9.997  16.313  0.00  0.00    +0.000 A 
ATOM     26  C   UNL     1      -4.132  10.838  16.747  0.00  0.00    +0.000 A 
ATOM     27  C   UNL     1      -3.943  11.637  17.873  0.00  0.00    +0.000 A 
ATOM     28  C   UNL     1      -2.728  11.602  18.561  0.00  0.00    +0.000 A 
ENDBRANCH  22  23
ENDBRANCH  20  22
ENDBRANCH  19  20
ENDBRANCH  18  19
ENDBRANCH   9  18
TORSDOF 7
ENDMDL
MODEL 3
REMARK VINA RESULT:      -7.2      4.916      8.415
REMARK  Name = 
REMARK  9 active torsions:
REMARK  status: ('A' for Active; 'I' for Inactive)
REMARK    1  A    between atoms: C_1  and  N_2
REMARK    2  A    between atoms: N_2  and  C_3
REMARK    3  A    between atoms: N_2  and  C_4
REMARK    4  A    between atoms: C_11  and  C_12
REMARK    5  A    between atoms: N_17  and  C_18
REMARK    6  A    between atoms: C_18  and  C_19
REMARK    7  A    between atoms: C_19  and  N_20
REMARK    8  A    between atoms: N_20  and  C_21
REMARK    9  A    between atoms: C_21  and  C_22
REMARK                            x       y       z     vdW  Elec       q    Type
REMARK                         _______ _______ _______ _____ _____    ______ ____
ROOT
ATOM      1  C   UNL     1       2.791   3.563  19.577  0.00  0.00    +0.000 A 
ATOM      2  C   UNL     1       2.273   2.355  19.043  0.00  0.00    +0.000 A 
ATOM      3  C   UNL     1       2.812   1.711  17.927  0.00  0.00    +0.000 A 
ATOM      4  C   UNL     1       3.913   2.236  17.261  0.00  0.00    +0.000 A 
ATOM      5  C   UNL     1       4.451   3.425  17.763  0.00  0.00    +0.000 A 
ATOM      6  C   UNL     1       3.932   4.084  18.879  0.00  0.00    +0.000 A 
ATOM      7  N   UNL     1       4.691   5.217  19.140  0.00  0.00    +0.000 NA
ATOM      8  C   UNL     1       5.628   5.267  18.212  0.00  0.00    +0.000 A 
ATOM      9  N   UNL     1       5.526   4.195  17.352  0.00  0.00    +0.000 N 
ENDROOT
BRANCH   8  10
ATOM     10  C   UNL     1       6.617   6.300  18.119  0.00  0.00    +0.000 A 
ATOM     11  C   UNL     1       6.660   7.384  17.257  0.00  0.00    +0.000 A 
ATOM     12  C   UNL     1       7.829   8.126  17.569  0.00  0.00    +0.000 A 
ATOM     13  C   UNL     1       8.445   7.451  18.590  0.00  0.00    +0.000 A 
ATOM     14  O   UNL     1       7.721   6.358  18.935  0.00  0.00    +0.000 OA
ENDBRANCH   8  10
BRANCH   1  16
ATOM     15  C   UNL     1       1.451   5.424  20.502  0.00  0.00    +0.000 C 
ATOM     16  N   UNL     1       2.151   4.156  20.683  0.00  0.00    +0.000 N 
ATOM     17  C   UNL     1       1.753   3.313  21.802  0.00  0.00    +0.000 C 
ENDBRANCH   1  16
BRANCH   9  18
ATOM     18  C   UNL     1       6.431   3.881  16.260  0.00  0.00    +0.000 C 
BRANCH  18  19
ATOM     19  C   UNL     1       6.161   4.747  15.023  0.00  0.00    +0.000 C 
BRANCH  19  20
ATOM     20  N   UNL     1       7.384   5.042  14.259  0.00  0.00    +0.000 NA
ATOM     21  H   UNL     1       8.066   4.292  14.374  0.00  0.00    +0.000 HD
BRANCH  20  22
ATOM     22  C   UNL     1       7.059   5.160  12.831  0.00  0.00    +0.000 C 
BRANCH  22  23
ATOM     23  C   UNL     1       6.657   3.837  12.222  0.00  0.00    +0.000 A 
ATOM     24  C   UNL     1       5.301   3.507  12.080  0.00  0.00    +0.000 A 
ATOM     25  C   UNL     1       4.920   2.297  11.497  0.00  0.00    +0.000 A 
ATOM     26  C   UNL     1       5.890   1.406  11.041  0.00  0.00    +0.000 A 
ATOM     27  C   UNL     1       7.240   1.727  11.164  0.00  0.00    +0.000 A 
ATOM     28  C   UNL     1       7.623   2.936  11.749  0.00  0.00    +0.000 A 
ENDBRANCH  22  23
ENDBRANCH  20  22
ENDBRANCH  19  20
ENDBRANCH  18  19
ENDBRANCH   9  18
TORSDOF 7
ENDMDL
MODEL 4
REMARK VINA RESULT:      -7.1      3.018      7.714
REMARK  Name = 
REMARK  9 active torsions:
REMARK  status: ('A' for Active; 'I' for Inactive)
REMARK    1  A    between atoms: C_1  and  N_2
REMARK    2  A    between atoms: N_2  and  C_3
REMARK    3  A    between atoms: N_2  and  C_4
REMARK    4  A    between atoms: C_11  and  C_12
REMARK    5  A    between atoms: N_17  and  C_18
REMARK    6  A    between atoms: C_18  and  C_19
REMARK    7  A    between atoms: C_19  and  N_20
REMARK    8  A    between atoms: N_20  and  C_21
REMARK    9  A    between atoms: C_21  and  C_22
REMARK                            x       y       z     vdW  Elec       q    Type
REMARK                         _______ _______ _______ _____ _____    ______ ____
ROOT
ATOM      1  C   UNL     1       1.055   9.429  20.198  0.00  0.00    +0.000 A 
ATOM      2  C   UNL     1       1.366  10.353  19.168  0.00  0.00    +0.000 A 
ATOM      3  C   UNL     1       2.031  10.001  17.991  0.00  0.00    +0.000 A 
ATOM      4  C   UNL     1       2.435   8.692  17.762  0.00  0.00    +0.000 A 
ATOM      5  C   UNL     1       2.141   7.754  18.757  0.00  0.00    +0.000 A 
ATOM      6  C   UNL     1       1.475   8.081  19.939  0.00  0.00    +0.000 A 
ATOM      7  N   UNL     1       1.315   6.937  20.709  0.00  0.00    +0.000 NA
ATOM      8  C   UNL     1       1.877   5.948  20.040  0.00  0.00    +0.000 A 
ATOM      9  N   UNL     1       2.391   6.394  18.843  0.00  0.00    +0.000 N 
ENDROOT
BRANCH   8  10
ATOM     10  C   UNL     1       1.938   4.593  20.504  0.00  0.00    +0.000 A 
ATOM     11  C   UNL     1       2.664   4.071  21.562  0.00  0.00    +0.000 A 
ATOM     12  C   UNL     1       2.377   2.682  21.628  0.00  0.00    +0.000 A 
ATOM     13  C   UNL     1       1.507   2.427  20.600  0.00  0.00    +0.000 A 
ATOM     14  O   UNL     1       1.229   3.568  19.925  0.00  0.00    +0.000 OA
ENDBRANCH   8  10
BRANCH   1  16
ATOM     15  C   UNL     1       0.863   9.390  22.663  0.00  0.00    +0.000 C 
ATOM     16  N   UNL     1       0.417   9.890  21.366  0.00  0.00    +0.000 N 
ATOM     17  C   UNL     1      -0.273  11.171  21.332  0.00  0.00    +0.000 C 
ENDBRANCH   1  16
BRANCH   9  18
ATOM     18  C   UNL     1       3.011   5.575  17.815  0.00  0.00    +0.000 C 
BRANCH  18  19
ATOM     19  C   UNL     1       4.501   5.898  17.644  0.00  0.00    +0.000 C 
BRANCH  19  20
ATOM     20  N   UNL     1       4.923   5.898  16.235  0.00  0.00    +0.000 NA
ATOM     21  H   UNL     1       5.126   6.847  15.923  0.00  0.00    +0.000 HD
BRANCH  20  22
ATOM     22  C   UNL     1       6.139   5.088  16.082  0.00  0.00    +0.000 C 
BRANCH  22  23
ATOM     23  C   UNL     1       6.424   4.745  14.638  0.00  0.00    +0.000 A 
ATOM     24  C   UNL     1       7.514   5.328  13.975  0.00  0.00    +0.000 A 
ATOM     25  C   UNL     1       7.798   5.000  12.648  0.00  0.00    +0.000 A 
ATOM     26  C   UNL     1       7.001   4.080  11.971  0.00  0.00    +0.000 A 
ATOM     27  C   UNL     1       5.923   3.484  12.621  0.00  0.00    +0.000 A 
ATOM     28  C   UNL     1       5.635   3.813  13.948  0.00  0.00    +0.000 A 
ENDBRANCH  22  23
ENDBRANCH  20  22
ENDBRANCH  19  20
ENDBRANCH  18  19
ENDBRANCH   9  18
TORSDOF 7
ENDMDL
MODEL 5
REMARK VINA RESULT:      -7.1      4.868      8.439
REMARK  Name = 
REMARK  9 active torsions:
REMARK  status: ('A' for Active; 'I' for Inactive)
REMARK    1  A    between atoms: C_1  and  N_2
REMARK    2  A    between atoms: N_2  and  C_3
REMARK    3  A    between atoms: N_2  and  C_4
REMARK    4  A    between atoms: C_11  and  C_12
REMARK    5  A    between atoms: N_17  and  C_18
REMARK    6  A    between atoms: C_18  and  C_19
REMARK    7  A    between atoms: C_19  and  N_20
REMARK    8  A    between atoms: N_20  and  C_21
REMARK    9  A    between atoms: C_21  and  C_22
REMARK                            x       y       z     vdW  Elec       q    Type
REMARK                         _______ _______ _______ _____ _____    ______ ____
ROOT
ATOM      1  C   UNL     1       2.620   3.645  19.473  0.00  0.00    +0.000 A 
ATOM      2  C   UNL     1       2.076   2.464  18.907  0.00  0.00    +0.000 A 
ATOM      3  C   UNL     1       2.614   1.826  17.787  0.00  0.00    +0.000 A 
ATOM      4  C   UNL     1       3.740   2.331  17.149  0.00  0.00    +0.000 A 
ATOM      5  C   UNL     1       4.304   3.495  17.683  0.00  0.00    +0.000 A 
ATOM      6  C   UNL     1       3.786   4.146  18.804  0.00  0.00    +0.000 A 
ATOM      7  N   UNL     1       4.574   5.251  19.099  0.00  0.00    +0.000 NA
ATOM      8  C   UNL     1       5.526   5.292  18.186  0.00  0.00    +0.000 A 
ATOM      9  N   UNL     1       5.407   4.241  17.304  0.00  0.00    +0.000 N 
ENDROOT
BRANCH   8  10
ATOM     10  C   UNL     1       6.546   6.298  18.130  0.00  0.00    +0.000 A 
ATOM     11  C   UNL     1       6.617   7.415  17.313  0.00  0.00    +0.000 A 
ATOM     12  C   UNL     1       7.810   8.107  17.647  0.00  0.00    +0.000 A 
ATOM     13  C   UNL     1       8.411   7.372  18.636  0.00  0.00    +0.000 A 
ATOM     14  O   UNL     1       7.656   6.289  18.940  0.00  0.00    +0.000 OA
ENDBRANCH   8  10
BRANCH   1  16
ATOM     15  C   UNL     1       2.100   3.600  21.890  0.00  0.00    +0.000 C 
ATOM     16  N   UNL     1       1.980   4.234  20.581  0.00  0.00    +0.000 N 
ATOM     17  C   UNL     1       1.668   5.656  20.540  0.00  0.00    +0.000 C 
ENDBRANCH   1  16
BRANCH   9  18
ATOM     18  C   UNL     1       6.320   3.922  16.220  0.00  0.00    +0.000 C 
BRANCH  18  19
ATOM     19  C   UNL     1       6.214   4.927  15.065  0.00  0.00    +0.000 C 
BRANCH  19  20
ATOM     20  N   UNL     1       7.436   4.983  14.248  0.00  0.00    +0.000 NA
ATOM     21  H   UNL     1       7.974   4.122  14.350  0.00  0.00    +0.000 HD
BRANCH  20  22
ATOM     22  C   UNL     1       7.078   5.141  12.832  0.00  0.00    +0.000 C 
BRANCH  22  23
ATOM     23  C   UNL     1       6.683   3.832  12.189  0.00  0.00    +0.000 A 
ATOM     24  C   UNL     1       7.667   2.937  11.745  0.00  0.00    +0.000 A 
ATOM     25  C   UNL     1       7.311   1.715  11.171  0.00  0.00    +0.000 A 
ATOM     26  C   UNL     1       5.968   1.370  11.041  0.00  0.00    +0.000 A 
ATOM     27  C   UNL     1       4.980   2.244  11.490  0.00  0.00    +0.000 A 
ATOM     28  C   UNL     1       5.334   3.468  12.063  0.00  0.00    +0.000 A 
ENDBRANCH  22  23
ENDBRANCH  20  22
ENDBRANCH  19  20
ENDBRANCH  18  19
ENDBRANCH   9  18
TORSDOF 7
ENDMDL
MODEL 6
REMARK VINA RESULT:      -7.1      2.792      7.423
REMARK  Name = 
REMARK  9 active torsions:
REMARK  status: ('A' for Active; 'I' for Inactive)
REMARK    1  A    between atoms: C_1  and  N_2
REMARK    2  A    between atoms: N_2  and  C_3
REMARK    3  A    between atoms: N_2  and  C_4
REMARK    4  A    between atoms: C_11  and  C_12
REMARK    5  A    between atoms: N_17  and  C_18
REMARK    6  A    between atoms: C_18  and  C_19
REMARK    7  A    between atoms: C_19  and  N_20
REMARK    8  A    between atoms: N_20  and  C_21
REMARK    9  A    between atoms: C_21  and  C_22
REMARK                            x       y       z     vdW  Elec       q    Type
REMARK                         _______ _______ _______ _____ _____    ______ ____
ROOT
ATOM      1  C   UNL     1       0.685   9.847  20.317  0.00  0.00    +0.000 A 
ATOM      2  C   UNL     1       1.092  10.802  19.351  0.00  0.00    +0.000 A 
ATOM      3  C   UNL     1       1.907  10.496  18.259  0.00  0.00    +0.000 A 
ATOM      4  C   UNL     1       2.379   9.204  18.058  0.00  0.00    +0.000 A 
ATOM      5  C   UNL     1       1.994   8.236  18.992  0.00  0.00    +0.000 A 
ATOM      6  C   UNL     1       1.177   8.518  20.088  0.00  0.00    +0.000 A 
ATOM      7  N   UNL     1       0.959   7.353  20.812  0.00  0.00    +0.000 NA
ATOM      8  C   UNL     1       1.631   6.396  20.200  0.00  0.00    +0.000 A 
ATOM      9  N   UNL     1       2.275   6.883  19.084  0.00  0.00    +0.000 N 
ENDROOT
BRANCH   8  10
ATOM     10  C   UNL     1       1.677   5.034  20.643  0.00  0.00    +0.000 A 
ATOM     11  C   UNL     1       0.883   3.968  20.252  0.00  0.00    +0.000 A 
ATOM     12  C   UNL     1       1.329   2.824  20.964  0.00  0.00    +0.000 A 
ATOM     13  C   UNL     1       2.358   3.252  21.761  0.00  0.00    +0.000 A 
ATOM     14  O   UNL     1       2.582   4.575  21.570  0.00  0.00    +0.000 OA
ENDBRANCH   8  10
BRANCH   1  16
ATOM     15  C   UNL     1       0.247   9.823  22.750  0.00  0.00    +0.000 C 
ATOM     16  N   UNL     1      -0.107  10.264  21.405  0.00  0.00    +0.000 N 
ATOM     17  C   UNL     1      -0.901  11.477  21.274  0.00  0.00    +0.000 C 
ENDBRANCH   1  16
BRANCH   9  18
ATOM     18  C   UNL     1       3.043   6.105  18.127  0.00  0.00    +0.000 C 
BRANCH  18  19
ATOM     19  C   UNL     1       4.554   6.297  18.312  0.00  0.00    +0.000 C 
BRANCH  19  20
ATOM     20  N   UNL     1       5.187   5.167  19.010  0.00  0.00    +0.000 NA
ATOM     21  H   UNL     1       4.684   4.952  19.871  0.00  0.00    +0.000 HD
BRANCH  20  22
ATOM     22  C   UNL     1       5.164   3.977  18.149  0.00  0.00    +0.000 C 
BRANCH  22  23
ATOM     23  C   UNL     1       5.714   4.254  16.770  0.00  0.00    +0.000 A 
ATOM     24  C   UNL     1       7.047   4.661  16.609  0.00  0.00    +0.000 A 
ATOM     25  C   UNL     1       7.571   4.897  15.337  0.00  0.00    +0.000 A 
ATOM     26  C   UNL     1       6.771   4.724  14.209  0.00  0.00    +0.000 A 
ATOM     27  C   UNL     1       5.448   4.308  14.354  0.00  0.00    +0.000 A 
ATOM     28  C   UNL     1       4.922   4.073  15.626  0.00  0.00    +0.000 A 
ENDBRANCH  22  23
ENDBRANCH  20  22
ENDBRANCH  19  20
ENDBRANCH  18  19
ENDBRANCH   9  18
TORSDOF 7
ENDMDL
MODEL 7
REMARK VINA RESULT:      -7.0      3.014      7.748
REMARK  Name = 
REMARK  9 active torsions:
REMARK  status: ('A' for Active; 'I' for Inactive)
REMARK    1  A    between atoms: C_1  and  N_2
REMARK    2  A    between atoms: N_2  and  C_3
REMARK    3  A    between atoms: N_2  and  C_4
REMARK    4  A    between atoms: C_11  and  C_12
REMARK    5  A    between atoms: N_17  and  C_18
REMARK    6  A    between atoms: C_18  and  C_19
REMARK    7  A    between atoms: C_19  and  N_20
REMARK    8  A    between atoms: N_20  and  C_21
REMARK    9  A    between atoms: C_21  and  C_22
REMARK                            x       y       z     vdW  Elec       q    Type
REMARK                         _______ _______ _______ _____ _____    ______ ____
ROOT
ATOM      1  C   UNL     1       1.105   9.018  20.084  0.00  0.00    +0.000 A 
ATOM      2  C   UNL     1       1.204  10.028  19.093  0.00  0.00    +0.000 A 
ATOM      3  C   UNL     1       1.904   9.867  17.896  0.00  0.00    +0.000 A 
ATOM      4  C   UNL     1       2.561   8.678  17.605  0.00  0.00    +0.000 A 
ATOM      5  C   UNL     1       2.481   7.659  18.560  0.00  0.00    +0.000 A 
ATOM      6  C   UNL     1       1.783   7.795  19.762  0.00  0.00    +0.000 A 
ATOM      7  N   UNL     1       1.872   6.611  20.482  0.00  0.00    +0.000 NA
ATOM      8  C   UNL     1       2.610   5.785  19.765  0.00  0.00    +0.000 A 
ATOM      9  N   UNL     1       3.002   6.376  18.584  0.00  0.00    +0.000 N 
ENDROOT
BRANCH   8  10
ATOM     10  C   UNL     1       2.952   4.453  20.167  0.00  0.00    +0.000 A 
ATOM     11  C   UNL     1       3.992   3.653  19.721  0.00  0.00    +0.000 A 
ATOM     12  C   UNL     1       3.918   2.427  20.434  0.00  0.00    +0.000 A 
ATOM     13  C   UNL     1       2.832   2.537  21.263  0.00  0.00    +0.000 A 
ATOM     14  O   UNL     1       2.250   3.752  21.118  0.00  0.00    +0.000 OA
ENDBRANCH   8  10
BRANCH   1  16
ATOM     15  C   UNL     1       0.356  10.664  21.770  0.00  0.00    +0.000 C 
ATOM     16  N   UNL     1       0.408   9.291  21.277  0.00  0.00    +0.000 N 
ATOM     17  C   UNL     1      -0.639   8.375  21.708  0.00  0.00    +0.000 C 
ENDBRANCH   1  16
BRANCH   9  18
ATOM     18  C   UNL     1       3.756   5.743  17.515  0.00  0.00    +0.000 C 
BRANCH  18  19
ATOM     19  C   UNL     1       5.157   6.349  17.364  0.00  0.00    +0.000 C 
BRANCH  19  20
ATOM     20  N   UNL     1       5.612   6.384  15.965  0.00  0.00    +0.000 NA
ATOM     21  H   UNL     1       5.988   7.304  15.734  0.00  0.00    +0.000 HD
BRANCH  20  22
ATOM     22  C   UNL     1       6.670   5.385  15.763  0.00  0.00    +0.000 C 
BRANCH  22  23
ATOM     23  C   UNL     1       6.622   4.767  14.386  0.00  0.00    +0.000 A 
ATOM     24  C   UNL     1       5.546   3.945  14.018  0.00  0.00    +0.000 A 
ATOM     25  C   UNL     1       5.481   3.388  12.739  0.00  0.00    +0.000 A 
ATOM     26  C   UNL     1       6.486   3.651  11.811  0.00  0.00    +0.000 A 
ATOM     27  C   UNL     1       7.554   4.477  12.159  0.00  0.00    +0.000 A 
ATOM     28  C   UNL     1       7.622   5.033  13.438  0.00  0.00    +0.000 A 
ENDBRANCH  22  23
ENDBRANCH  20  22
ENDBRANCH  19  20
ENDBRANCH  18  19
ENDBRANCH   9  18
TORSDOF 7
ENDMDL
MODEL 8
REMARK VINA RESULT:      -7.0      1.639      2.761
REMARK  Name = 
REMARK  9 active torsions:
REMARK  status: ('A' for Active; 'I' for Inactive)
REMARK    1  A    between atoms: C_1  and  N_2
REMARK    2  A    between atoms: N_2  and  C_3
REMARK    3  A    between atoms: N_2  and  C_4
REMARK    4  A    between atoms: C_11  and  C_12
REMARK    5  A    between atoms: N_17  and  C_18
REMARK    6  A    between atoms: C_18  and  C_19
REMARK    7  A    between atoms: C_19  and  N_20
REMARK    8  A    between atoms: N_20  and  C_21
REMARK    9  A    between atoms: C_21  and  C_22
REMARK                            x       y       z     vdW  Elec       q    Type
REMARK                         _______ _______ _______ _____ _____    ______ ____
ROOT
ATOM      1  C   UNL     1       3.386   4.282  19.330  0.00  0.00    +0.000 A 
ATOM      2  C   UNL     1       4.066   4.169  18.090  0.00  0.00    +0.000 A 
ATOM      3  C   UNL     1       4.174   5.215  17.171  0.00  0.00    +0.000 A 
ATOM      4  C   UNL     1       3.602   6.455  17.429  0.00  0.00    +0.000 A 
ATOM      5  C   UNL     1       2.926   6.602  18.645  0.00  0.00    +0.000 A 
ATOM      6  C   UNL     1       2.809   5.572  19.580  0.00  0.00    +0.000 A 
ATOM      7  N   UNL     1       2.105   6.031  20.685  0.00  0.00    +0.000 NA
ATOM      8  C   UNL     1       1.782   7.286  20.434  0.00  0.00    +0.000 A 
ATOM      9  N   UNL     1       2.263   7.680  19.206  0.00  0.00    +0.000 N 
ENDROOT
BRANCH   8  10
ATOM     10  C   UNL     1       1.033   8.120  21.328  0.00  0.00    +0.000 A 
ATOM     11  C   UNL     1       1.495   9.104  22.186  0.00  0.00    +0.000 A 
ATOM     12  C   UNL     1       0.365   9.654  22.846  0.00  0.00    +0.000 A 
ATOM     13  C   UNL     1      -0.722   8.969  22.369  0.00  0.00    +0.000 A 
ATOM     14  O   UNL     1      -0.334   8.052  21.450  0.00  0.00    +0.000 OA
ENDBRANCH   8  10
BRANCH   1  16
ATOM     15  C   UNL     1       1.990   2.730  20.655  0.00  0.00    +0.000 C 
ATOM     16  N   UNL     1       3.299   3.156  20.171  0.00  0.00    +0.000 N 
ATOM     17  C   UNL     1       4.365   2.164  20.133  0.00  0.00    +0.000 C 
ENDBRANCH   1  16
BRANCH   9  18
ATOM     18  C   UNL     1       2.166   9.013  18.633  0.00  0.00    +0.000 C 
BRANCH  18  19
ATOM     19  C   UNL     1       0.875   9.198  17.825  0.00  0.00    +0.000 C 
BRANCH  19  20
ATOM     20  N   UNL     1       0.373  10.581  17.869  0.00  0.00    +0.000 NA
ATOM     21  H   UNL     1       0.092  10.889  16.939  0.00  0.00    +0.000 HD
BRANCH  20  22
ATOM     22  C   UNL     1      -0.796  10.655  18.756  0.00  0.00    +0.000 C 
BRANCH  22  23
ATOM     23  C   UNL     1      -0.602  11.643  19.882  0.00  0.00    +0.000 A 
ATOM     24  C   UNL     1       0.664  12.193  20.129  0.00  0.00    +0.000 A 
ATOM     25  C   UNL     1       0.848  13.125  21.153  0.00  0.00    +0.000 A 
ATOM     26  C   UNL     1      -0.232  13.523  21.936  0.00  0.00    +0.000 A 
ATOM     27  C   UNL     1      -1.499  12.995  21.693  0.00  0.00    +0.000 A 
ATOM     28  C   UNL     1      -1.684  12.061  20.671  0.00  0.00    +0.000 A 
ENDBRANCH  22  23
ENDBRANCH  20  22
ENDBRANCH  19  20
ENDBRANCH  18  19
ENDBRANCH   9  18
TORSDOF 7
ENDMDL
MODEL 9
REMARK VINA RESULT:      -6.9      2.972      7.440
REMARK  Name = 
REMARK  9 active torsions:
REMARK  status: ('A' for Active; 'I' for Inactive)
REMARK    1  A    between atoms: C_1  and  N_2
REMARK    2  A    between atoms: N_2  and  C_3
REMARK    3  A    between atoms: N_2  and  C_4
REMARK    4  A    between atoms: C_11  and  C_12
REMARK    5  A    between atoms: N_17  and  C_18
REMARK    6  A    between atoms: C_18  and  C_19
REMARK    7  A    between atoms: C_19  and  N_20
REMARK    8  A    between atoms: N_20  and  C_21
REMARK    9  A    between atoms: C_21  and  C_22
REMARK                            x       y       z     vdW  Elec       q    Type
REMARK                         _______ _______ _______ _____ _____    ______ ____
ROOT
ATOM      1  C   UNL     1       1.244   9.564  20.270  0.00  0.00    +0.000 A 
ATOM      2  C   UNL     1       1.475  10.429  19.170  0.00  0.00    +0.000 A 
ATOM      3  C   UNL     1       1.939   9.990  17.927  0.00  0.00    +0.000 A 
ATOM      4  C   UNL     1       2.208   8.646  17.698  0.00  0.00    +0.000 A 
ATOM      5  C   UNL     1       1.987   7.765  18.762  0.00  0.00    +0.000 A 
ATOM      6  C   UNL     1       1.520   8.180  20.010  0.00  0.00    +0.000 A 
ATOM      7  N   UNL     1       1.385   7.076  20.842  0.00  0.00    +0.000 NA
ATOM      8  C   UNL     1       1.771   6.025  20.143  0.00  0.00    +0.000 A 
ATOM      9  N   UNL     1       2.144   6.393  18.869  0.00  0.00    +0.000 N 
ENDROOT
BRANCH   8  10
ATOM     10  C   UNL     1       1.794   4.684  20.649  0.00  0.00    +0.000 A 
ATOM     11  C   UNL     1       0.919   3.643  20.384  0.00  0.00    +0.000 A 
ATOM     12  C   UNL     1       1.375   2.513  21.111  0.00  0.00    +0.000 A 
ATOM     13  C   UNL     1       2.491   2.925  21.791  0.00  0.00    +0.000 A 
ATOM     14  O   UNL     1       2.758   4.224  21.513  0.00  0.00    +0.000 OA
ENDBRANCH   8  10
BRANCH   1  16
ATOM     15  C   UNL     1      -0.333  11.013  21.505  0.00  0.00    +0.000 C 
ATOM     16  N   UNL     1       0.813  10.110  21.494  0.00  0.00    +0.000 N 
ATOM     17  C   UNL     1       1.140   9.414  22.730  0.00  0.00    +0.000 C 
ENDBRANCH   1  16
BRANCH   9  18
ATOM     18  C   UNL     1       2.550   5.496  17.800  0.00  0.00    +0.000 C 
BRANCH  18  19
ATOM     19  C   UNL     1       4.026   5.679  17.426  0.00  0.00    +0.000 C 
BRANCH  19  20
ATOM     20  N   UNL     1       4.572   4.526  16.693  0.00  0.00    +0.000 NA
ATOM     21  H   UNL     1       3.942   4.250  15.940  0.00  0.00    +0.000 HD
BRANCH  20  22
ATOM     22  C   UNL     1       5.870   4.884  16.103  0.00  0.00    +0.000 C 
BRANCH  22  23
ATOM     23  C   UNL     1       6.740   5.664  17.060  0.00  0.00    +0.000 A 
ATOM     24  C   UNL     1       7.034   7.013  16.811  0.00  0.00    +0.000 A 
ATOM     25  C   UNL     1       7.818   7.747  17.702  0.00  0.00    +0.000 A 
ATOM     26  C   UNL     1       8.313   7.145  18.856  0.00  0.00    +0.000 A 
ATOM     27  C   UNL     1       8.019   5.809  19.124  0.00  0.00    +0.000 A 
ATOM     28  C   UNL     1       7.236   5.072  18.232  0.00  0.00    +0.000 A 
ENDBRANCH  22  23
ENDBRANCH  20  22
ENDBRANCH  19  20
ENDBRANCH  18  19
ENDBRANCH   9  18
TORSDOF 7
ENDMDL
