MODEL 1
REMARK VINA RESULT:      -7.0      0.000      0.000
REMARK  Name = 
REMARK  7 active torsions:
REMARK  status: ('A' for Active; 'I' for Inactive)
REMARK    1  A    between atoms: C_1  and  N_2
REMARK    2  A    between atoms: N_2  and  C_3
REMARK    3  A    between atoms: N_2  and  C_4
REMARK    4  A    between atoms: C_4  and  C_5
REMARK    5  A    between atoms: C_5  and  N_6
REMARK    6  A    between atoms: C_10  and  N_11
REMARK    7  A    between atoms: C_13  and  C_14
REMARK                            x       y       z     vdW  Elec       q    Type
REMARK                         _______ _______ _______ _____ _____    ______ ____
ROOT
ATOM      1  N   UNL     1       0.097  11.508  19.519  0.00  0.00    +0.000 N 
ATOM      2  N   UNL     1      -1.196  11.173  19.742  0.00  0.00    +0.000 NA
ATOM      3  C   UNL     1      -1.847  12.335  19.924  0.00  0.00    +0.000 A 
ATOM      4  C   UNL     1      -0.937  13.419  19.781  0.00  0.00    +0.000 A 
ATOM      5  C   UNL     1       0.299  12.876  19.455  0.00  0.00    +0.000 A 
ATOM      6  C   UNL     1       1.513  13.669  19.167  0.00  0.00    +0.000 A 
ATOM      7  C   UNL     1       2.605  13.190  18.433  0.00  0.00    +0.000 A 
ATOM      8  C   UNL     1       3.705  14.007  18.129  0.00  0.00    +0.000 A 
ATOM      9  C   UNL     1       3.733  15.337  18.536  0.00  0.00    +0.000 A 
ATOM     10  C   UNL     1       2.664  15.850  19.257  0.00  0.00    +0.000 A 
ATOM     11  C   UNL     1       1.576  15.020  19.567  0.00  0.00    +0.000 A 
ATOM     12  S   UNL     1       0.226  15.762  20.458  0.00  0.00    +0.000 S 
ATOM     13  O   UNL     1       0.464  15.480  21.861  0.00  0.00    +0.000 OA
ATOM     14  O   UNL     1       0.107  17.130  19.985  0.00  0.00    +0.000 OA
ATOM     15  C   UNL     1      -1.214  14.873  19.898  0.00  0.00    +0.000 C 
ENDROOT
BRANCH   3  16
ATOM     16  C   UNL     1      -3.285  12.459  20.275  0.00  0.00    +0.000 C 
ATOM     17  O   UNL     1      -3.595  12.957  21.363  0.00  0.00    +0.000 OA
ATOM     18  N   UNL     1      -4.276  12.068  19.376  0.00  0.00    +0.000 N 
ATOM     19  C   UNL     1      -4.073  11.507  18.037  0.00  0.00    +0.000 C 
ATOM     20  C   UNL     1      -5.122  12.024  17.040  0.00  0.00    +0.000 C 
ATOM     21  O   UNL     1      -6.462  11.916  17.542  0.00  0.00    +0.000 OA
ATOM     22  C   UNL     1      -6.594  12.635  18.776  0.00  0.00    +0.000 C 
ATOM     23  C   UNL     1      -5.667  12.038  19.834  0.00  0.00    +0.000 C 
ENDBRANCH   3  16
BRANCH   1  28
ATOM     24  N   UNL     1       1.813   8.144  20.040  0.00  0.00    +0.000 NA
ATOM     25  C   UNL     1       1.959   7.743  18.631  0.00  0.00    +0.000 C 
ATOM     26  C   UNL     1       2.303   8.950  17.760  0.00  0.00    +0.000 C 
ATOM     27  C   UNL     1       1.256  10.049  17.890  0.00  0.00    +0.000 C 
ATOM     28  C   UNL     1       1.066  10.425  19.369  0.00  0.00    +0.000 C 
ATOM     29  C   UNL     1       0.726   9.149  20.178  0.00  0.00    +0.000 C 
BRANCH  24  30
ATOM     30  C   UNL     1       1.565   6.985  20.929  0.00  0.00    +0.000 C 
BRANCH  30  31
ATOM     31  C   UNL     1       2.215   5.669  20.418  0.00  0.00    +0.000 C 
BRANCH  31  33
ATOM     32  C   UNL     1       1.392   3.952  18.955  0.00  0.00    +0.000 C 
ATOM     33  N   UNL     1       1.308   4.506  20.312  0.00  0.00    +0.000 NA
ATOM     34  C   UNL     1       1.626   3.463  21.287  0.00  0.00    +0.000 C 
ENDBRANCH  31  33
ENDBRANCH  30  31
ENDBRANCH  24  30
ENDBRANCH   1  28
TORSDOF 5
ENDMDL
MODEL 2
REMARK VINA RESULT:      -6.8      3.403      7.523
REMARK  Name = 
REMARK  7 active torsions:
REMARK  status: ('A' for Active; 'I' for Inactive)
REMARK    1  A    between atoms: C_1  and  N_2
REMARK    2  A    between atoms: N_2  and  C_3
REMARK    3  A    between atoms: N_2  and  C_4
REMARK    4  A    between atoms: C_4  and  C_5
REMARK    5  A    between atoms: C_5  and  N_6
REMARK    6  A    between atoms: C_10  and  N_11
REMARK    7  A    between atoms: C_13  and  C_14
REMARK                            x       y       z     vdW  Elec       q    Type
REMARK                         _______ _______ _______ _____ _____    ______ ____
ROOT
ATOM      1  N   UNL     1      -3.574  13.290  22.717  0.00  0.00    +0.000 N 
ATOM      2  N   UNL     1      -3.001  12.062  22.720  0.00  0.00    +0.000 NA
ATOM      3  C   UNL     1      -1.679  12.277  22.619  0.00  0.00    +0.000 A 
ATOM      4  C   UNL     1      -1.424  13.676  22.582  0.00  0.00    +0.000 A 
ATOM      5  C   UNL     1      -2.649  14.319  22.712  0.00  0.00    +0.000 A 
ATOM      6  C   UNL     1      -2.822  15.786  22.776  0.00  0.00    +0.000 A 
ATOM      7  C   UNL     1      -3.942  16.418  23.331  0.00  0.00    +0.000 A 
ATOM      8  C   UNL     1      -4.026  17.816  23.428  0.00  0.00    +0.000 A 
ATOM      9  C   UNL     1      -2.981  18.621  22.988  0.00  0.00    +0.000 A 
ATOM     10  C   UNL     1      -1.851  18.030  22.442  0.00  0.00    +0.000 A 
ATOM     11  C   UNL     1      -1.782  16.631  22.337  0.00  0.00    +0.000 A 
ATOM     12  S   UNL     1      -0.285  15.948  21.663  0.00  0.00    +0.000 S 
ATOM     13  O   UNL     1      -0.532  15.748  20.247  0.00  0.00    +0.000 OA
ATOM     14  O   UNL     1       0.808  16.792  22.114  0.00  0.00    +0.000 OA
ATOM     15  C   UNL     1      -0.115  14.370  22.475  0.00  0.00    +0.000 C 
ENDROOT
BRANCH   3  16
ATOM     16  C   UNL     1      -0.649  11.212  22.507  0.00  0.00    +0.000 C 
ATOM     17  O   UNL     1      -0.370  10.541  23.506  0.00  0.00    +0.000 OA
ATOM     18  N   UNL     1      -0.038  10.936  21.285  0.00  0.00    +0.000 N 
ATOM     19  C   UNL     1      -0.292  11.607  20.006  0.00  0.00    +0.000 C 
ATOM     20  C   UNL     1      -0.254  10.618  18.830  0.00  0.00    +0.000 C 
ATOM     21  O   UNL     1       0.909   9.779  18.849  0.00  0.00    +0.000 OA
ATOM     22  C   UNL     1       0.978   9.045  20.080  0.00  0.00    +0.000 C 
ATOM     23  C   UNL     1       1.096  10.009  21.260  0.00  0.00    +0.000 C 
ENDBRANCH   3  16
BRANCH   1  28
ATOM     24  N   UNL     1      -7.189  12.875  21.581  0.00  0.00    +0.000 NA
ATOM     25  C   UNL     1      -7.746  12.280  22.807  0.00  0.00    +0.000 C 
ATOM     26  C   UNL     1      -7.123  12.919  24.048  0.00  0.00    +0.000 C 
ATOM     27  C   UNL     1      -5.605  12.790  24.040  0.00  0.00    +0.000 C 
ATOM     28  C   UNL     1      -5.033  13.362  22.732  0.00  0.00    +0.000 C 
ATOM     29  C   UNL     1      -5.718  12.665  21.531  0.00  0.00    +0.000 C 
BRANCH  24  30
ATOM     30  C   UNL     1      -7.833  12.341  20.358  0.00  0.00    +0.000 C 
BRANCH  30  31
ATOM     31  C   UNL     1      -7.145  11.060  19.810  0.00  0.00    +0.000 C 
BRANCH  31  33
ATOM     32  C   UNL     1      -7.115  12.412  17.825  0.00  0.00    +0.000 C 
ATOM     33  N   UNL     1      -6.742  11.108  18.388  0.00  0.00    +0.000 NA
ATOM     34  C   UNL     1      -5.306  10.892  18.211  0.00  0.00    +0.000 C 
ENDBRANCH  31  33
ENDBRANCH  30  31
ENDBRANCH  24  30
ENDBRANCH   1  28
TORSDOF 5
ENDMDL
MODEL 3
REMARK VINA RESULT:      -6.8      1.257      2.116
REMARK  Name = 
REMARK  7 active torsions:
REMARK  status: ('A' for Active; 'I' for Inactive)
REMARK    1  A    between atoms: C_1  and  N_2
REMARK    2  A    between atoms: N_2  and  C_3
REMARK    3  A    between atoms: N_2  and  C_4
REMARK    4  A    between atoms: C_4  and  C_5
REMARK    5  A    between atoms: C_5  and  N_6
REMARK    6  A    between atoms: C_10  and  N_11
REMARK    7  A    between atoms: C_13  and  C_14
REMARK                            x       y       z     vdW  Elec       q    Type
REMARK                         _______ _______ _______ _____ _____    ______ ____
ROOT
ATOM      1  N   UNL     1       0.152  11.517  19.463  0.00  0.00    +0.000 N 
ATOM      2  N   UNL     1      -1.155  11.207  19.639  0.00  0.00    +0.000 NA
ATOM      3  C   UNL     1      -1.790  12.381  19.798  0.00  0.00    +0.000 A 
ATOM      4  C   UNL     1      -0.854  13.447  19.688  0.00  0.00    +0.000 A 
ATOM      5  C   UNL     1       0.382  12.880  19.407  0.00  0.00    +0.000 A 
ATOM      6  C   UNL     1       1.621  13.651  19.163  0.00  0.00    +0.000 A 
ATOM      7  C   UNL     1       2.729  13.150  18.468  0.00  0.00    +0.000 A 
ATOM      8  C   UNL     1       3.855  13.946  18.205  0.00  0.00    +0.000 A 
ATOM      9  C   UNL     1       3.894  15.275  18.613  0.00  0.00    +0.000 A 
ATOM     10  C   UNL     1       2.810  15.809  19.294  0.00  0.00    +0.000 A 
ATOM     11  C   UNL     1       1.695  15.000  19.565  0.00  0.00    +0.000 A 
ATOM     12  S   UNL     1       0.329  15.769  20.407  0.00  0.00    +0.000 S 
ATOM     13  O   UNL     1       0.510  15.483  21.818  0.00  0.00    +0.000 OA
ATOM     14  O   UNL     1       0.253  17.138  19.930  0.00  0.00    +0.000 OA
ATOM     15  C   UNL     1      -1.108  14.907  19.795  0.00  0.00    +0.000 C 
ENDROOT
BRANCH   3  16
ATOM     16  C   UNL     1      -3.236  12.533  20.097  0.00  0.00    +0.000 C 
ATOM     17  O   UNL     1      -4.060  12.303  19.205  0.00  0.00    +0.000 OA
ATOM     18  N   UNL     1      -3.668  12.884  21.375  0.00  0.00    +0.000 N 
ATOM     19  C   UNL     1      -2.823  13.143  22.545  0.00  0.00    +0.000 C 
ATOM     20  C   UNL     1      -3.459  12.601  23.835  0.00  0.00    +0.000 C 
ATOM     21  O   UNL     1      -4.830  12.993  23.984  0.00  0.00    +0.000 OA
ATOM     22  C   UNL     1      -5.603  12.551  22.859  0.00  0.00    +0.000 C 
ATOM     23  C   UNL     1      -5.084  13.200  21.577  0.00  0.00    +0.000 C 
ENDBRANCH   3  16
BRANCH   1  28
ATOM     24  N   UNL     1       1.793   8.129  20.060  0.00  0.00    +0.000 NA
ATOM     25  C   UNL     1       1.967   7.711  18.659  0.00  0.00    +0.000 C 
ATOM     26  C   UNL     1       2.355   8.903  17.785  0.00  0.00    +0.000 C 
ATOM     27  C   UNL     1       1.324  10.021  17.878  0.00  0.00    +0.000 C 
ATOM     28  C   UNL     1       1.105  10.415  19.348  0.00  0.00    +0.000 C 
ATOM     29  C   UNL     1       0.721   9.154  20.161  0.00  0.00    +0.000 C 
BRANCH  24  30
ATOM     30  C   UNL     1       1.503   6.983  20.953  0.00  0.00    +0.000 C 
BRANCH  30  31
ATOM     31  C   UNL     1       2.183   5.661  20.500  0.00  0.00    +0.000 C 
BRANCH  31  33
ATOM     32  C   UNL     1       1.378   3.967  19.001  0.00  0.00    +0.000 C 
ATOM     33  N   UNL     1       1.288   4.492  20.369  0.00  0.00    +0.000 NA
ATOM     34  C   UNL     1       1.616   3.433  21.323  0.00  0.00    +0.000 C 
ENDBRANCH  31  33
ENDBRANCH  30  31
ENDBRANCH  24  30
ENDBRANCH   1  28
TORSDOF 5
ENDMDL
MODEL 4
REMARK VINA RESULT:      -6.6      4.088      7.497
REMARK  Name = 
REMARK  7 active torsions:
REMARK  status: ('A' for Active; 'I' for Inactive)
REMARK    1  A    between atoms: C_1  and  N_2
REMARK    2  A    between atoms: N_2  and  C_3
REMARK    3  A    between atoms: N_2  and  C_4
REMARK    4  A    between atoms: C_4  and  C_5
REMARK    5  A    between atoms: C_5  and  N_6
REMARK    6  A    between atoms: C_10  and  N_11
REMARK    7  A    between atoms: C_13  and  C_14
REMARK                            x       y       z     vdW  Elec       q    Type
REMARK                         _______ _______ _______ _____ _____    ______ ____
ROOT
ATOM      1  N   UNL     1      -1.910  12.947  19.795  0.00  0.00    +0.000 N 
ATOM      2  N   UNL     1      -2.146  13.393  21.053  0.00  0.00    +0.000 NA
ATOM      3  C   UNL     1      -3.444  13.139  21.291  0.00  0.00    +0.000 A 
ATOM      4  C   UNL     1      -4.019  12.491  20.162  0.00  0.00    +0.000 A 
ATOM      5  C   UNL     1      -3.003  12.314  19.231  0.00  0.00    +0.000 A 
ATOM      6  C   UNL     1      -3.169  11.628  17.931  0.00  0.00    +0.000 A 
ATOM      7  C   UNL     1      -2.113  11.066  17.203  0.00  0.00    +0.000 A 
ATOM      8  C   UNL     1      -2.333  10.365  16.007  0.00  0.00    +0.000 A 
ATOM      9  C   UNL     1      -3.623  10.191  15.515  0.00  0.00    +0.000 A 
ATOM     10  C   UNL     1      -4.695  10.726  16.215  0.00  0.00    +0.000 A 
ATOM     11  C   UNL     1      -4.462  11.437  17.403  0.00  0.00    +0.000 A 
ATOM     12  S   UNL     1      -5.892  12.056  18.263  0.00  0.00    +0.000 S 
ATOM     13  O   UNL     1      -6.066  13.427  17.822  0.00  0.00    +0.000 OA
ATOM     14  O   UNL     1      -6.950  11.078  18.085  0.00  0.00    +0.000 OA
ATOM     15  C   UNL     1      -5.418  12.029  19.982  0.00  0.00    +0.000 C 
ENDROOT
BRANCH   3  16
ATOM     16  C   UNL     1      -4.175  13.527  22.525  0.00  0.00    +0.000 C 
ATOM     17  O   UNL     1      -4.395  12.668  23.385  0.00  0.00    +0.000 OA
ATOM     18  N   UNL     1      -4.568  14.847  22.736  0.00  0.00    +0.000 N 
ATOM     19  C   UNL     1      -4.341  15.984  21.838  0.00  0.00    +0.000 C 
ATOM     20  C   UNL     1      -4.017  17.268  22.618  0.00  0.00    +0.000 C 
ATOM     21  O   UNL     1      -4.944  17.517  23.683  0.00  0.00    +0.000 OA
ATOM     22  C   UNL     1      -4.972  16.410  24.595  0.00  0.00    +0.000 C 
ATOM     23  C   UNL     1      -5.441  15.147  23.873  0.00  0.00    +0.000 C 
ENDBRANCH   3  16
BRANCH   1  28
ATOM     24  N   UNL     1       1.268  14.768  18.739  0.00  0.00    +0.000 NA
ATOM     25  C   UNL     1       2.261  13.844  19.311  0.00  0.00    +0.000 C 
ATOM     26  C   UNL     1       1.803  12.394  19.151  0.00  0.00    +0.000 C 
ATOM     27  C   UNL     1       0.439  12.166  19.790  0.00  0.00    +0.000 C 
ATOM     28  C   UNL     1      -0.581  13.171  19.231  0.00  0.00    +0.000 C 
ATOM     29  C   UNL     1      -0.040  14.609  19.429  0.00  0.00    +0.000 C 
BRANCH  24  30
ATOM     30  C   UNL     1       1.718  16.178  18.797  0.00  0.00    +0.000 C 
BRANCH  30  31
ATOM     31  C   UNL     1       0.546  17.197  18.852  0.00  0.00    +0.000 C 
BRANCH  31  33
ATOM     32  C   UNL     1      -1.213  18.411  17.758  0.00  0.00    +0.000 C 
ATOM     33  N   UNL     1       0.010  17.629  17.543  0.00  0.00    +0.000 NA
ATOM     34  C   UNL     1       0.974  18.425  16.785  0.00  0.00    +0.000 C 
ENDBRANCH  31  33
ENDBRANCH  30  31
ENDBRANCH  24  30
ENDBRANCH   1  28
TORSDOF 5
ENDMDL
MODEL 5
REMARK VINA RESULT:      -6.6      4.151      8.204
REMARK  Name = 
REMARK  7 active torsions:
REMARK  status: ('A' for Active; 'I' for Inactive)
REMARK    1  A    between atoms: C_1  and  N_2
REMARK    2  A    between atoms: N_2  and  C_3
REMARK    3  A    between atoms: N_2  and  C_4
REMARK    4  A    between atoms: C_4  and  C_5
REMARK    5  A    between atoms: C_5  and  N_6
REMARK    6  A    between atoms: C_10  and  N_11
REMARK    7  A    between atoms: C_13  and  C_14
REMARK                            x       y       z     vdW  Elec       q    Type
REMARK                         _______ _______ _______ _____ _____    ______ ____
ROOT
ATOM      1  N   UNL     1      -1.015  13.736  20.488  0.00  0.00    +0.000 N 
ATOM      2  N   UNL     1       0.021  14.464  20.971  0.00  0.00    +0.000 NA
ATOM      3  C   UNL     1       1.131  13.887  20.480  0.00  0.00    +0.000 A 
ATOM      4  C   UNL     1       0.771  12.790  19.648  0.00  0.00    +0.000 A 
ATOM      5  C   UNL     1      -0.617  12.744  19.609  0.00  0.00    +0.000 A 
ATOM      6  C   UNL     1      -1.400  11.779  18.809  0.00  0.00    +0.000 A 
ATOM      7  C   UNL     1      -2.729  11.984  18.416  0.00  0.00    +0.000 A 
ATOM      8  C   UNL     1      -3.406  11.067  17.598  0.00  0.00    +0.000 A 
ATOM      9  C   UNL     1      -2.765   9.924  17.133  0.00  0.00    +0.000 A 
ATOM     10  C   UNL     1      -1.445   9.692  17.493  0.00  0.00    +0.000 A 
ATOM     11  C   UNL     1      -0.781  10.609  18.323  0.00  0.00    +0.000 A 
ATOM     12  S   UNL     1       0.922  10.262  18.706  0.00  0.00    +0.000 S 
ATOM     13  O   UNL     1       0.916   9.563  19.977  0.00  0.00    +0.000 OA
ATOM     14  O   UNL     1       1.506   9.651  17.525  0.00  0.00    +0.000 OA
ATOM     15  C   UNL     1       1.666  11.870  18.902  0.00  0.00    +0.000 C 
ENDROOT
BRANCH   3  16
ATOM     16  C   UNL     1       2.520  14.301  20.805  0.00  0.00    +0.000 C 
ATOM     17  O   UNL     1       3.160  13.650  21.638  0.00  0.00    +0.000 OA
ATOM     18  N   UNL     1       3.116  15.376  20.148  0.00  0.00    +0.000 N 
ATOM     19  C   UNL     1       2.510  16.214  19.109  0.00  0.00    +0.000 C 
ATOM     20  C   UNL     1       3.530  16.598  18.025  0.00  0.00    +0.000 C 
ATOM     21  O   UNL     1       4.753  17.108  18.572  0.00  0.00    +0.000 OA
ATOM     22  C   UNL     1       5.348  16.145  19.453  0.00  0.00    +0.000 C 
ATOM     23  C   UNL     1       4.413  15.860  20.627  0.00  0.00    +0.000 C 
ENDBRANCH   3  16
BRANCH   1  28
ATOM     24  N   UNL     1      -4.050  14.107  22.765  0.00  0.00    +0.000 NA
ATOM     25  C   UNL     1      -4.342  15.530  22.524  0.00  0.00    +0.000 C 
ATOM     26  C   UNL     1      -4.105  15.889  21.057  0.00  0.00    +0.000 C 
ATOM     27  C   UNL     1      -2.680  15.561  20.626  0.00  0.00    +0.000 C 
ATOM     28  C   UNL     1      -2.362  14.089  20.932  0.00  0.00    +0.000 C 
ATOM     29  C   UNL     1      -2.632  13.811  22.431  0.00  0.00    +0.000 C 
BRANCH  24  30
ATOM     30  C   UNL     1      -4.353  13.703  24.157  0.00  0.00    +0.000 C 
BRANCH  30  31
ATOM     31  C   UNL     1      -5.167  12.382  24.251  0.00  0.00    +0.000 C 
BRANCH  31  33
ATOM     32  C   UNL     1      -7.243  13.588  24.269  0.00  0.00    +0.000 C 
ATOM     33  N   UNL     1      -6.537  12.434  23.699  0.00  0.00    +0.000 NA
ATOM     34  C   UNL     1      -6.544  12.528  22.240  0.00  0.00    +0.000 C 
ENDBRANCH  31  33
ENDBRANCH  30  31
ENDBRANCH  24  30
ENDBRANCH   1  28
TORSDOF 5
ENDMDL
MODEL 6
REMARK VINA RESULT:      -6.6      1.586      1.746
REMARK  Name = 
REMARK  7 active torsions:
REMARK  status: ('A' for Active; 'I' for Inactive)
REMARK    1  A    between atoms: C_1  and  N_2
REMARK    2  A    between atoms: N_2  and  C_3
REMARK    3  A    between atoms: N_2  and  C_4
REMARK    4  A    between atoms: C_4  and  C_5
REMARK    5  A    between atoms: C_5  and  N_6
REMARK    6  A    between atoms: C_10  and  N_11
REMARK    7  A    between atoms: C_13  and  C_14
REMARK                            x       y       z     vdW  Elec       q    Type
REMARK                         _______ _______ _______ _____ _____    ______ ____
ROOT
ATOM      1  N   UNL     1       0.242  11.476  20.451  0.00  0.00    +0.000 N 
ATOM      2  N   UNL     1      -0.903  11.108  21.075  0.00  0.00    +0.000 NA
ATOM      3  C   UNL     1      -1.451  12.247  21.532  0.00  0.00    +0.000 A 
ATOM      4  C   UNL     1      -0.638  13.352  21.154  0.00  0.00    +0.000 A 
ATOM      5  C   UNL     1       0.415  12.848  20.402  0.00  0.00    +0.000 A 
ATOM      6  C   UNL     1       1.464  13.676  19.769  0.00  0.00    +0.000 A 
ATOM      7  C   UNL     1       2.245  13.256  18.684  0.00  0.00    +0.000 A 
ATOM      8  C   UNL     1       3.181  14.106  18.077  0.00  0.00    +0.000 A 
ATOM      9  C   UNL     1       3.349  15.412  18.527  0.00  0.00    +0.000 A 
ATOM     10  C   UNL     1       2.586  15.867  19.593  0.00  0.00    +0.000 A 
ATOM     11  C   UNL     1       1.662  15.003  20.202  0.00  0.00    +0.000 A 
ATOM     12  S   UNL     1       0.693  15.673  21.536  0.00  0.00    +0.000 S 
ATOM     13  O   UNL     1       1.388  15.318  22.759  0.00  0.00    +0.000 OA
ATOM     14  O   UNL     1       0.427  17.063  21.210  0.00  0.00    +0.000 OA
ATOM     15  C   UNL     1      -0.855  14.793  21.442  0.00  0.00    +0.000 C 
ENDROOT
BRANCH   3  16
ATOM     16  C   UNL     1      -2.686  12.329  22.352  0.00  0.00    +0.000 C 
ATOM     17  O   UNL     1      -2.630  12.035  23.551  0.00  0.00    +0.000 OA
ATOM     18  N   UNL     1      -3.884  12.776  21.796  0.00  0.00    +0.000 N 
ATOM     19  C   UNL     1      -4.101  13.204  20.410  0.00  0.00    +0.000 C 
ATOM     20  C   UNL     1      -5.066  14.398  20.330  0.00  0.00    +0.000 C 
ATOM     21  O   UNL     1      -6.263  14.195  21.093  0.00  0.00    +0.000 OA
ATOM     22  C   UNL     1      -5.945  13.941  22.469  0.00  0.00    +0.000 C 
ATOM     23  C   UNL     1      -5.111  12.667  22.589  0.00  0.00    +0.000 C 
ENDBRANCH   3  16
BRANCH   1  28
ATOM     24  N   UNL     1       1.870   8.052  20.054  0.00  0.00    +0.000 NA
ATOM     25  C   UNL     1       1.677   7.875  18.606  0.00  0.00    +0.000 C 
ATOM     26  C   UNL     1       1.873   9.200  17.869  0.00  0.00    +0.000 C 
ATOM     27  C   UNL     1       0.935  10.277  18.399  0.00  0.00    +0.000 C 
ATOM     28  C   UNL     1       1.100  10.418  19.921  0.00  0.00    +0.000 C 
ATOM     29  C   UNL     1       0.890   9.036  20.586  0.00  0.00    +0.000 C 
BRANCH  24  30
ATOM     30  C   UNL     1       1.774   6.771  20.792  0.00  0.00    +0.000 C 
BRANCH  30  31
ATOM     31  C   UNL     1       2.207   5.541  19.946  0.00  0.00    +0.000 C 
BRANCH  31  33
ATOM     32  C   UNL     1       1.385   3.592  18.808  0.00  0.00    +0.000 C 
ATOM     33  N   UNL     1       1.347   4.344  20.069  0.00  0.00    +0.000 NA
ATOM     34  C   UNL     1       1.760   3.475  21.170  0.00  0.00    +0.000 C 
ENDBRANCH  31  33
ENDBRANCH  30  31
ENDBRANCH  24  30
ENDBRANCH   1  28
TORSDOF 5
ENDMDL
MODEL 7
REMARK VINA RESULT:      -6.6      4.266      7.263
REMARK  Name = 
REMARK  7 active torsions:
REMARK  status: ('A' for Active; 'I' for Inactive)
REMARK    1  A    between atoms: C_1  and  N_2
REMARK    2  A    between atoms: N_2  and  C_3
REMARK    3  A    between atoms: N_2  and  C_4
REMARK    4  A    between atoms: C_4  and  C_5
REMARK    5  A    between atoms: C_5  and  N_6
REMARK    6  A    between atoms: C_10  and  N_11
REMARK    7  A    between atoms: C_13  and  C_14
REMARK                            x       y       z     vdW  Elec       q    Type
REMARK                         _______ _______ _______ _____ _____    ______ ____
ROOT
ATOM      1  N   UNL     1      -2.214  13.312  20.533  0.00  0.00    +0.000 N 
ATOM      2  N   UNL     1      -2.719  13.924  21.631  0.00  0.00    +0.000 NA
ATOM      3  C   UNL     1      -4.028  13.621  21.649  0.00  0.00    +0.000 A 
ATOM      4  C   UNL     1      -4.335  12.774  20.547  0.00  0.00    +0.000 A 
ATOM      5  C   UNL     1      -3.146  12.529  19.874  0.00  0.00    +0.000 A 
ATOM      6  C   UNL     1      -3.018  11.646  18.694  0.00  0.00    +0.000 A 
ATOM      7  C   UNL     1      -1.815  11.054  18.287  0.00  0.00    +0.000 A 
ATOM      8  C   UNL     1      -1.761  10.169  17.200  0.00  0.00    +0.000 A 
ATOM      9  C   UNL     1      -2.915   9.836  16.499  0.00  0.00    +0.000 A 
ATOM     10  C   UNL     1      -4.126  10.394  16.880  0.00  0.00    +0.000 A 
ATOM     11  C   UNL     1      -4.168  11.289  17.961  0.00  0.00    +0.000 A 
ATOM     12  S   UNL     1      -5.764  11.931  18.413  0.00  0.00    +0.000 S 
ATOM     13  O   UNL     1      -5.896  13.206  17.733  0.00  0.00    +0.000 OA
ATOM     14  O   UNL     1      -6.728  10.868  18.191  0.00  0.00    +0.000 OA
ATOM     15  C   UNL     1      -5.651  12.194  20.173  0.00  0.00    +0.000 C 
ENDROOT
BRANCH   3  16
ATOM     16  C   UNL     1      -5.009  14.138  22.636  0.00  0.00    +0.000 C 
ATOM     17  O   UNL     1      -5.165  13.529  23.700  0.00  0.00    +0.000 OA
ATOM     18  N   UNL     1      -5.711  15.318  22.395  0.00  0.00    +0.000 N 
ATOM     19  C   UNL     1      -5.603  16.175  21.210  0.00  0.00    +0.000 C 
ATOM     20  C   UNL     1      -5.695  17.664  21.577  0.00  0.00    +0.000 C 
ATOM     21  O   UNL     1      -6.809  17.956  22.432  0.00  0.00    +0.000 OA
ATOM     22  C   UNL     1      -6.733  17.181  23.637  0.00  0.00    +0.000 C 
ATOM     23  C   UNL     1      -6.795  15.690  23.307  0.00  0.00    +0.000 C 
ENDBRANCH   3  16
BRANCH   1  28
ATOM     24  N   UNL     1       1.069  15.158  19.949  0.00  0.00    +0.000 NA
ATOM     25  C   UNL     1       1.954  14.313  20.768  0.00  0.00    +0.000 C 
ATOM     26  C   UNL     1       1.563  12.840  20.639  0.00  0.00    +0.000 C 
ATOM     27  C   UNL     1       0.107  12.613  21.028  0.00  0.00    +0.000 C 
ATOM     28  C   UNL     1      -0.807  13.540  20.211  0.00  0.00    +0.000 C 
ATOM     29  C   UNL     1      -0.342  15.005  20.393  0.00  0.00    +0.000 C 
BRANCH  24  30
ATOM     30  C   UNL     1       1.473  16.583  19.980  0.00  0.00    +0.000 C 
BRANCH  30  31
ATOM     31  C   UNL     1       2.918  16.825  19.462  0.00  0.00    +0.000 C 
BRANCH  31  33
ATOM     32  C   UNL     1       3.467  15.898  17.316  0.00  0.00    +0.000 C 
ATOM     33  N   UNL     1       3.041  17.115  18.018  0.00  0.00    +0.000 NA
ATOM     34  C   UNL     1       1.787  17.599  17.441  0.00  0.00    +0.000 C 
ENDBRANCH  31  33
ENDBRANCH  30  31
ENDBRANCH  24  30
ENDBRANCH   1  28
TORSDOF 5
ENDMDL
MODEL 8
REMARK VINA RESULT:      -6.5      4.131      8.203
REMARK  Name = 
REMARK  7 active torsions:
REMARK  status: ('A' for Active; 'I' for Inactive)
REMARK    1  A    between atoms: C_1  and  N_2
REMARK    2  A    between atoms: N_2  and  C_3
REMARK    3  A    between atoms: N_2  and  C_4
REMARK    4  A    between atoms: C_4  and  C_5
REMARK    5  A    between atoms: C_5  and  N_6
REMARK    6  A    between atoms: C_10  and  N_11
REMARK    7  A    between atoms: C_13  and  C_14
REMARK                            x       y       z     vdW  Elec       q    Type
REMARK                         _______ _______ _______ _____ _____    ______ ____
ROOT
ATOM      1  N   UNL     1      -0.874  13.959  20.936  0.00  0.00    +0.000 N 
ATOM      2  N   UNL     1       0.262  14.590  21.318  0.00  0.00    +0.000 NA
ATOM      3  C   UNL     1       1.268  13.912  20.739  0.00  0.00    +0.000 A 
ATOM      4  C   UNL     1       0.737  12.850  19.954  0.00  0.00    +0.000 A 
ATOM      5  C   UNL     1      -0.646  12.932  20.036  0.00  0.00    +0.000 A 
ATOM      6  C   UNL     1      -1.582  12.040  19.318  0.00  0.00    +0.000 A 
ATOM      7  C   UNL     1      -2.916  12.366  19.040  0.00  0.00    +0.000 A 
ATOM      8  C   UNL     1      -3.743  11.512  18.294  0.00  0.00    +0.000 A 
ATOM      9  C   UNL     1      -3.251  10.313  17.788  0.00  0.00    +0.000 A 
ATOM     10  C   UNL     1      -1.932   9.962  18.034  0.00  0.00    +0.000 A 
ATOM     11  C   UNL     1      -1.117  10.817  18.792  0.00  0.00    +0.000 A 
ATOM     12  S   UNL     1       0.574  10.316  19.030  0.00  0.00    +0.000 S 
ATOM     13  O   UNL     1       0.616   9.625  20.305  0.00  0.00    +0.000 OA
ATOM     14  O   UNL     1       0.994   9.650  17.809  0.00  0.00    +0.000 OA
ATOM     15  C   UNL     1       1.477  11.849  19.143  0.00  0.00    +0.000 C 
ENDROOT
BRANCH   3  16
ATOM     16  C   UNL     1       2.712  14.197  20.937  0.00  0.00    +0.000 C 
ATOM     17  O   UNL     1       3.277  13.757  21.944  0.00  0.00    +0.000 OA
ATOM     18  N   UNL     1       3.436  14.908  19.982  0.00  0.00    +0.000 N 
ATOM     19  C   UNL     1       2.925  15.452  18.720  0.00  0.00    +0.000 C 
ATOM     20  C   UNL     1       3.954  15.318  17.586  0.00  0.00    +0.000 C 
ATOM     21  O   UNL     1       5.256  15.788  17.962  0.00  0.00    +0.000 OA
ATOM     22  C   UNL     1       5.733  15.078  19.113  0.00  0.00    +0.000 C 
ATOM     23  C   UNL     1       4.805  15.322  20.302  0.00  0.00    +0.000 C 
ENDBRANCH   3  16
BRANCH   1  28
ATOM     24  N   UNL     1      -4.139  13.972  22.903  0.00  0.00    +0.000 NA
ATOM     25  C   UNL     1      -3.968  15.247  23.618  0.00  0.00    +0.000 C 
ATOM     26  C   UNL     1      -3.305  16.288  22.716  0.00  0.00    +0.000 C 
ATOM     27  C   UNL     1      -1.964  15.795  22.187  0.00  0.00    +0.000 C 
ATOM     28  C   UNL     1      -2.139  14.435  21.490  0.00  0.00    +0.000 C 
ATOM     29  C   UNL     1      -2.818  13.446  22.469  0.00  0.00    +0.000 C 
BRANCH  24  30
ATOM     30  C   UNL     1      -4.858  12.966  23.718  0.00  0.00    +0.000 C 
BRANCH  30  31
ATOM     31  C   UNL     1      -6.361  12.832  23.347  0.00  0.00    +0.000 C 
BRANCH  31  33
ATOM     32  C   UNL     1      -7.917  11.416  22.189  0.00  0.00    +0.000 C 
ATOM     33  N   UNL     1      -6.646  12.142  22.070  0.00  0.00    +0.000 NA
ATOM     34  C   UNL     1      -6.716  13.070  20.942  0.00  0.00    +0.000 C 
ENDBRANCH  31  33
ENDBRANCH  30  31
ENDBRANCH  24  30
ENDBRANCH   1  28
TORSDOF 5
ENDMDL
MODEL 9
REMARK VINA RESULT:      -6.5      4.178      8.570
REMARK  Name = 
REMARK  7 active torsions:
REMARK  status: ('A' for Active; 'I' for Inactive)
REMARK    1  A    between atoms: C_1  and  N_2
REMARK    2  A    between atoms: N_2  and  C_3
REMARK    3  A    between atoms: N_2  and  C_4
REMARK    4  A    between atoms: C_4  and  C_5
REMARK    5  A    between atoms: C_5  and  N_6
REMARK    6  A    between atoms: C_10  and  N_11
REMARK    7  A    between atoms: C_13  and  C_14
REMARK                            x       y       z     vdW  Elec       q    Type
REMARK                         _______ _______ _______ _____ _____    ______ ____
ROOT
ATOM      1  N   UNL     1      -0.637  13.604  20.795  0.00  0.00    +0.000 N 
ATOM      2  N   UNL     1       0.426  14.320  21.232  0.00  0.00    +0.000 NA
ATOM      3  C   UNL     1       1.499  13.789  20.621  0.00  0.00    +0.000 A 
ATOM      4  C   UNL     1       1.084  12.735  19.760  0.00  0.00    +0.000 A 
ATOM      5  C   UNL     1      -0.301  12.669  19.831  0.00  0.00    +0.000 A 
ATOM      6  C   UNL     1      -1.136  11.737  19.044  0.00  0.00    +0.000 A 
ATOM      7  C   UNL     1      -2.495  11.943  18.773  0.00  0.00    +0.000 A 
ATOM      8  C   UNL     1      -3.227  11.061  17.962  0.00  0.00    +0.000 A 
ATOM      9  C   UNL     1      -2.612   9.956  17.382  0.00  0.00    +0.000 A 
ATOM     10  C   UNL     1      -1.265   9.726  17.620  0.00  0.00    +0.000 A 
ATOM     11  C   UNL     1      -0.546  10.606  18.443  0.00  0.00    +0.000 A 
ATOM     12  S   UNL     1       1.186  10.266  18.667  0.00  0.00    +0.000 S 
ATOM     13  O   UNL     1       1.293   9.498  19.893  0.00  0.00    +0.000 OA
ATOM     14  O   UNL     1       1.679   9.730  17.410  0.00  0.00    +0.000 OA
ATOM     15  C   UNL     1       1.926  11.872  18.893  0.00  0.00    +0.000 C 
ENDROOT
BRANCH   3  16
ATOM     16  C   UNL     1       2.905  14.207  20.854  0.00  0.00    +0.000 C 
ATOM     17  O   UNL     1       3.610  13.537  21.617  0.00  0.00    +0.000 OA
ATOM     18  N   UNL     1       3.443  15.307  20.188  0.00  0.00    +0.000 N 
ATOM     19  C   UNL     1       2.756  16.170  19.223  0.00  0.00    +0.000 C 
ATOM     20  C   UNL     1       3.689  16.596  18.079  0.00  0.00    +0.000 C 
ATOM     21  O   UNL     1       4.946  17.101  18.549  0.00  0.00    +0.000 OA
ATOM     22  C   UNL     1       5.612  16.118  19.354  0.00  0.00    +0.000 C 
ATOM     23  C   UNL     1       4.769  15.789  20.585  0.00  0.00    +0.000 C 
ENDBRANCH   3  16
BRANCH   1  28
ATOM     24  N   UNL     1      -3.310  14.405  23.392  0.00  0.00    +0.000 NA
ATOM     25  C   UNL     1      -3.928  15.566  22.731  0.00  0.00    +0.000 C 
ATOM     26  C   UNL     1      -3.992  15.355  21.219  0.00  0.00    +0.000 C 
ATOM     27  C   UNL     1      -2.611  15.088  20.633  0.00  0.00    +0.000 C 
ATOM     28  C   UNL     1      -1.947  13.910  21.365  0.00  0.00    +0.000 C 
ATOM     29  C   UNL     1      -1.926  14.203  22.886  0.00  0.00    +0.000 C 
BRANCH  24  30
ATOM     30  C   UNL     1      -3.310  14.536  24.867  0.00  0.00    +0.000 C 
BRANCH  30  31
ATOM     31  C   UNL     1      -3.210  16.008  25.355  0.00  0.00    +0.000 C 
BRANCH  31  33
ATOM     32  C   UNL     1      -1.929  18.001  25.751  0.00  0.00    +0.000 C 
ATOM     33  N   UNL     1      -1.846  16.579  25.395  0.00  0.00    +0.000 NA
ATOM     34  C   UNL     1      -0.983  15.885  26.350  0.00  0.00    +0.000 C 
ENDBRANCH  31  33
ENDBRANCH  30  31
ENDBRANCH  24  30
ENDBRANCH   1  28
TORSDOF 5
ENDMDL
