MODEL 1
REMARK VINA RESULT:      -8.0      0.000      0.000
REMARK  Name = 
REMARK  6 active torsions:
REMARK  status: ('A' for Active; 'I' for Inactive)
REMARK    1  A    between atoms: C_1  and  N_2
REMARK    2  A    between atoms: C_3  and  C_4
REMARK    3  A    between atoms: C_10  and  C_11
REMARK    4  A    between atoms: C_11  and  C_13
REMARK    5  A    between atoms: C_16  and  C_17
REMARK    6  A    between atoms: N_27  and  C_28
REMARK                            x       y       z     vdW  Elec       q    Type
REMARK                         _______ _______ _______ _____ _____    ______ ____
ROOT
ATOM      1  C   UNL     1      -3.925  12.827  20.137  0.00  0.00    +0.000 C 
ATOM      2  O   UNL     1      -5.098  13.021  19.786  0.00  0.00    +0.000 OA
ATOM      3  N   UNL     1      -3.104  12.016  19.356  0.00  0.00    +0.000 N 
ATOM      4  C   UNL     1      -3.567  11.670  18.004  0.00  0.00    +0.000 C 
ATOM      5  C   UNL     1      -3.093  10.280  17.581  0.00  0.00    +0.000 C 
ATOM      6  C   UNL     1      -1.575  10.149  17.687  0.00  0.00    +0.000 C 
ATOM      7  C   UNL     1      -1.112  10.497  19.098  0.00  0.00    +0.000 C 
ATOM      8  C   UNL     1      -1.687  11.822  19.573  0.00  0.00    +0.000 C 
ENDROOT
BRANCH   1  11
ATOM      9  C   UNL     1      -2.584  15.653  20.769  0.00  0.00    +0.000 C 
ATOM     10  N   UNL     1      -2.840  14.616  21.747  0.00  0.00    +0.000 N 
ATOM     11  C   UNL     1      -3.495  13.415  21.483  0.00  0.00    +0.000 A 
ATOM     12  C   UNL     1      -3.915  12.656  22.508  0.00  0.00    +0.000 A 
ATOM     13  C   UNL     1      -3.733  13.094  23.897  0.00  0.00    +0.000 A 
ATOM     14  O   UNL     1      -4.254  12.444  24.799  0.00  0.00    +0.000 OA
ATOM     15  N   UNL     1      -2.975  14.225  24.078  0.00  0.00    +0.000 N 
ATOM     16  C   UNL     1      -2.756  14.736  25.417  0.00  0.00    +0.000 C 
ATOM     17  C   UNL     1      -2.446  14.972  23.041  0.00  0.00    +0.000 A 
ATOM     18  O   UNL     1      -1.696  15.929  23.252  0.00  0.00    +0.000 OA
ENDBRANCH   1  11
BRANCH   7  19
ATOM     19  C   UNL     1       0.408  10.647  19.189  0.00  0.00    +0.000 C 
ATOM     20  O   UNL     1       0.962  11.718  19.415  0.00  0.00    +0.000 OA
BRANCH  19  21
ATOM     21  C   UNL     1       1.242   9.429  19.041  0.00  0.00    +0.000 A 
ATOM     22  C   UNL     1       1.926   9.180  17.851  0.00  0.00    +0.000 A 
ATOM     23  C   UNL     1       2.706   8.034  17.723  0.00  0.00    +0.000 A 
ATOM     24  C   UNL     1       2.812   7.120  18.782  0.00  0.00    +0.000 A 
ATOM     25  C   UNL     1       2.118   7.373  19.976  0.00  0.00    +0.000 A 
ATOM     26  C   UNL     1       1.338   8.527  20.109  0.00  0.00    +0.000 A 
BRANCH  24  27
ATOM     27  C   UNL     1       3.673   5.889  18.636  0.00  0.00    +0.000 C 
ATOM     28  F   UNL     1       4.228   5.480  19.812  0.00  0.00    +0.000 F 
ATOM     29  F   UNL     1       2.975   4.821  18.163  0.00  0.00    +0.000 F 
ATOM     30  F   UNL     1       4.711   6.076  17.779  0.00  0.00    +0.000 F 
ENDBRANCH  24  27
ENDBRANCH  19  21
ENDBRANCH   7  19
TORSDOF 4
ENDMDL
MODEL 2
REMARK VINA RESULT:      -8.0      0.254      1.178
REMARK  Name = 
REMARK  6 active torsions:
REMARK  status: ('A' for Active; 'I' for Inactive)
REMARK    1  A    between atoms: C_1  and  N_2
REMARK    2  A    between atoms: C_3  and  C_4
REMARK    3  A    between atoms: C_10  and  C_11
REMARK    4  A    between atoms: C_11  and  C_13
REMARK    5  A    between atoms: C_16  and  C_17
REMARK    6  A    between atoms: N_27  and  C_28
REMARK                            x       y       z     vdW  Elec       q    Type
REMARK                         _______ _______ _______ _____ _____    ______ ____
ROOT
ATOM      1  C   UNL     1      -3.838  12.733  20.041  0.00  0.00    +0.000 C 
ATOM      2  O   UNL     1      -5.005  12.933  19.676  0.00  0.00    +0.000 OA
ATOM      3  N   UNL     1      -3.014  11.910  19.275  0.00  0.00    +0.000 N 
ATOM      4  C   UNL     1      -3.465  11.555  17.922  0.00  0.00    +0.000 C 
ATOM      5  C   UNL     1      -2.997  10.158  17.516  0.00  0.00    +0.000 C 
ATOM      6  C   UNL     1      -1.481  10.017  17.640  0.00  0.00    +0.000 C 
ATOM      7  C   UNL     1      -1.030  10.374  19.053  0.00  0.00    +0.000 C 
ATOM      8  C   UNL     1      -1.601  11.707  19.510  0.00  0.00    +0.000 C 
ENDROOT
BRANCH   1  11
ATOM      9  C   UNL     1      -2.226  15.420  20.642  0.00  0.00    +0.000 C 
ATOM     10  N   UNL     1      -2.648  14.462  21.642  0.00  0.00    +0.000 N 
ATOM     11  C   UNL     1      -3.418  13.330  21.386  0.00  0.00    +0.000 A 
ATOM     12  C   UNL     1      -3.975  12.668  22.413  0.00  0.00    +0.000 A 
ATOM     13  C   UNL     1      -3.820  13.144  23.792  0.00  0.00    +0.000 A 
ATOM     14  O   UNL     1      -4.458  12.596  24.686  0.00  0.00    +0.000 OA
ATOM     15  N   UNL     1      -2.951  14.193  23.974  0.00  0.00    +0.000 N 
ATOM     16  C   UNL     1      -2.750  14.736  25.303  0.00  0.00    +0.000 C 
ATOM     17  C   UNL     1      -2.288  14.831  22.942  0.00  0.00    +0.000 A 
ATOM     18  O   UNL     1      -1.447  15.709  23.159  0.00  0.00    +0.000 OA
ENDBRANCH   1  11
BRANCH   7  19
ATOM     19  C   UNL     1       0.490  10.514  19.158  0.00  0.00    +0.000 C 
ATOM     20  O   UNL     1       1.049  11.584  19.377  0.00  0.00    +0.000 OA
BRANCH  19  21
ATOM     21  C   UNL     1       1.316   9.289  19.034  0.00  0.00    +0.000 A 
ATOM     22  C   UNL     1       1.379   8.369  20.081  0.00  0.00    +0.000 A 
ATOM     23  C   UNL     1       2.158   7.222  19.955  0.00  0.00    +0.000 A 
ATOM     24  C   UNL     1       2.886   6.979  18.781  0.00  0.00    +0.000 A 
ATOM     25  C   UNL     1       2.823   7.910  17.732  0.00  0.00    +0.000 A 
ATOM     26  C   UNL     1       2.037   9.060  17.855  0.00  0.00    +0.000 A 
BRANCH  24  27
ATOM     27  C   UNL     1       3.715   5.724  18.650  0.00  0.00    +0.000 C 
ATOM     28  F   UNL     1       4.420   5.666  17.486  0.00  0.00    +0.000 F 
ATOM     29  F   UNL     1       4.633   5.602  19.647  0.00  0.00    +0.000 F 
ATOM     30  F   UNL     1       2.961   4.594  18.686  0.00  0.00    +0.000 F 
ENDBRANCH  24  27
ENDBRANCH  19  21
ENDBRANCH   7  19
TORSDOF 4
ENDMDL
MODEL 3
REMARK VINA RESULT:      -7.9      4.018      5.319
REMARK  Name = 
REMARK  6 active torsions:
REMARK  status: ('A' for Active; 'I' for Inactive)
REMARK    1  A    between atoms: C_1  and  N_2
REMARK    2  A    between atoms: C_3  and  C_4
REMARK    3  A    between atoms: C_10  and  C_11
REMARK    4  A    between atoms: C_11  and  C_13
REMARK    5  A    between atoms: C_16  and  C_17
REMARK    6  A    between atoms: N_27  and  C_28
REMARK                            x       y       z     vdW  Elec       q    Type
REMARK                         _______ _______ _______ _____ _____    ______ ____
ROOT
ATOM      1  C   UNL     1       1.019  14.056  19.271  0.00  0.00    +0.000 C 
ATOM      2  O   UNL     1       0.204  14.988  19.331  0.00  0.00    +0.000 OA
ATOM      3  N   UNL     1       0.578  12.787  18.900  0.00  0.00    +0.000 N 
ATOM      4  C   UNL     1      -0.764  12.670  18.313  0.00  0.00    +0.000 C 
ATOM      5  C   UNL     1      -1.427  11.341  18.671  0.00  0.00    +0.000 C 
ATOM      6  C   UNL     1      -0.553  10.154  18.272  0.00  0.00    +0.000 C 
ATOM      7  C   UNL     1       0.831  10.281  18.902  0.00  0.00    +0.000 C 
ATOM      8  C   UNL     1       1.441  11.652  18.655  0.00  0.00    +0.000 C 
ENDROOT
BRANCH   1  11
ATOM      9  C   UNL     1       3.427  15.346  17.621  0.00  0.00    +0.000 C 
ATOM     10  N   UNL     1       3.521  14.845  18.977  0.00  0.00    +0.000 N 
ATOM     11  C   UNL     1       2.450  14.354  19.721  0.00  0.00    +0.000 A 
ATOM     12  C   UNL     1       2.598  14.173  21.044  0.00  0.00    +0.000 A 
ATOM     13  C   UNL     1       3.851  14.526  21.720  0.00  0.00    +0.000 A 
ATOM     14  O   UNL     1       3.899  14.480  22.945  0.00  0.00    +0.000 OA
ATOM     15  N   UNL     1       4.895  14.889  20.904  0.00  0.00    +0.000 N 
ATOM     16  C   UNL     1       6.166  15.268  21.489  0.00  0.00    +0.000 C 
ATOM     17  C   UNL     1       4.798  14.989  19.528  0.00  0.00    +0.000 A 
ATOM     18  O   UNL     1       5.785  15.230  18.827  0.00  0.00    +0.000 OA
ENDBRANCH   1  11
BRANCH   7  19
ATOM     19  C   UNL     1       1.826   9.273  18.322  0.00  0.00    +0.000 C 
ATOM     20  O   UNL     1       2.581   9.538  17.392  0.00  0.00    +0.000 OA
BRANCH  19  21
ATOM     21  C   UNL     1       1.908   7.931  18.949  0.00  0.00    +0.000 A 
ATOM     22  C   UNL     1       1.575   7.756  20.292  0.00  0.00    +0.000 A 
ATOM     23  C   UNL     1       1.656   6.492  20.870  0.00  0.00    +0.000 A 
ATOM     24  C   UNL     1       2.073   5.386  20.115  0.00  0.00    +0.000 A 
ATOM     25  C   UNL     1       2.412   5.569  18.765  0.00  0.00    +0.000 A 
ATOM     26  C   UNL     1       2.326   6.836  18.180  0.00  0.00    +0.000 A 
BRANCH  24  27
ATOM     27  C   UNL     1       2.142   4.018  20.750  0.00  0.00    +0.000 C 
ATOM     28  F   UNL     1       0.951   3.357  20.732  0.00  0.00    +0.000 F 
ATOM     29  F   UNL     1       3.031   3.200  20.123  0.00  0.00    +0.000 F 
ATOM     30  F   UNL     1       2.522   4.067  22.054  0.00  0.00    +0.000 F 
ENDBRANCH  24  27
ENDBRANCH  19  21
ENDBRANCH   7  19
TORSDOF 4
ENDMDL
MODEL 4
REMARK VINA RESULT:      -7.9      4.017      5.262
REMARK  Name = 
REMARK  6 active torsions:
REMARK  status: ('A' for Active; 'I' for Inactive)
REMARK    1  A    between atoms: C_1  and  N_2
REMARK    2  A    between atoms: C_3  and  C_4
REMARK    3  A    between atoms: C_10  and  C_11
REMARK    4  A    between atoms: C_11  and  C_13
REMARK    5  A    between atoms: C_16  and  C_17
REMARK    6  A    between atoms: N_27  and  C_28
REMARK                            x       y       z     vdW  Elec       q    Type
REMARK                         _______ _______ _______ _____ _____    ______ ____
ROOT
ATOM      1  C   UNL     1       1.065  14.034  19.431  0.00  0.00    +0.000 C 
ATOM      2  O   UNL     1       0.261  14.969  19.555  0.00  0.00    +0.000 OA
ATOM      3  N   UNL     1       0.597  12.778  19.048  0.00  0.00    +0.000 N 
ATOM      4  C   UNL     1      -0.773  12.687  18.523  0.00  0.00    +0.000 C 
ATOM      5  C   UNL     1      -1.428  11.353  18.877  0.00  0.00    +0.000 C 
ATOM      6  C   UNL     1      -0.583  10.171  18.405  0.00  0.00    +0.000 C 
ATOM      7  C   UNL     1       0.830  10.271  18.970  0.00  0.00    +0.000 C 
ATOM      8  C   UNL     1       1.438  11.645  18.732  0.00  0.00    +0.000 C 
ENDROOT
BRANCH   1  11
ATOM      9  C   UNL     1       3.418  15.292  17.682  0.00  0.00    +0.000 C 
ATOM     10  N   UNL     1       3.564  14.787  19.031  0.00  0.00    +0.000 N 
ATOM     11  C   UNL     1       2.518  14.310  19.820  0.00  0.00    +0.000 A 
ATOM     12  C   UNL     1       2.720  14.124  21.135  0.00  0.00    +0.000 A 
ATOM     13  C   UNL     1       4.006  14.457  21.757  0.00  0.00    +0.000 A 
ATOM     14  O   UNL     1       4.106  14.408  22.979  0.00  0.00    +0.000 OA
ATOM     15  N   UNL     1       5.019  14.807  20.898  0.00  0.00    +0.000 N 
ATOM     16  C   UNL     1       6.319  15.166  21.429  0.00  0.00    +0.000 C 
ATOM     17  C   UNL     1       4.865  14.911  19.527  0.00  0.00    +0.000 A 
ATOM     18  O   UNL     1       5.824  15.139  18.785  0.00  0.00    +0.000 OA
ENDBRANCH   1  11
BRANCH   7  19
ATOM     19  C   UNL     1       1.788   9.273  18.317  0.00  0.00    +0.000 C 
ATOM     20  O   UNL     1       2.482   9.551  17.345  0.00  0.00    +0.000 OA
BRANCH  19  21
ATOM     21  C   UNL     1       1.911   7.924  18.920  0.00  0.00    +0.000 A 
ATOM     22  C   UNL     1       2.338   6.841  18.152  0.00  0.00    +0.000 A 
ATOM     23  C   UNL     1       2.451   5.579  18.728  0.00  0.00    +0.000 A 
ATOM     24  C   UNL     1       2.137   5.381  20.081  0.00  0.00    +0.000 A 
ATOM     25  C   UNL     1       1.702   6.473  20.849  0.00  0.00    +0.000 A 
ATOM     26  C   UNL     1       1.593   7.743  20.273  0.00  0.00    +0.000 A 
BRANCH  24  27
ATOM     27  C   UNL     1       2.277   4.011  20.698  0.00  0.00    +0.000 C 
ATOM     28  F   UNL     1       2.456   4.047  22.048  0.00  0.00    +0.000 F 
ATOM     29  F   UNL     1       1.180   3.233  20.489  0.00  0.00    +0.000 F 
ATOM     30  F   UNL     1       3.336   3.319  20.199  0.00  0.00    +0.000 F 
ENDBRANCH  24  27
ENDBRANCH  19  21
ENDBRANCH   7  19
TORSDOF 4
ENDMDL
MODEL 5
REMARK VINA RESULT:      -7.7      6.084     10.810
REMARK  Name = 
REMARK  6 active torsions:
REMARK  status: ('A' for Active; 'I' for Inactive)
REMARK    1  A    between atoms: C_1  and  N_2
REMARK    2  A    between atoms: C_3  and  C_4
REMARK    3  A    between atoms: C_10  and  C_11
REMARK    4  A    between atoms: C_11  and  C_13
REMARK    5  A    between atoms: C_16  and  C_17
REMARK    6  A    between atoms: N_27  and  C_28
REMARK                            x       y       z     vdW  Elec       q    Type
REMARK                         _______ _______ _______ _____ _____    ______ ____
ROOT
ATOM      1  C   UNL     1       4.517   4.055  18.814  0.00  0.00    +0.000 C 
ATOM      2  O   UNL     1       4.691   2.902  19.232  0.00  0.00    +0.000 OA
ATOM      3  N   UNL     1       3.512   4.841  19.375  0.00  0.00    +0.000 N 
ATOM      4  C   UNL     1       2.901   4.381  20.630  0.00  0.00    +0.000 C 
ATOM      5  C   UNL     1       1.430   4.781  20.725  0.00  0.00    +0.000 C 
ATOM      6  C   UNL     1       1.245   6.287  20.549  0.00  0.00    +0.000 C 
ATOM      7  C   UNL     1       1.870   6.746  19.236  0.00  0.00    +0.000 C 
ATOM      8  C   UNL     1       3.296   6.240  19.080  0.00  0.00    +0.000 C 
ENDROOT
BRANCH   1  11
ATOM      9  C   UNL     1       7.145   5.864  18.759  0.00  0.00    +0.000 C 
ATOM     10  N   UNL     1       6.465   5.349  17.589  0.00  0.00    +0.000 N 
ATOM     11  C   UNL     1       5.364   4.496  17.618  0.00  0.00    +0.000 A 
ATOM     12  C   UNL     1       4.988   3.870  16.492  0.00  0.00    +0.000 A 
ATOM     13  C   UNL     1       5.744   4.037  15.245  0.00  0.00    +0.000 A 
ATOM     14  O   UNL     1       5.455   3.341  14.276  0.00  0.00    +0.000 OA
ATOM     15  N   UNL     1       6.740   4.983  15.266  0.00  0.00    +0.000 N 
ATOM     16  C   UNL     1       7.547   5.202  14.082  0.00  0.00    +0.000 C 
ATOM     17  C   UNL     1       7.084   5.713  16.389  0.00  0.00    +0.000 A 
ATOM     18  O   UNL     1       7.924   6.617  16.339  0.00  0.00    +0.000 OA
ENDBRANCH   1  11
BRANCH   7  19
ATOM     19  C   UNL     1       1.956   8.270  19.137  0.00  0.00    +0.000 C 
ATOM     20  O   UNL     1       2.675   8.849  18.329  0.00  0.00    +0.000 OA
BRANCH  19  21
ATOM     21  C   UNL     1       1.092   9.080  20.031  0.00  0.00    +0.000 A 
ATOM     22  C   UNL     1       1.146   8.906  21.414  0.00  0.00    +0.000 A 
ATOM     23  C   UNL     1       0.331   9.671  22.244  0.00  0.00    +0.000 A 
ATOM     24  C   UNL     1      -0.550  10.619  21.704  0.00  0.00    +0.000 A 
ATOM     25  C   UNL     1      -0.604  10.786  20.310  0.00  0.00    +0.000 A 
ATOM     26  C   UNL     1       0.218  10.023  19.475  0.00  0.00    +0.000 A 
BRANCH  24  27
ATOM     27  C   UNL     1      -1.418  11.452  22.615  0.00  0.00    +0.000 C 
ATOM     28  F   UNL     1      -1.879  10.762  23.695  0.00  0.00    +0.000 F 
ATOM     29  F   UNL     1      -0.759  12.531  23.116  0.00  0.00    +0.000 F 
ATOM     30  F   UNL     1      -2.521  11.938  21.984  0.00  0.00    +0.000 F 
ENDBRANCH  24  27
ENDBRANCH  19  21
ENDBRANCH   7  19
TORSDOF 4
ENDMDL
MODEL 6
REMARK VINA RESULT:      -7.7      6.103     10.819
REMARK  Name = 
REMARK  6 active torsions:
REMARK  status: ('A' for Active; 'I' for Inactive)
REMARK    1  A    between atoms: C_1  and  N_2
REMARK    2  A    between atoms: C_3  and  C_4
REMARK    3  A    between atoms: C_10  and  C_11
REMARK    4  A    between atoms: C_11  and  C_13
REMARK    5  A    between atoms: C_16  and  C_17
REMARK    6  A    between atoms: N_27  and  C_28
REMARK                            x       y       z     vdW  Elec       q    Type
REMARK                         _______ _______ _______ _____ _____    ______ ____
ROOT
ATOM      1  C   UNL     1       4.679   4.080  18.825  0.00  0.00    +0.000 C 
ATOM      2  O   UNL     1       4.908   2.952  19.286  0.00  0.00    +0.000 OA
ATOM      3  N   UNL     1       3.650   4.844  19.370  0.00  0.00    +0.000 N 
ATOM      4  C   UNL     1       3.077   4.411  20.653  0.00  0.00    +0.000 C 
ATOM      5  C   UNL     1       1.591   4.751  20.755  0.00  0.00    +0.000 C 
ATOM      6  C   UNL     1       1.340   6.240  20.522  0.00  0.00    +0.000 C 
ATOM      7  C   UNL     1       1.926   6.671  19.181  0.00  0.00    +0.000 C 
ATOM      8  C   UNL     1       3.370   6.220  19.023  0.00  0.00    +0.000 C 
ENDROOT
BRANCH   1  11
ATOM      9  C   UNL     1       7.276   5.926  18.664  0.00  0.00    +0.000 C 
ATOM     10  N   UNL     1       6.576   5.375  17.523  0.00  0.00    +0.000 N 
ATOM     11  C   UNL     1       5.489   4.507  17.599  0.00  0.00    +0.000 A 
ATOM     12  C   UNL     1       5.094   3.850  16.496  0.00  0.00    +0.000 A 
ATOM     13  C   UNL     1       5.817   4.001  15.227  0.00  0.00    +0.000 A 
ATOM     14  O   UNL     1       5.515   3.280  14.281  0.00  0.00    +0.000 OA
ATOM     15  N   UNL     1       6.798   4.962  15.203  0.00  0.00    +0.000 N 
ATOM     16  C   UNL     1       7.572   5.168  13.995  0.00  0.00    +0.000 C 
ATOM     17  C   UNL     1       7.159   5.723  16.301  0.00  0.00    +0.000 A 
ATOM     18  O   UNL     1       7.983   6.637  16.210  0.00  0.00    +0.000 OA
ENDBRANCH   1  11
BRANCH   7  19
ATOM     19  C   UNL     1       1.945   8.193  19.021  0.00  0.00    +0.000 C 
ATOM     20  O   UNL     1       2.586   8.765  18.145  0.00  0.00    +0.000 OA
BRANCH  19  21
ATOM     21  C   UNL     1       1.111   9.005  19.941  0.00  0.00    +0.000 A 
ATOM     22  C   UNL     1       0.242   9.973  19.439  0.00  0.00    +0.000 A 
ATOM     23  C   UNL     1      -0.536  10.730  20.311  0.00  0.00    +0.000 A 
ATOM     24  C   UNL     1      -0.455  10.530  21.697  0.00  0.00    +0.000 A 
ATOM     25  C   UNL     1       0.425   9.557  22.197  0.00  0.00    +0.000 A 
ATOM     26  C   UNL     1       1.204   8.792  21.323  0.00  0.00    +0.000 A 
BRANCH  24  27
ATOM     27  C   UNL     1      -1.315  11.346  22.631  0.00  0.00    +0.000 C 
ATOM     28  F   UNL     1      -0.671  12.434  23.139  0.00  0.00    +0.000 F 
ATOM     29  F   UNL     1      -2.433  11.825  22.022  0.00  0.00    +0.000 F 
ATOM     30  F   UNL     1      -1.742  10.630  23.706  0.00  0.00    +0.000 F 
ENDBRANCH  24  27
ENDBRANCH  19  21
ENDBRANCH   7  19
TORSDOF 4
ENDMDL
MODEL 7
REMARK VINA RESULT:      -7.6      4.808      7.913
REMARK  Name = 
REMARK  6 active torsions:
REMARK  status: ('A' for Active; 'I' for Inactive)
REMARK    1  A    between atoms: C_1  and  N_2
REMARK    2  A    between atoms: C_3  and  C_4
REMARK    3  A    between atoms: C_10  and  C_11
REMARK    4  A    between atoms: C_11  and  C_13
REMARK    5  A    between atoms: C_16  and  C_17
REMARK    6  A    between atoms: N_27  and  C_28
REMARK                            x       y       z     vdW  Elec       q    Type
REMARK                         _______ _______ _______ _____ _____    ______ ____
ROOT
ATOM      1  C   UNL     1       1.974   6.072  20.155  0.00  0.00    +0.000 C 
ATOM      2  O   UNL     1       1.156   5.388  20.786  0.00  0.00    +0.000 OA
ATOM      3  N   UNL     1       3.086   5.454  19.586  0.00  0.00    +0.000 N 
ATOM      4  C   UNL     1       3.089   3.987  19.503  0.00  0.00    +0.000 C 
ATOM      5  C   UNL     1       4.498   3.413  19.637  0.00  0.00    +0.000 C 
ATOM      6  C   UNL     1       5.449   4.019  18.606  0.00  0.00    +0.000 C 
ATOM      7  C   UNL     1       5.448   5.540  18.715  0.00  0.00    +0.000 C 
ATOM      8  C   UNL     1       4.036   6.106  18.712  0.00  0.00    +0.000 C 
ENDROOT
BRANCH   1  11
ATOM      9  C   UNL     1       1.709   8.053  17.667  0.00  0.00    +0.000 C 
ATOM     10  N   UNL     1       1.714   8.459  19.057  0.00  0.00    +0.000 N 
ATOM     11  C   UNL     1       1.752   7.586  20.142  0.00  0.00    +0.000 A 
ATOM     12  C   UNL     1       1.479   8.054  21.371  0.00  0.00    +0.000 A 
ATOM     13  C   UNL     1       1.101   9.456  21.580  0.00  0.00    +0.000 A 
ATOM     14  O   UNL     1       0.723   9.811  22.692  0.00  0.00    +0.000 OA
ATOM     15  N   UNL     1       1.203  10.278  20.483  0.00  0.00    +0.000 N 
ATOM     16  C   UNL     1       0.835  11.675  20.597  0.00  0.00    +0.000 C 
ATOM     17  C   UNL     1       1.577   9.840  19.225  0.00  0.00    +0.000 A 
ATOM     18  O   UNL     1       1.743  10.629  18.291  0.00  0.00    +0.000 OA
ENDBRANCH   1  11
BRANCH   7  19
ATOM     19  C   UNL     1       6.165   6.205  17.538  0.00  0.00    +0.000 C 
ATOM     20  O   UNL     1       6.787   7.258  17.643  0.00  0.00    +0.000 OA
BRANCH  19  21
ATOM     21  C   UNL     1       6.143   5.516  16.225  0.00  0.00    +0.000 A 
ATOM     22  C   UNL     1       4.936   5.106  15.661  0.00  0.00    +0.000 A 
ATOM     23  C   UNL     1       4.926   4.460  14.428  0.00  0.00    +0.000 A 
ATOM     24  C   UNL     1       6.125   4.213  13.741  0.00  0.00    +0.000 A 
ATOM     25  C   UNL     1       7.339   4.624  14.316  0.00  0.00    +0.000 A 
ATOM     26  C   UNL     1       7.350   5.278  15.552  0.00  0.00    +0.000 A 
BRANCH  24  27
ATOM     27  C   UNL     1       6.101   3.525  12.398  0.00  0.00    +0.000 C 
ATOM     28  F   UNL     1       4.940   3.725  11.714  0.00  0.00    +0.000 F 
ATOM     29  F   UNL     1       7.096   3.956  11.577  0.00  0.00    +0.000 F 
ATOM     30  F   UNL     1       6.247   2.177  12.500  0.00  0.00    +0.000 F 
ENDBRANCH  24  27
ENDBRANCH  19  21
ENDBRANCH   7  19
TORSDOF 4
ENDMDL
MODEL 8
REMARK VINA RESULT:      -7.5      2.101      3.818
REMARK  Name = 
REMARK  6 active torsions:
REMARK  status: ('A' for Active; 'I' for Inactive)
REMARK    1  A    between atoms: C_1  and  N_2
REMARK    2  A    between atoms: C_3  and  C_4
REMARK    3  A    between atoms: C_10  and  C_11
REMARK    4  A    between atoms: C_11  and  C_13
REMARK    5  A    between atoms: C_16  and  C_17
REMARK    6  A    between atoms: N_27  and  C_28
REMARK                            x       y       z     vdW  Elec       q    Type
REMARK                         _______ _______ _______ _____ _____    ______ ____
ROOT
ATOM      1  C   UNL     1      -2.458  13.652  20.530  0.00  0.00    +0.000 C 
ATOM      2  O   UNL     1      -2.511  14.887  20.614  0.00  0.00    +0.000 OA
ATOM      3  N   UNL     1      -1.218  13.016  20.588  0.00  0.00    +0.000 N 
ATOM      4  C   UNL     1      -0.063  13.804  21.039  0.00  0.00    +0.000 C 
ATOM      5  C   UNL     1       1.229  13.358  20.358  0.00  0.00    +0.000 C 
ATOM      6  C   UNL     1       1.479  11.864  20.554  0.00  0.00    +0.000 C 
ATOM      7  C   UNL     1       0.279  11.059  20.066  0.00  0.00    +0.000 C 
ATOM      8  C   UNL     1      -1.027  11.583  20.644  0.00  0.00    +0.000 C 
ENDROOT
BRANCH   1  11
ATOM      9  C   UNL     1      -3.228  11.728  18.104  0.00  0.00    +0.000 C 
ATOM     10  N   UNL     1      -4.131  12.139  19.158  0.00  0.00    +0.000 N 
ATOM     11  C   UNL     1      -3.771  12.916  20.258  0.00  0.00    +0.000 A 
ATOM     12  C   UNL     1      -4.612  13.008  21.301  0.00  0.00    +0.000 A 
ATOM     13  C   UNL     1      -5.879  12.268  21.318  0.00  0.00    +0.000 A 
ATOM     14  O   UNL     1      -6.553  12.264  22.344  0.00  0.00    +0.000 OA
ATOM     15  N   UNL     1      -6.217  11.623  20.152  0.00  0.00    +0.000 N 
ATOM     16  C   UNL     1      -7.445  10.856  20.086  0.00  0.00    +0.000 C 
ATOM     17  C   UNL     1      -5.412  11.595  19.027  0.00  0.00    +0.000 A 
ATOM     18  O   UNL     1      -5.795  11.080  17.973  0.00  0.00    +0.000 OA
ENDBRANCH   1  11
BRANCH   7  19
ATOM     19  C   UNL     1       0.358   9.589  20.485  0.00  0.00    +0.000 C 
ATOM     20  O   UNL     1      -0.333   9.111  21.378  0.00  0.00    +0.000 OA
BRANCH  19  21
ATOM     21  C   UNL     1       1.281   8.698  19.741  0.00  0.00    +0.000 A 
ATOM     22  C   UNL     1       1.778   7.539  20.336  0.00  0.00    +0.000 A 
ATOM     23  C   UNL     1       2.644   6.709  19.629  0.00  0.00    +0.000 A 
ATOM     24  C   UNL     1       3.026   7.027  18.317  0.00  0.00    +0.000 A 
ATOM     25  C   UNL     1       2.527   8.199  17.725  0.00  0.00    +0.000 A 
ATOM     26  C   UNL     1       1.653   9.031  18.432  0.00  0.00    +0.000 A 
BRANCH  24  27
ATOM     27  C   UNL     1       3.954   6.113  17.555  0.00  0.00    +0.000 C 
ATOM     28  F   UNL     1       4.421   6.664  16.400  0.00  0.00    +0.000 F 
ATOM     29  F   UNL     1       5.055   5.771  18.277  0.00  0.00    +0.000 F 
ATOM     30  F   UNL     1       3.357   4.945  17.196  0.00  0.00    +0.000 F 
ENDBRANCH  24  27
ENDBRANCH  19  21
ENDBRANCH   7  19
TORSDOF 4
ENDMDL
MODEL 9
REMARK VINA RESULT:      -7.4      3.177      4.740
REMARK  Name = 
REMARK  6 active torsions:
REMARK  status: ('A' for Active; 'I' for Inactive)
REMARK    1  A    between atoms: C_1  and  N_2
REMARK    2  A    between atoms: C_3  and  C_4
REMARK    3  A    between atoms: C_10  and  C_11
REMARK    4  A    between atoms: C_11  and  C_13
REMARK    5  A    between atoms: C_16  and  C_17
REMARK    6  A    between atoms: N_27  and  C_28
REMARK                            x       y       z     vdW  Elec       q    Type
REMARK                         _______ _______ _______ _____ _____    ______ ____
ROOT
ATOM      1  C   UNL     1       0.061  13.698  21.903  0.00  0.00    +0.000 C 
ATOM      2  O   UNL     1      -0.359  14.220  22.946  0.00  0.00    +0.000 OA
ATOM      3  N   UNL     1      -0.035  12.317  21.744  0.00  0.00    +0.000 N 
ATOM      4  C   UNL     1      -0.891  11.575  22.681  0.00  0.00    +0.000 C 
ATOM      5  C   UNL     1      -0.354  10.171  22.951  0.00  0.00    +0.000 C 
ATOM      6  C   UNL     1      -0.158   9.387  21.654  0.00  0.00    +0.000 C 
ATOM      7  C   UNL     1       0.745  10.161  20.700  0.00  0.00    +0.000 C 
ATOM      8  C   UNL     1       0.286  11.601  20.529  0.00  0.00    +0.000 C 
ENDROOT
BRANCH   1  11
ATOM      9  C   UNL     1       3.170  13.955  21.233  0.00  0.00    +0.000 C 
ATOM     10  N   UNL     1       2.125  14.781  20.664  0.00  0.00    +0.000 N 
ATOM     11  C   UNL     1       0.762  14.616  20.900  0.00  0.00    +0.000 A 
ATOM     12  C   UNL     1      -0.122  15.256  20.118  0.00  0.00    +0.000 A 
ATOM     13  C   UNL     1       0.326  16.089  18.995  0.00  0.00    +0.000 A 
ATOM     14  O   UNL     1      -0.511  16.542  18.219  0.00  0.00    +0.000 OA
ATOM     15  N   UNL     1       1.680  16.298  18.902  0.00  0.00    +0.000 N 
ATOM     16  C   UNL     1       2.211  17.096  17.815  0.00  0.00    +0.000 C 
ATOM     17  C   UNL     1       2.608  15.728  19.756  0.00  0.00    +0.000 A 
ATOM     18  O   UNL     1       3.807  16.016  19.692  0.00  0.00    +0.000 OA
ENDBRANCH   1  11
BRANCH   7  19
ATOM     19  C   UNL     1       0.754   9.558  19.294  0.00  0.00    +0.000 C 
ATOM     20  O   UNL     1       0.028   9.958  18.390  0.00  0.00    +0.000 OA
BRANCH  19  21
ATOM     21  C   UNL     1       1.721   8.471  19.004  0.00  0.00    +0.000 A 
ATOM     22  C   UNL     1       1.915   7.435  19.918  0.00  0.00    +0.000 A 
ATOM     23  C   UNL     1       2.826   6.420  19.637  0.00  0.00    +0.000 A 
ATOM     24  C   UNL     1       3.556   6.427  18.439  0.00  0.00    +0.000 A 
ATOM     25  C   UNL     1       3.361   7.475  17.525  0.00  0.00    +0.000 A 
ATOM     26  C   UNL     1       2.443   8.493  17.803  0.00  0.00    +0.000 A 
BRANCH  24  27
ATOM     27  C   UNL     1       4.529   5.313  18.139  0.00  0.00    +0.000 C 
ATOM     28  F   UNL     1       5.346   5.584  17.082  0.00  0.00    +0.000 F 
ATOM     29  F   UNL     1       5.354   5.047  19.188  0.00  0.00    +0.000 F 
ATOM     30  F   UNL     1       3.906   4.142  17.838  0.00  0.00    +0.000 F 
ENDBRANCH  24  27
ENDBRANCH  19  21
ENDBRANCH   7  19
TORSDOF 4
ENDMDL
