MODEL 1
REMARK VINA RESULT:      -5.6      0.000      0.000
REMARK  Name = 
REMARK  7 active torsions:
REMARK  status: ('A' for Active; 'I' for Inactive)
REMARK    1  A    between atoms: C_1  and  C_2
REMARK    2  A    between atoms: N_6  and  C_7
REMARK    3  A    between atoms: C_8  and  C_9
REMARK    4  A    between atoms: C_12  and  N_13
REMARK    5  A    between atoms: C_18  and  C_19
REMARK    6  A    between atoms: C_24  and  O_25
REMARK    7  A    between atoms: C_24  and  C_26
REMARK                            x       y       z     vdW  Elec       q    Type
REMARK                         _______ _______ _______ _____ _____    ______ ____
ROOT
ATOM      1  C   UNL     1      -2.387  11.273  19.108  0.00  0.00    +0.000 C 
ATOM      2  C   UNL     1      -3.505  11.834  20.041  0.00  0.00    +0.000 C 
ATOM      3  C   UNL     1      -4.789  12.220  19.348  0.00  0.00    +0.000 C 
ATOM      4  C   UNL     1      -4.889  12.317  18.008  0.00  0.00    +0.000 C 
ATOM      5  S   UNL     1      -6.273  12.791  17.090  0.00  0.00    +0.000 SA
ATOM      6  N   UNL     1      -3.810  12.016  17.221  0.00  0.00    +0.000 N 
ATOM      7  C   UNL     1      -2.525  11.537  17.570  0.00  0.00    +0.000 C 
ATOM      8  H   UNL     1      -4.121  11.978  16.248  0.00  0.00    +0.000 HD
ENDROOT
BRANCH   1  14
ATOM      9  C   UNL     1       1.746  14.079  19.582  0.00  0.00    +0.000 C 
ATOM     10  C   UNL     1       1.015  12.808  19.899  0.00  0.00    +0.000 A 
ATOM     11  C   UNL     1       1.574  11.822  20.701  0.00  0.00    +0.000 A 
ATOM     12  C   UNL     1       0.838  10.680  20.985  0.00  0.00    +0.000 A 
ATOM     13  C   UNL     1      -0.440  10.528  20.453  0.00  0.00    +0.000 A 
ATOM     14  N   UNL     1      -0.983  11.485  19.659  0.00  0.00    +0.000 N 
ATOM     15  C   UNL     1      -0.272  12.612  19.401  0.00  0.00    +0.000 A 
ENDBRANCH   1  14
BRANCH   2  16
ATOM     16  C   UNL     1      -3.072  12.878  21.074  0.00  0.00    +0.000 A 
ATOM     17  C   UNL     1      -2.926  14.232  20.744  0.00  0.00    +0.000 A 
ATOM     18  C   UNL     1      -2.387  15.132  21.668  0.00  0.00    +0.000 A 
ATOM     19  C   UNL     1      -2.077  14.693  22.963  0.00  0.00    +0.000 A 
ATOM     20  C   UNL     1      -2.353  13.381  23.352  0.00  0.00    +0.000 A 
ATOM     21  C   UNL     1      -2.845  12.479  22.406  0.00  0.00    +0.000 A 
BRANCH  19  22
ATOM     22  N   UNL     1      -1.415  15.608  23.902  0.00  0.00    +0.000 N 
ATOM     23  O   UNL     1      -1.608  16.821  23.755  0.00  0.00    +0.000 OA
ATOM     24  O   UNL     1      -0.656  15.111  24.749  0.00  0.00    +0.000 OA
ENDBRANCH  19  22
ENDBRANCH   2  16
BRANCH   7  25
ATOM     25  C   UNL     1      -2.275  10.253  16.798  0.00  0.00    +0.000 C 
ATOM     26  C   UNL     1      -3.393   9.323  16.389  0.00  0.00    +0.000 C 
ATOM     27  C   UNL     1      -2.648  10.103  15.341  0.00  0.00    +0.000 C 
ENDBRANCH   7  25
BRANCH   3  28
ATOM     28  C   UNL     1      -5.950  12.490  20.290  0.00  0.00    +0.000 C 
ATOM     29  N   UNL     1      -6.913  12.714  21.073  0.00  0.00    +0.000 NA
ENDBRANCH   3  28
BRANCH   7  30
ATOM     30  O   UNL     1      -1.674  12.553  17.089  0.00  0.00    +0.000 OA
ATOM     31  H   UNL     1      -2.151  12.818  16.275  0.00  0.00    +0.000 HD
ENDBRANCH   7  30
TORSDOF 6
ENDMDL
MODEL 2
REMARK VINA RESULT:      -5.6      3.461      5.125
REMARK  Name = 
REMARK  7 active torsions:
REMARK  status: ('A' for Active; 'I' for Inactive)
REMARK    1  A    between atoms: C_1  and  C_2
REMARK    2  A    between atoms: N_6  and  C_7
REMARK    3  A    between atoms: C_8  and  C_9
REMARK    4  A    between atoms: C_12  and  N_13
REMARK    5  A    between atoms: C_18  and  C_19
REMARK    6  A    between atoms: C_24  and  O_25
REMARK    7  A    between atoms: C_24  and  C_26
REMARK                            x       y       z     vdW  Elec       q    Type
REMARK                         _______ _______ _______ _____ _____    ______ ____
ROOT
ATOM      1  C   UNL     1       0.391  13.520  19.949  0.00  0.00    +0.000 C 
ATOM      2  C   UNL     1      -0.863  14.415  20.193  0.00  0.00    +0.000 C 
ATOM      3  C   UNL     1      -0.570  15.862  20.509  0.00  0.00    +0.000 C 
ATOM      4  C   UNL     1       0.667  16.302  20.808  0.00  0.00    +0.000 C 
ATOM      5  S   UNL     1       1.135  17.909  21.232  0.00  0.00    +0.000 SA
ATOM      6  N   UNL     1       1.724  15.432  20.789  0.00  0.00    +0.000 N 
ATOM      7  C   UNL     1       1.777  14.062  20.439  0.00  0.00    +0.000 C 
ATOM      8  H   UNL     1       2.588  15.971  20.868  0.00  0.00    +0.000 HD
ENDROOT
BRANCH   1  14
ATOM      9  C   UNL     1      -0.163   9.777  23.245  0.00  0.00    +0.000 C 
ATOM     10  C   UNL     1      -0.117  10.232  21.816  0.00  0.00    +0.000 A 
ATOM     11  C   UNL     1      -0.312   9.351  20.761  0.00  0.00    +0.000 A 
ATOM     12  C   UNL     1      -0.288   9.836  19.460  0.00  0.00    +0.000 A 
ATOM     13  C   UNL     1      -0.055  11.188  19.227  0.00  0.00    +0.000 A 
ATOM     14  N   UNL     1       0.147  12.048  20.257  0.00  0.00    +0.000 N 
ATOM     15  C   UNL     1       0.101  11.579  21.530  0.00  0.00    +0.000 A 
ENDBRANCH   1  14
BRANCH   2  16
ATOM     16  C   UNL     1      -1.949  13.836  21.104  0.00  0.00    +0.000 A 
ATOM     17  C   UNL     1      -3.087  13.199  20.589  0.00  0.00    +0.000 A 
ATOM     18  C   UNL     1      -4.129  12.816  21.439  0.00  0.00    +0.000 A 
ATOM     19  C   UNL     1      -3.992  12.987  22.824  0.00  0.00    +0.000 A 
ATOM     20  C   UNL     1      -2.805  13.486  23.362  0.00  0.00    +0.000 A 
ATOM     21  C   UNL     1      -1.792  13.912  22.502  0.00  0.00    +0.000 A 
BRANCH  19  22
ATOM     22  N   UNL     1      -5.124  12.683  23.710  0.00  0.00    +0.000 N 
ATOM     23  O   UNL     1      -4.893  12.017  24.726  0.00  0.00    +0.000 OA
ATOM     24  O   UNL     1      -6.250  13.061  23.353  0.00  0.00    +0.000 OA
ENDBRANCH  19  22
ENDBRANCH   2  16
BRANCH   7  25
ATOM     25  C   UNL     1       2.817  13.895  19.344  0.00  0.00    +0.000 C 
ATOM     26  C   UNL     1       2.455  13.453  17.945  0.00  0.00    +0.000 C 
ATOM     27  C   UNL     1       2.930  14.860  18.186  0.00  0.00    +0.000 C 
ENDBRANCH   7  25
BRANCH   3  28
ATOM     28  C   UNL     1      -1.788  16.770  20.461  0.00  0.00    +0.000 C 
ATOM     29  N   UNL     1      -2.798  17.523  20.422  0.00  0.00    +0.000 NA
ENDBRANCH   3  28
BRANCH   7  30
ATOM     30  O   UNL     1       2.238  13.456  21.626  0.00  0.00    +0.000 OA
ATOM     31  H   UNL     1       1.390  13.160  22.018  0.00  0.00    +0.000 HD
ENDBRANCH   7  30
TORSDOF 6
ENDMDL
MODEL 3
REMARK VINA RESULT:      -5.5      3.387      5.320
REMARK  Name = 
REMARK  7 active torsions:
REMARK  status: ('A' for Active; 'I' for Inactive)
REMARK    1  A    between atoms: C_1  and  C_2
REMARK    2  A    between atoms: N_6  and  C_7
REMARK    3  A    between atoms: C_8  and  C_9
REMARK    4  A    between atoms: C_12  and  N_13
REMARK    5  A    between atoms: C_18  and  C_19
REMARK    6  A    between atoms: C_24  and  O_25
REMARK    7  A    between atoms: C_24  and  C_26
REMARK                            x       y       z     vdW  Elec       q    Type
REMARK                         _______ _______ _______ _____ _____    ______ ____
ROOT
ATOM      1  C   UNL     1       0.905  13.373  20.827  0.00  0.00    +0.000 C 
ATOM      2  C   UNL     1       0.176  12.079  21.302  0.00  0.00    +0.000 C 
ATOM      3  C   UNL     1       0.440  10.848  20.468  0.00  0.00    +0.000 C 
ATOM      4  C   UNL     1       1.046  10.903  19.267  0.00  0.00    +0.000 C 
ATOM      5  S   UNL     1       1.367   9.590  18.192  0.00  0.00    +0.000 SA
ATOM      6  N   UNL     1       1.490  12.104  18.781  0.00  0.00    +0.000 N 
ATOM      7  C   UNL     1       1.477  13.391  19.368  0.00  0.00    +0.000 C 
ATOM      8  H   UNL     1       2.067  11.926  17.957  0.00  0.00    +0.000 HD
ENDROOT
BRANCH   1  14
ATOM      9  C   UNL     1      -2.149  17.206  19.748  0.00  0.00    +0.000 C 
ATOM     10  C   UNL     1      -1.273  16.505  20.743  0.00  0.00    +0.000 A 
ATOM     11  C   UNL     1      -1.115  16.977  22.040  0.00  0.00    +0.000 A 
ATOM     12  C   UNL     1      -0.314  16.268  22.926  0.00  0.00    +0.000 A 
ATOM     13  C   UNL     1       0.329  15.108  22.505  0.00  0.00    +0.000 A 
ATOM     14  N   UNL     1       0.185  14.652  21.235  0.00  0.00    +0.000 N 
ATOM     15  C   UNL     1      -0.616  15.332  20.375  0.00  0.00    +0.000 A 
ENDBRANCH   1  14
BRANCH   2  16
ATOM     16  C   UNL     1      -1.305  12.222  21.664  0.00  0.00    +0.000 A 
ATOM     17  C   UNL     1      -2.290  12.431  20.689  0.00  0.00    +0.000 A 
ATOM     18  C   UNL     1      -3.609  12.706  21.063  0.00  0.00    +0.000 A 
ATOM     19  C   UNL     1      -3.964  12.683  22.419  0.00  0.00    +0.000 A 
ATOM     20  C   UNL     1      -3.025  12.334  23.392  0.00  0.00    +0.000 A 
ATOM     21  C   UNL     1      -1.701  12.109  23.012  0.00  0.00    +0.000 A 
BRANCH  19  22
ATOM     22  N   UNL     1      -5.321  13.073  22.823  0.00  0.00    +0.000 N 
ATOM     23  O   UNL     1      -5.785  14.114  22.343  0.00  0.00    +0.000 OA
ATOM     24  O   UNL     1      -5.894  12.368  23.668  0.00  0.00    +0.000 OA
ENDBRANCH  19  22
ENDBRANCH   2  16
BRANCH   7  25
ATOM     25  C   UNL     1       2.901  13.921  19.375  0.00  0.00    +0.000 C 
ATOM     26  C   UNL     1       3.538  14.546  18.155  0.00  0.00    +0.000 C 
ATOM     27  C   UNL     1       3.211  15.400  19.350  0.00  0.00    +0.000 C 
ENDBRANCH   7  25
BRANCH   3  28
ATOM     28  C   UNL     1      -0.040   9.552  21.099  0.00  0.00    +0.000 C 
ATOM     29  N   UNL     1      -0.439   8.477  21.623  0.00  0.00    +0.000 NA
ENDBRANCH   3  28
BRANCH   7  30
ATOM     30  O   UNL     1       0.698  14.138  18.461  0.00  0.00    +0.000 OA
ATOM     31  H   UNL     1       1.399  14.626  17.980  0.00  0.00    +0.000 HD
ENDBRANCH   7  30
TORSDOF 6
ENDMDL
MODEL 4
REMARK VINA RESULT:      -5.5      1.007      1.090
REMARK  Name = 
REMARK  7 active torsions:
REMARK  status: ('A' for Active; 'I' for Inactive)
REMARK    1  A    between atoms: C_1  and  C_2
REMARK    2  A    between atoms: N_6  and  C_7
REMARK    3  A    between atoms: C_8  and  C_9
REMARK    4  A    between atoms: C_12  and  N_13
REMARK    5  A    between atoms: C_18  and  C_19
REMARK    6  A    between atoms: C_24  and  O_25
REMARK    7  A    between atoms: C_24  and  C_26
REMARK                            x       y       z     vdW  Elec       q    Type
REMARK                         _______ _______ _______ _____ _____    ______ ____
ROOT
ATOM      1  C   UNL     1      -2.700  11.068  18.854  0.00  0.00    +0.000 C 
ATOM      2  C   UNL     1      -3.500  11.809  19.969  0.00  0.00    +0.000 C 
ATOM      3  C   UNL     1      -4.813  12.410  19.528  0.00  0.00    +0.000 C 
ATOM      4  C   UNL     1      -5.159  12.524  18.232  0.00  0.00    +0.000 C 
ATOM      5  S   UNL     1      -6.599  13.228  17.588  0.00  0.00    +0.000 SA
ATOM      6  N   UNL     1      -4.325  12.045  17.259  0.00  0.00    +0.000 N 
ATOM      7  C   UNL     1      -3.095  11.353  17.364  0.00  0.00    +0.000 C 
ATOM      8  H   UNL     1      -4.824  12.061  16.367  0.00  0.00    +0.000 HD
ENDROOT
BRANCH   1  14
ATOM      9  C   UNL     1       1.858  13.116  18.396  0.00  0.00    +0.000 C 
ATOM     10  C   UNL     1       1.001  11.993  18.902  0.00  0.00    +0.000 A 
ATOM     11  C   UNL     1       1.534  10.932  19.621  0.00  0.00    +0.000 A 
ATOM     12  C   UNL     1       0.686   9.937  20.090  0.00  0.00    +0.000 A 
ATOM     13  C   UNL     1      -0.678  10.005  19.824  0.00  0.00    +0.000 A 
ATOM     14  N   UNL     1      -1.199  11.036  19.112  0.00  0.00    +0.000 N 
ATOM     15  C   UNL     1      -0.374  12.021  18.673  0.00  0.00    +0.000 A 
ENDBRANCH   1  14
BRANCH   2  16
ATOM     16  C   UNL     1      -2.702  12.763  20.863  0.00  0.00    +0.000 A 
ATOM     17  C   UNL     1      -2.389  14.069  20.460  0.00  0.00    +0.000 A 
ATOM     18  C   UNL     1      -1.534  14.862  21.232  0.00  0.00    +0.000 A 
ATOM     19  C   UNL     1      -1.063  14.379  22.461  0.00  0.00    +0.000 A 
ATOM     20  C   UNL     1      -1.482  13.138  22.943  0.00  0.00    +0.000 A 
ATOM     21  C   UNL     1      -2.295  12.335  22.142  0.00  0.00    +0.000 A 
BRANCH  19  22
ATOM     22  N   UNL     1      -0.084  15.164  23.224  0.00  0.00    +0.000 N 
ATOM     23  O   UNL     1      -0.431  15.597  24.330  0.00  0.00    +0.000 OA
ATOM     24  O   UNL     1       1.011  15.397  22.687  0.00  0.00    +0.000 OA
ENDBRANCH  19  22
ENDBRANCH   2  16
BRANCH   7  25
ATOM     25  C   UNL     1      -3.221  10.046  16.601  0.00  0.00    +0.000 C 
ATOM     26  C   UNL     1      -3.085   9.970  15.098  0.00  0.00    +0.000 C 
ATOM     27  C   UNL     1      -2.028   9.358  15.977  0.00  0.00    +0.000 C 
ENDBRANCH   7  25
BRANCH   3  28
ATOM     28  C   UNL     1      -5.702  12.873  20.671  0.00  0.00    +0.000 C 
ATOM     29  N   UNL     1      -6.439  13.257  21.619  0.00  0.00    +0.000 NA
ENDBRANCH   3  28
BRANCH   7  30
ATOM     30  O   UNL     1      -2.198  12.209  16.693  0.00  0.00    +0.000 OA
ATOM     31  H   UNL     1      -1.740  11.569  16.109  0.00  0.00    +0.000 HD
ENDBRANCH   7  30
TORSDOF 6
ENDMDL
MODEL 5
REMARK VINA RESULT:      -5.5      0.726      1.580
REMARK  Name = 
REMARK  7 active torsions:
REMARK  status: ('A' for Active; 'I' for Inactive)
REMARK    1  A    between atoms: C_1  and  C_2
REMARK    2  A    between atoms: N_6  and  C_7
REMARK    3  A    between atoms: C_8  and  C_9
REMARK    4  A    between atoms: C_12  and  N_13
REMARK    5  A    between atoms: C_18  and  C_19
REMARK    6  A    between atoms: C_24  and  O_25
REMARK    7  A    between atoms: C_24  and  C_26
REMARK                            x       y       z     vdW  Elec       q    Type
REMARK                         _______ _______ _______ _____ _____    ______ ____
ROOT
ATOM      1  C   UNL     1      -2.804  11.208  19.181  0.00  0.00    +0.000 C 
ATOM      2  C   UNL     1      -3.723  11.976  20.181  0.00  0.00    +0.000 C 
ATOM      3  C   UNL     1      -4.990  12.543  19.586  0.00  0.00    +0.000 C 
ATOM      4  C   UNL     1      -5.200  12.608  18.258  0.00  0.00    +0.000 C 
ATOM      5  S   UNL     1      -6.572  13.270  17.444  0.00  0.00    +0.000 SA
ATOM      6  N   UNL     1      -4.264  12.108  17.393  0.00  0.00    +0.000 N 
ATOM      7  C   UNL     1      -3.045  11.437  17.650  0.00  0.00    +0.000 C 
ATOM      8  H   UNL     1      -4.669  12.088  16.455  0.00  0.00    +0.000 HD
ENDROOT
BRANCH   1  14
ATOM      9  C   UNL     1       1.098   9.007  21.441  0.00  0.00    +0.000 C 
ATOM     10  C   UNL     1       0.551  10.175  20.676  0.00  0.00    +0.000 A 
ATOM     11  C   UNL     1       1.349  11.251  20.311  0.00  0.00    +0.000 A 
ATOM     12  C   UNL     1       0.794  12.290  19.577  0.00  0.00    +0.000 A 
ATOM     13  C   UNL     1      -0.553  12.251  19.229  0.00  0.00    +0.000 A 
ATOM     14  N   UNL     1      -1.337  11.206  19.594  0.00  0.00    +0.000 N 
ATOM     15  C   UNL     1      -0.789  10.179  20.292  0.00  0.00    +0.000 A 
ENDBRANCH   1  14
BRANCH   2  16
ATOM     16  C   UNL     1      -3.032  12.970  21.118  0.00  0.00    +0.000 A 
ATOM     17  C   UNL     1      -2.783  14.297  20.739  0.00  0.00    +0.000 A 
ATOM     18  C   UNL     1      -2.020  15.135  21.557  0.00  0.00    +0.000 A 
ATOM     19  C   UNL     1      -1.578  14.672  22.805  0.00  0.00    +0.000 A 
ATOM     20  C   UNL     1      -1.941  13.402  23.258  0.00  0.00    +0.000 A 
ATOM     21  C   UNL     1      -2.662  12.557  22.413  0.00  0.00    +0.000 A 
BRANCH  19  22
ATOM     22  N   UNL     1      -0.690  15.510  23.620  0.00  0.00    +0.000 N 
ATOM     23  O   UNL     1      -0.646  15.287  24.836  0.00  0.00    +0.000 OA
ATOM     24  O   UNL     1      -0.084  16.430  23.048  0.00  0.00    +0.000 OA
ENDBRANCH  19  22
ENDBRANCH   2  16
BRANCH   7  25
ATOM     25  C   UNL     1      -3.078  10.104  16.924  0.00  0.00    +0.000 C 
ATOM     26  C   UNL     1      -2.865   9.989  15.432  0.00  0.00    +0.000 C 
ATOM     27  C   UNL     1      -1.828   9.451  16.380  0.00  0.00    +0.000 C 
ENDBRANCH   7  25
BRANCH   3  28
ATOM     28  C   UNL     1      -5.997  13.032  20.614  0.00  0.00    +0.000 C 
ATOM     29  N   UNL     1      -6.832  13.438  21.467  0.00  0.00    +0.000 NA
ENDBRANCH   3  28
BRANCH   7  30
ATOM     30  O   UNL     1      -2.093  12.283  17.045  0.00  0.00    +0.000 OA
ATOM     31  H   UNL     1      -2.656  13.049  16.807  0.00  0.00    +0.000 HD
ENDBRANCH   7  30
TORSDOF 6
ENDMDL
MODEL 6
REMARK VINA RESULT:      -5.5      3.302      5.349
REMARK  Name = 
REMARK  7 active torsions:
REMARK  status: ('A' for Active; 'I' for Inactive)
REMARK    1  A    between atoms: C_1  and  C_2
REMARK    2  A    between atoms: N_6  and  C_7
REMARK    3  A    between atoms: C_8  and  C_9
REMARK    4  A    between atoms: C_12  and  N_13
REMARK    5  A    between atoms: C_18  and  C_19
REMARK    6  A    between atoms: C_24  and  O_25
REMARK    7  A    between atoms: C_24  and  C_26
REMARK                            x       y       z     vdW  Elec       q    Type
REMARK                         _______ _______ _______ _____ _____    ______ ____
ROOT
ATOM      1  C   UNL     1       0.969  13.298  20.671  0.00  0.00    +0.000 C 
ATOM      2  C   UNL     1       0.251  12.013  21.187  0.00  0.00    +0.000 C 
ATOM      3  C   UNL     1       0.482  10.770  20.361  0.00  0.00    +0.000 C 
ATOM      4  C   UNL     1       1.049  10.807  19.140  0.00  0.00    +0.000 C 
ATOM      5  S   UNL     1       1.328   9.479  18.072  0.00  0.00    +0.000 SA
ATOM      6  N   UNL     1       1.481  11.999  18.624  0.00  0.00    +0.000 N 
ATOM      7  C   UNL     1       1.493  13.294  19.194  0.00  0.00    +0.000 C 
ATOM      8  H   UNL     1       2.030  11.808  17.784  0.00  0.00    +0.000 HD
ENDROOT
BRANCH   1  14
ATOM      9  C   UNL     1       0.099  16.910  24.044  0.00  0.00    +0.000 C 
ATOM     10  C   UNL     1      -0.173  16.328  22.689  0.00  0.00    +0.000 A 
ATOM     11  C   UNL     1      -1.033  16.942  21.787  0.00  0.00    +0.000 A 
ATOM     12  C   UNL     1      -1.222  16.373  20.535  0.00  0.00    +0.000 A 
ATOM     13  C   UNL     1      -0.564  15.192  20.203  0.00  0.00    +0.000 A 
ATOM     14  N   UNL     1       0.267  14.585  21.087  0.00  0.00    +0.000 N 
ATOM     15  C   UNL     1       0.471  15.153  22.302  0.00  0.00    +0.000 A 
ENDBRANCH   1  14
BRANCH   2  16
ATOM     16  C   UNL     1      -1.217  12.167  21.596  0.00  0.00    +0.000 A 
ATOM     17  C   UNL     1      -2.236  12.343  20.650  0.00  0.00    +0.000 A 
ATOM     18  C   UNL     1      -3.541  12.630  21.061  0.00  0.00    +0.000 A 
ATOM     19  C   UNL     1      -3.848  12.652  22.428  0.00  0.00    +0.000 A 
ATOM     20  C   UNL     1      -2.875  12.335  23.378  0.00  0.00    +0.000 A 
ATOM     21  C   UNL     1      -1.565  12.099  22.960  0.00  0.00    +0.000 A 
BRANCH  19  22
ATOM     22  N   UNL     1      -5.191  13.055  22.867  0.00  0.00    +0.000 N 
ATOM     23  O   UNL     1      -6.140  12.326  22.552  0.00  0.00    +0.000 OA
ATOM     24  O   UNL     1      -5.298  14.132  23.473  0.00  0.00    +0.000 OA
ENDBRANCH  19  22
ENDBRANCH   2  16
BRANCH   7  25
ATOM     25  C   UNL     1       2.917  13.817  19.147  0.00  0.00    +0.000 C 
ATOM     26  C   UNL     1       3.443  14.633  17.988  0.00  0.00    +0.000 C 
ATOM     27  C   UNL     1       3.246  15.281  19.332  0.00  0.00    +0.000 C 
ENDBRANCH   7  25
BRANCH   3  28
ATOM     28  C   UNL     1       0.018   9.484  21.025  0.00  0.00    +0.000 C 
ATOM     29  N   UNL     1      -0.367   8.418  21.576  0.00  0.00    +0.000 NA
ENDBRANCH   3  28
BRANCH   7  30
ATOM     30  O   UNL     1       0.687  14.033  18.303  0.00  0.00    +0.000 OA
ATOM     31  H   UNL     1       0.676  14.905  18.750  0.00  0.00    +0.000 HD
ENDBRANCH   7  30
TORSDOF 6
ENDMDL
MODEL 7
REMARK VINA RESULT:      -5.4      3.377      5.419
REMARK  Name = 
REMARK  7 active torsions:
REMARK  status: ('A' for Active; 'I' for Inactive)
REMARK    1  A    between atoms: C_1  and  C_2
REMARK    2  A    between atoms: N_6  and  C_7
REMARK    3  A    between atoms: C_8  and  C_9
REMARK    4  A    between atoms: C_12  and  N_13
REMARK    5  A    between atoms: C_18  and  C_19
REMARK    6  A    between atoms: C_24  and  O_25
REMARK    7  A    between atoms: C_24  and  C_26
REMARK                            x       y       z     vdW  Elec       q    Type
REMARK                         _______ _______ _______ _____ _____    ______ ____
ROOT
ATOM      1  C   UNL     1       1.157  13.415  20.605  0.00  0.00    +0.000 C 
ATOM      2  C   UNL     1       0.380  12.186  21.169  0.00  0.00    +0.000 C 
ATOM      3  C   UNL     1       0.520  10.913  20.368  0.00  0.00    +0.000 C 
ATOM      4  C   UNL     1       1.057  10.889  19.134  0.00  0.00    +0.000 C 
ATOM      5  S   UNL     1       1.235   9.522  18.094  0.00  0.00    +0.000 SA
ATOM      6  N   UNL     1       1.544  12.041  18.579  0.00  0.00    +0.000 N 
ATOM      7  C   UNL     1       1.644  13.347  19.116  0.00  0.00    +0.000 C 
ATOM      8  H   UNL     1       2.061  11.799  17.731  0.00  0.00    +0.000 HD
ENDROOT
BRANCH   1  14
ATOM      9  C   UNL     1      -1.947  17.247  19.680  0.00  0.00    +0.000 C 
ATOM     10  C   UNL     1      -0.937  16.605  20.583  0.00  0.00    +0.000 A 
ATOM     11  C   UNL     1      -0.560  17.181  21.789  0.00  0.00    +0.000 A 
ATOM     12  C   UNL     1       0.358  16.524  22.597  0.00  0.00    +0.000 A 
ATOM     13  C   UNL     1       0.900  15.309  22.187  0.00  0.00    +0.000 A 
ATOM     14  N   UNL     1       0.541  14.750  21.004  0.00  0.00    +0.000 N 
ATOM     15  C   UNL     1      -0.374  15.381  20.224  0.00  0.00    +0.000 A 
ENDBRANCH   1  14
BRANCH   2  16
ATOM     16  C   UNL     1      -1.065  12.434  21.608  0.00  0.00    +0.000 A 
ATOM     17  C   UNL     1      -1.417  12.570  22.958  0.00  0.00    +0.000 A 
ATOM     18  C   UNL     1      -2.762  12.646  23.335  0.00  0.00    +0.000 A 
ATOM     19  C   UNL     1      -3.757  12.678  22.348  0.00  0.00    +0.000 A 
ATOM     20  C   UNL     1      -3.414  12.689  20.995  0.00  0.00    +0.000 A 
ATOM     21  C   UNL     1      -2.072  12.563  20.631  0.00  0.00    +0.000 A 
BRANCH  19  22
ATOM     22  N   UNL     1      -5.172  12.652  22.740  0.00  0.00    +0.000 N 
ATOM     23  O   UNL     1      -5.462  13.065  23.870  0.00  0.00    +0.000 OA
ATOM     24  O   UNL     1      -5.982  12.161  21.939  0.00  0.00    +0.000 OA
ENDBRANCH  19  22
ENDBRANCH   2  16
BRANCH   7  25
ATOM     25  C   UNL     1       3.094  13.786  19.023  0.00  0.00    +0.000 C 
ATOM     26  C   UNL     1       3.589  14.724  17.947  0.00  0.00    +0.000 C 
ATOM     27  C   UNL     1       3.537  15.187  19.378  0.00  0.00    +0.000 C 
ENDBRANCH   7  25
BRANCH   3  28
ATOM     28  C   UNL     1      -0.000   9.672  21.075  0.00  0.00    +0.000 C 
ATOM     29  N   UNL     1      -0.432   8.643  21.661  0.00  0.00    +0.000 NA
ENDBRANCH   3  28
BRANCH   7  30
ATOM     30  O   UNL     1       0.860  14.109  18.226  0.00  0.00    +0.000 OA
ATOM     31  H   UNL     1       1.286  13.885  17.373  0.00  0.00    +0.000 HD
ENDBRANCH   7  30
TORSDOF 6
ENDMDL
MODEL 8
REMARK VINA RESULT:      -5.4      0.728      1.762
REMARK  Name = 
REMARK  7 active torsions:
REMARK  status: ('A' for Active; 'I' for Inactive)
REMARK    1  A    between atoms: C_1  and  C_2
REMARK    2  A    between atoms: N_6  and  C_7
REMARK    3  A    between atoms: C_8  and  C_9
REMARK    4  A    between atoms: C_12  and  N_13
REMARK    5  A    between atoms: C_18  and  C_19
REMARK    6  A    between atoms: C_24  and  O_25
REMARK    7  A    between atoms: C_24  and  C_26
REMARK                            x       y       z     vdW  Elec       q    Type
REMARK                         _______ _______ _______ _____ _____    ______ ____
ROOT
ATOM      1  C   UNL     1      -2.782  11.102  19.055  0.00  0.00    +0.000 C 
ATOM      2  C   UNL     1      -3.641  11.864  20.112  0.00  0.00    +0.000 C 
ATOM      3  C   UNL     1      -4.912  12.483  19.583  0.00  0.00    +0.000 C 
ATOM      4  C   UNL     1      -5.171  12.595  18.267  0.00  0.00    +0.000 C 
ATOM      5  S   UNL     1      -6.553  13.318  17.527  0.00  0.00    +0.000 SA
ATOM      6  N   UNL     1      -4.283  12.097  17.352  0.00  0.00    +0.000 N 
ATOM      7  C   UNL     1      -3.074  11.385  17.542  0.00  0.00    +0.000 C 
ATOM      8  H   UNL     1      -4.722  12.116  16.430  0.00  0.00    +0.000 HD
ENDROOT
BRANCH   1  14
ATOM      9  C   UNL     1       1.122   8.767  21.173  0.00  0.00    +0.000 C 
ATOM     10  C   UNL     1       0.588   9.952  20.424  0.00  0.00    +0.000 A 
ATOM     11  C   UNL     1       1.411  10.997  20.024  0.00  0.00    +0.000 A 
ATOM     12  C   UNL     1       0.865  12.053  19.306  0.00  0.00    +0.000 A 
ATOM     13  C   UNL     1      -0.495  12.062  19.010  0.00  0.00    +0.000 A 
ATOM     14  N   UNL     1      -1.302  11.048  19.411  0.00  0.00    +0.000 N 
ATOM     15  C   UNL     1      -0.765  10.004  20.092  0.00  0.00    +0.000 A 
ENDBRANCH   1  14
BRANCH   2  16
ATOM     16  C   UNL     1      -2.887  12.809  21.051  0.00  0.00    +0.000 A 
ATOM     17  C   UNL     1      -2.410  12.389  22.301  0.00  0.00    +0.000 A 
ATOM     18  C   UNL     1      -1.860  13.312  23.195  0.00  0.00    +0.000 A 
ATOM     19  C   UNL     1      -1.703  14.649  22.802  0.00  0.00    +0.000 A 
ATOM     20  C   UNL     1      -2.040  15.052  21.509  0.00  0.00    +0.000 A 
ATOM     21  C   UNL     1      -2.634  14.133  20.642  0.00  0.00    +0.000 A 
BRANCH  19  22
ATOM     22  N   UNL     1      -1.223  15.641  23.773  0.00  0.00    +0.000 N 
ATOM     23  O   UNL     1      -1.355  16.837  23.484  0.00  0.00    +0.000 OA
ATOM     24  O   UNL     1      -0.661  15.220  24.796  0.00  0.00    +0.000 OA
ENDBRANCH  19  22
ENDBRANCH   2  16
BRANCH   7  25
ATOM     25  C   UNL     1      -3.172  10.077  16.778  0.00  0.00    +0.000 C 
ATOM     26  C   UNL     1      -2.984   9.997  15.280  0.00  0.00    +0.000 C 
ATOM     27  C   UNL     1      -1.957   9.389  16.197  0.00  0.00    +0.000 C 
ENDBRANCH   7  25
BRANCH   3  28
ATOM     28  C   UNL     1      -5.866  12.967  20.663  0.00  0.00    +0.000 C 
ATOM     29  N   UNL     1      -6.657  13.369  21.559  0.00  0.00    +0.000 NA
ENDBRANCH   3  28
BRANCH   7  30
ATOM     30  O   UNL     1      -2.121  12.223  16.926  0.00  0.00    +0.000 OA
ATOM     31  H   UNL     1      -2.102  11.842  16.024  0.00  0.00    +0.000 HD
ENDBRANCH   7  30
TORSDOF 6
ENDMDL
MODEL 9
REMARK VINA RESULT:      -5.4      3.615      6.390
REMARK  Name = 
REMARK  7 active torsions:
REMARK  status: ('A' for Active; 'I' for Inactive)
REMARK    1  A    between atoms: C_1  and  C_2
REMARK    2  A    between atoms: N_6  and  C_7
REMARK    3  A    between atoms: C_8  and  C_9
REMARK    4  A    between atoms: C_12  and  N_13
REMARK    5  A    between atoms: C_18  and  C_19
REMARK    6  A    between atoms: C_24  and  O_25
REMARK    7  A    between atoms: C_24  and  C_26
REMARK                            x       y       z     vdW  Elec       q    Type
REMARK                         _______ _______ _______ _____ _____    ______ ____
ROOT
ATOM      1  C   UNL     1      -1.637  15.144  22.246  0.00  0.00    +0.000 C 
ATOM      2  C   UNL     1      -1.795  13.688  22.784  0.00  0.00    +0.000 C 
ATOM      3  C   UNL     1      -0.968  12.645  22.071  0.00  0.00    +0.000 C 
ATOM      4  C   UNL     1      -0.339  12.891  20.907  0.00  0.00    +0.000 C 
ATOM      5  S   UNL     1       0.595  11.785  19.965  0.00  0.00    +0.000 SA
ATOM      6  N   UNL     1      -0.398  14.140  20.350  0.00  0.00    +0.000 N 
ATOM      7  C   UNL     1      -1.000  15.329  20.826  0.00  0.00    +0.000 C 
ATOM      8  H   UNL     1       0.270  14.182  19.577  0.00  0.00    +0.000 HD
ENDROOT
BRANCH   1  14
ATOM      9  C   UNL     1      -4.539  17.786  25.373  0.00  0.00    +0.000 C 
ATOM     10  C   UNL     1      -4.273  17.286  23.984  0.00  0.00    +0.000 A 
ATOM     11  C   UNL     1      -5.099  17.612  22.917  0.00  0.00    +0.000 A 
ATOM     12  C   UNL     1      -4.785  17.144  21.648  0.00  0.00    +0.000 A 
ATOM     13  C   UNL     1      -3.661  16.345  21.461  0.00  0.00    +0.000 A 
ATOM     14  N   UNL     1      -2.859  16.016  22.505  0.00  0.00    +0.000 N 
ATOM     15  C   UNL     1      -3.153  16.492  23.742  0.00  0.00    +0.000 A 
ENDBRANCH   1  14
BRANCH   2  16
ATOM     16  C   UNL     1      -3.225  13.209  23.048  0.00  0.00    +0.000 A 
ATOM     17  C   UNL     1      -4.141  13.001  22.007  0.00  0.00    +0.000 A 
ATOM     18  C   UNL     1      -5.479  12.708  22.290  0.00  0.00    +0.000 A 
ATOM     19  C   UNL     1      -5.883  12.532  23.621  0.00  0.00    +0.000 A 
ATOM     20  C   UNL     1      -4.952  12.593  24.659  0.00  0.00    +0.000 A 
ATOM     21  C   UNL     1      -3.630  12.935  24.369  0.00  0.00    +0.000 A 
BRANCH  19  22
ATOM     22  N   UNL     1      -7.305  12.329  23.928  0.00  0.00    +0.000 N 
ATOM     23  O   UNL     1      -7.820  11.260  23.579  0.00  0.00    +0.000 OA
ATOM     24  O   UNL     1      -7.916  13.265  24.465  0.00  0.00    +0.000 OA
ENDBRANCH  19  22
ENDBRANCH   2  16
BRANCH   7  25
ATOM     25  C   UNL     1       0.064  16.411  20.871  0.00  0.00    +0.000 C 
ATOM     26  C   UNL     1       1.512  16.111  21.185  0.00  0.00    +0.000 C 
ATOM     27  C   UNL     1       1.121  16.547  19.799  0.00  0.00    +0.000 C 
ENDBRANCH   7  25
BRANCH   3  28
ATOM     28  C   UNL     1      -0.914  11.302  22.780  0.00  0.00    +0.000 C 
ATOM     29  N   UNL     1      -0.870  10.187  23.368  0.00  0.00    +0.000 NA
ENDBRANCH   3  28
BRANCH   7  30
ATOM     30  O   UNL     1      -1.938  15.627  19.816  0.00  0.00    +0.000 OA
ATOM     31  H   UNL     1      -1.524  15.182  19.048  0.00  0.00    +0.000 HD
ENDBRANCH   7  30
TORSDOF 6
ENDMDL
