MODEL 1
REMARK VINA RESULT:      -6.2      0.000      0.000
REMARK  Name = 
REMARK  9 active torsions:
REMARK  status: ('A' for Active; 'I' for Inactive)
REMARK    1  A    between atoms: C_2  and  C_3
REMARK    2  A    between atoms: C_3  and  C_4
REMARK    3  A    between atoms: C_4  and  C_5
REMARK    4  A    between atoms: C_5  and  N_6
REMARK    5  A    between atoms: C_7  and  O_9
REMARK    6  A    between atoms: O_9  and  C_10
REMARK    7  A    between atoms: C_10  and  C_11
REMARK    8  A    between atoms: C_11  and  C_12
REMARK    9  A    between atoms: C_12  and  C_13
REMARK                            x       y       z     vdW  Elec       q    Type
REMARK                         _______ _______ _______ _____ _____    ______ ____
ROOT
ATOM      1  O   UNL     1       5.877   4.916  17.452  0.00  0.00    +0.000 OA
ENDROOT
BRANCH   1   3
ATOM      2  N   UNL     1       7.610   4.365  16.083  0.00  0.00    +0.000 N 
ATOM      3  C   UNL     1       7.212   4.677  17.351  0.00  0.00    +0.000 C 
ATOM      4  O   UNL     1       7.986   4.592  18.297  0.00  0.00    +0.000 OA
ATOM      5  H   UNL     1       8.547   3.982  16.071  0.00  0.00    +0.000 HD
BRANCH   2   6
ATOM      6  C   UNL     1       7.104   4.931  14.857  0.00  0.00    +0.000 C 
BRANCH   6   7
ATOM      7  C   UNL     1       6.237   3.873  14.166  0.00  0.00    +0.000 C 
BRANCH   7   8
ATOM      8  C   UNL     1       6.478   3.841  12.660  0.00  0.00    +0.000 C 
BRANCH   8  10
ATOM      9  C   UNL     1       4.319   3.348  11.476  0.00  0.00    +0.000 C 
ATOM     10  C   UNL     1       5.497   2.939  11.964  0.00  0.00    +0.000 C 
ENDBRANCH   8  10
ENDBRANCH   7   8
ENDBRANCH   6   7
ENDBRANCH   2   6
ENDBRANCH   1   3
BRANCH   1  11
ATOM     11  C   UNL     1       5.544   5.633  18.652  0.00  0.00    +0.000 C 
BRANCH  11  12
ATOM     12  C   UNL     1       4.052   5.611  18.954  0.00  0.00    +0.000 C 
BRANCH  12  13
ATOM     13  C   UNL     1       3.297   4.991  17.780  0.00  0.00    +0.000 C 
BRANCH  13  14
ATOM     14  C   UNL     1       2.781   3.633  18.089  0.00  0.00    +0.000 A 
ATOM     15  C   UNL     1       1.487   3.241  18.359  0.00  0.00    +0.000 A 
ATOM     16  N   UNL     1       1.553   1.881  18.556  0.00  0.00    +0.000 N 
ATOM     17  C   UNL     1       2.863   1.519  18.410  0.00  0.00    +0.000 A 
ATOM     18  N   UNL     1       3.625   2.547  18.131  0.00  0.00    +0.000 NA
ATOM     19  H   UNL     1       0.789   1.274  18.768  0.00  0.00    +0.000 HD
ENDBRANCH  13  14
ENDBRANCH  12  13
ENDBRANCH  11  12
ENDBRANCH   1  11
TORSDOF 9
ENDMDL
MODEL 2
REMARK VINA RESULT:      -6.0      1.111      1.246
REMARK  Name = 
REMARK  9 active torsions:
REMARK  status: ('A' for Active; 'I' for Inactive)
REMARK    1  A    between atoms: C_2  and  C_3
REMARK    2  A    between atoms: C_3  and  C_4
REMARK    3  A    between atoms: C_4  and  C_5
REMARK    4  A    between atoms: C_5  and  N_6
REMARK    5  A    between atoms: C_7  and  O_9
REMARK    6  A    between atoms: O_9  and  C_10
REMARK    7  A    between atoms: C_10  and  C_11
REMARK    8  A    between atoms: C_11  and  C_12
REMARK    9  A    between atoms: C_12  and  C_13
REMARK                            x       y       z     vdW  Elec       q    Type
REMARK                         _______ _______ _______ _____ _____    ______ ____
ROOT
ATOM      1  O   UNL     1       5.183   5.692  16.983  0.00  0.00    +0.000 OA
ENDROOT
BRANCH   1   3
ATOM      2  N   UNL     1       6.396   3.931  16.203  0.00  0.00    +0.000 N 
ATOM      3  C   UNL     1       5.969   4.628  17.297  0.00  0.00    +0.000 C 
ATOM      4  O   UNL     1       6.175   4.213  18.431  0.00  0.00    +0.000 OA
ATOM      5  H   UNL     1       6.787   3.035  16.462  0.00  0.00    +0.000 HD
BRANCH   2   6
ATOM      6  C   UNL     1       6.776   4.483  14.925  0.00  0.00    +0.000 C 
BRANCH   6   7
ATOM      7  C   UNL     1       5.716   4.077  13.897  0.00  0.00    +0.000 C 
BRANCH   7   8
ATOM      8  C   UNL     1       6.346   3.619  12.585  0.00  0.00    +0.000 C 
BRANCH   8  10
ATOM      9  C   UNL     1       4.186   3.239  11.363  0.00  0.00    +0.000 C 
ATOM     10  C   UNL     1       5.385   2.801  11.768  0.00  0.00    +0.000 C 
ENDBRANCH   8  10
ENDBRANCH   7   8
ENDBRANCH   6   7
ENDBRANCH   2   6
ENDBRANCH   1   3
BRANCH   1  11
ATOM     11  C   UNL     1       4.491   6.211  18.131  0.00  0.00    +0.000 C 
BRANCH  11  12
ATOM     12  C   UNL     1       2.985   6.287  17.923  0.00  0.00    +0.000 C 
BRANCH  12  13
ATOM     13  C   UNL     1       2.277   5.381  18.928  0.00  0.00    +0.000 C 
BRANCH  13  14
ATOM     14  C   UNL     1       2.540   3.940  18.678  0.00  0.00    +0.000 A 
ATOM     15  C   UNL     1       3.003   2.981  19.555  0.00  0.00    +0.000 A 
ATOM     16  N   UNL     1       3.048   1.816  18.827  0.00  0.00    +0.000 N 
ATOM     17  C   UNL     1       2.630   2.118  17.561  0.00  0.00    +0.000 A 
ATOM     18  N   UNL     1       2.318   3.385  17.439  0.00  0.00    +0.000 NA
ATOM     19  H   UNL     1       3.335   0.919  19.159  0.00  0.00    +0.000 HD
ENDBRANCH  13  14
ENDBRANCH  12  13
ENDBRANCH  11  12
ENDBRANCH   1  11
TORSDOF 9
ENDMDL
MODEL 3
REMARK VINA RESULT:      -5.9      0.880      1.239
REMARK  Name = 
REMARK  9 active torsions:
REMARK  status: ('A' for Active; 'I' for Inactive)
REMARK    1  A    between atoms: C_2  and  C_3
REMARK    2  A    between atoms: C_3  and  C_4
REMARK    3  A    between atoms: C_4  and  C_5
REMARK    4  A    between atoms: C_5  and  N_6
REMARK    5  A    between atoms: C_7  and  O_9
REMARK    6  A    between atoms: O_9  and  C_10
REMARK    7  A    between atoms: C_10  and  C_11
REMARK    8  A    between atoms: C_11  and  C_12
REMARK    9  A    between atoms: C_12  and  C_13
REMARK                            x       y       z     vdW  Elec       q    Type
REMARK                         _______ _______ _______ _____ _____    ______ ____
ROOT
ATOM      1  O   UNL     1       5.838   4.480  17.562  0.00  0.00    +0.000 OA
ENDROOT
BRANCH   1   3
ATOM      2  N   UNL     1       7.598   4.484  16.118  0.00  0.00    +0.000 N 
ATOM      3  C   UNL     1       7.188   4.569  17.417  0.00  0.00    +0.000 C 
ATOM      4  O   UNL     1       7.997   4.574  18.338  0.00  0.00    +0.000 OA
ATOM      5  H   UNL     1       8.597   4.331  16.052  0.00  0.00    +0.000 HD
BRANCH   2   6
ATOM      6  C   UNL     1       6.929   5.034  14.965  0.00  0.00    +0.000 C 
BRANCH   6   7
ATOM      7  C   UNL     1       6.251   3.884  14.212  0.00  0.00    +0.000 C 
BRANCH   7   8
ATOM      8  C   UNL     1       6.384   4.042  12.701  0.00  0.00    +0.000 C 
BRANCH   8  10
ATOM      9  C   UNL     1       5.902   1.848  11.578  0.00  0.00    +0.000 C 
ATOM     10  C   UNL     1       5.506   3.068  11.966  0.00  0.00    +0.000 C 
ENDBRANCH   8  10
ENDBRANCH   7   8
ENDBRANCH   6   7
ENDBRANCH   2   6
ENDBRANCH   1   3
BRANCH   1  11
ATOM     11  C   UNL     1       5.311   5.539  18.378  0.00  0.00    +0.000 C 
BRANCH  11  12
ATOM     12  C   UNL     1       3.828   5.784  18.135  0.00  0.00    +0.000 C 
BRANCH  12  13
ATOM     13  C   UNL     1       3.216   4.580  17.422  0.00  0.00    +0.000 C 
BRANCH  13  14
ATOM     14  C   UNL     1       2.458   3.697  18.345  0.00  0.00    +0.000 A 
ATOM     15  C   UNL     1       2.578   2.335  18.532  0.00  0.00    +0.000 A 
ATOM     16  N   UNL     1       1.663   2.021  19.509  0.00  0.00    +0.000 N 
ATOM     17  C   UNL     1       1.031   3.183  19.854  0.00  0.00    +0.000 A 
ATOM     18  N   UNL     1       1.485   4.206  19.173  0.00  0.00    +0.000 NA
ATOM     19  H   UNL     1       1.489   1.115  19.891  0.00  0.00    +0.000 HD
ENDBRANCH  13  14
ENDBRANCH  12  13
ENDBRANCH  11  12
ENDBRANCH   1  11
TORSDOF 9
ENDMDL
MODEL 4
REMARK VINA RESULT:      -5.8      1.505      1.603
REMARK  Name = 
REMARK  9 active torsions:
REMARK  status: ('A' for Active; 'I' for Inactive)
REMARK    1  A    between atoms: C_2  and  C_3
REMARK    2  A    between atoms: C_3  and  C_4
REMARK    3  A    between atoms: C_4  and  C_5
REMARK    4  A    between atoms: C_5  and  N_6
REMARK    5  A    between atoms: C_7  and  O_9
REMARK    6  A    between atoms: O_9  and  C_10
REMARK    7  A    between atoms: C_10  and  C_11
REMARK    8  A    between atoms: C_11  and  C_12
REMARK    9  A    between atoms: C_12  and  C_13
REMARK                            x       y       z     vdW  Elec       q    Type
REMARK                         _______ _______ _______ _____ _____    ______ ____
ROOT
ATOM      1  O   UNL     1       6.338   5.762  18.255  0.00  0.00    +0.000 OA
ENDROOT
BRANCH   1   3
ATOM      2  N   UNL     1       7.423   4.666  16.581  0.00  0.00    +0.000 N 
ATOM      3  C   UNL     1       7.405   4.994  17.906  0.00  0.00    +0.000 C 
ATOM      4  O   UNL     1       8.205   4.502  18.692  0.00  0.00    +0.000 OA
ATOM      5  H   UNL     1       8.088   3.926  16.391  0.00  0.00    +0.000 HD
BRANCH   2   6
ATOM      6  C   UNL     1       7.024   5.506  15.480  0.00  0.00    +0.000 C 
BRANCH   6   7
ATOM      7  C   UNL     1       5.788   4.880  14.826  0.00  0.00    +0.000 C 
BRANCH   7   8
ATOM      8  C   UNL     1       6.126   3.577  14.108  0.00  0.00    +0.000 C 
BRANCH   8  10
ATOM      9  C   UNL     1       5.043   3.111  11.891  0.00  0.00    +0.000 C 
ATOM     10  C   UNL     1       5.990   3.719  12.617  0.00  0.00    +0.000 C 
ENDBRANCH   8  10
ENDBRANCH   7   8
ENDBRANCH   6   7
ENDBRANCH   2   6
ENDBRANCH   1   3
BRANCH   1  11
ATOM     11  C   UNL     1       5.519   5.131  19.252  0.00  0.00    +0.000 C 
BRANCH  11  12
ATOM     12  C   UNL     1       4.735   3.946  18.703  0.00  0.00    +0.000 C 
BRANCH  12  13
ATOM     13  C   UNL     1       3.267   4.331  18.533  0.00  0.00    +0.000 C 
BRANCH  13  14
ATOM     14  C   UNL     1       2.397   3.728  19.575  0.00  0.00    +0.000 A 
ATOM     15  C   UNL     1       1.020   3.715  19.649  0.00  0.00    +0.000 A 
ATOM     16  N   UNL     1       0.724   3.014  20.795  0.00  0.00    +0.000 N 
ATOM     17  C   UNL     1       1.915   2.651  21.360  0.00  0.00    +0.000 A 
ATOM     18  N   UNL     1       2.937   3.065  20.653  0.00  0.00    +0.000 NA
ATOM     19  H   UNL     1      -0.187   2.811  21.149  0.00  0.00    +0.000 HD
ENDBRANCH  13  14
ENDBRANCH  12  13
ENDBRANCH  11  12
ENDBRANCH   1  11
TORSDOF 9
ENDMDL
MODEL 5
REMARK VINA RESULT:      -5.8      1.940      2.464
REMARK  Name = 
REMARK  9 active torsions:
REMARK  status: ('A' for Active; 'I' for Inactive)
REMARK    1  A    between atoms: C_2  and  C_3
REMARK    2  A    between atoms: C_3  and  C_4
REMARK    3  A    between atoms: C_4  and  C_5
REMARK    4  A    between atoms: C_5  and  N_6
REMARK    5  A    between atoms: C_7  and  O_9
REMARK    6  A    between atoms: O_9  and  C_10
REMARK    7  A    between atoms: C_10  and  C_11
REMARK    8  A    between atoms: C_11  and  C_12
REMARK    9  A    between atoms: C_12  and  C_13
REMARK                            x       y       z     vdW  Elec       q    Type
REMARK                         _______ _______ _______ _____ _____    ______ ____
ROOT
ATOM      1  O   UNL     1       4.220   4.687  17.326  0.00  0.00    +0.000 OA
ENDROOT
BRANCH   1   3
ATOM      2  N   UNL     1       6.377   4.026  17.026  0.00  0.00    +0.000 N 
ATOM      3  C   UNL     1       5.354   4.215  17.910  0.00  0.00    +0.000 C 
ATOM      4  O   UNL     1       5.444   3.842  19.073  0.00  0.00    +0.000 OA
ATOM      5  H   UNL     1       7.124   3.477  17.434  0.00  0.00    +0.000 HD
BRANCH   2   6
ATOM      6  C   UNL     1       6.701   4.856  15.892  0.00  0.00    +0.000 C 
BRANCH   6   7
ATOM      7  C   UNL     1       6.285   4.109  14.621  0.00  0.00    +0.000 C 
BRANCH   7   8
ATOM      8  C   UNL     1       7.141   4.512  13.424  0.00  0.00    +0.000 C 
BRANCH   8  10
ATOM      9  C   UNL     1       5.670   2.969  12.097  0.00  0.00    +0.000 C 
ATOM     10  C   UNL     1       6.621   3.911  12.147  0.00  0.00    +0.000 C 
ENDBRANCH   8  10
ENDBRANCH   7   8
ENDBRANCH   6   7
ENDBRANCH   2   6
ENDBRANCH   1   3
BRANCH   1  11
ATOM     11  C   UNL     1       3.183   3.694  17.275  0.00  0.00    +0.000 C 
BRANCH  11  12
ATOM     12  C   UNL     1       1.818   4.251  17.660  0.00  0.00    +0.000 C 
BRANCH  12  13
ATOM     13  C   UNL     1       1.934   5.051  18.956  0.00  0.00    +0.000 C 
BRANCH  13  14
ATOM     14  C   UNL     1       1.886   4.188  20.164  0.00  0.00    +0.000 A 
ATOM     15  C   UNL     1       2.590   4.313  21.343  0.00  0.00    +0.000 A 
ATOM     16  N   UNL     1       2.162   3.272  22.133  0.00  0.00    +0.000 N 
ATOM     17  C   UNL     1       1.243   2.569  21.405  0.00  0.00    +0.000 A 
ATOM     18  N   UNL     1       1.056   3.093  20.219  0.00  0.00    +0.000 NA
ATOM     19  H   UNL     1       2.466   3.066  23.062  0.00  0.00    +0.000 HD
ENDBRANCH  13  14
ENDBRANCH  12  13
ENDBRANCH  11  12
ENDBRANCH   1  11
TORSDOF 9
ENDMDL
MODEL 6
REMARK VINA RESULT:      -5.8      1.477      1.856
REMARK  Name = 
REMARK  9 active torsions:
REMARK  status: ('A' for Active; 'I' for Inactive)
REMARK    1  A    between atoms: C_2  and  C_3
REMARK    2  A    between atoms: C_3  and  C_4
REMARK    3  A    between atoms: C_4  and  C_5
REMARK    4  A    between atoms: C_5  and  N_6
REMARK    5  A    between atoms: C_7  and  O_9
REMARK    6  A    between atoms: O_9  and  C_10
REMARK    7  A    between atoms: C_10  and  C_11
REMARK    8  A    between atoms: C_11  and  C_12
REMARK    9  A    between atoms: C_12  and  C_13
REMARK                            x       y       z     vdW  Elec       q    Type
REMARK                         _______ _______ _______ _____ _____    ______ ____
ROOT
ATOM      1  O   UNL     1       5.061   5.047  16.669  0.00  0.00    +0.000 OA
ENDROOT
BRANCH   1   3
ATOM      2  N   UNL     1       7.118   4.588  15.809  0.00  0.00    +0.000 N 
ATOM      3  C   UNL     1       6.402   5.009  16.892  0.00  0.00    +0.000 C 
ATOM      4  O   UNL     1       6.940   5.180  17.980  0.00  0.00    +0.000 OA
ATOM      5  H   UNL     1       8.071   4.359  16.059  0.00  0.00    +0.000 HD
BRANCH   2   6
ATOM      6  C   UNL     1       6.844   4.890  14.425  0.00  0.00    +0.000 C 
BRANCH   6   7
ATOM      7  C   UNL     1       6.117   3.689  13.810  0.00  0.00    +0.000 C 
BRANCH   7   8
ATOM      8  C   UNL     1       5.811   3.911  12.332  0.00  0.00    +0.000 C 
BRANCH   8  10
ATOM      9  C   UNL     1       3.917   3.393  10.766  0.00  0.00    +0.000 C 
ATOM     10  C   UNL     1       4.580   3.159  11.906  0.00  0.00    +0.000 C 
ENDBRANCH   8  10
ENDBRANCH   7   8
ENDBRANCH   6   7
ENDBRANCH   2   6
ENDBRANCH   1   3
BRANCH   1  11
ATOM     11  C   UNL     1       4.316   4.451  17.743  0.00  0.00    +0.000 C 
BRANCH  11  12
ATOM     12  C   UNL     1       3.492   3.252  17.290  0.00  0.00    +0.000 C 
BRANCH  12  13
ATOM     13  C   UNL     1       3.442   2.209  18.404  0.00  0.00    +0.000 C 
BRANCH  13  14
ATOM     14  C   UNL     1       2.485   2.572  19.481  0.00  0.00    +0.000 A 
ATOM     15  C   UNL     1       1.142   2.872  19.378  0.00  0.00    +0.000 A 
ATOM     16  N   UNL     1       0.725   3.115  20.666  0.00  0.00    +0.000 N 
ATOM     17  C   UNL     1       1.818   2.967  21.475  0.00  0.00    +0.000 A 
ATOM     18  N   UNL     1       2.889   2.642  20.794  0.00  0.00    +0.000 NA
ATOM     19  H   UNL     1      -0.199   3.358  20.955  0.00  0.00    +0.000 HD
ENDBRANCH  13  14
ENDBRANCH  12  13
ENDBRANCH  11  12
ENDBRANCH   1  11
TORSDOF 9
ENDMDL
MODEL 7
REMARK VINA RESULT:      -5.8      1.659      2.084
REMARK  Name = 
REMARK  9 active torsions:
REMARK  status: ('A' for Active; 'I' for Inactive)
REMARK    1  A    between atoms: C_2  and  C_3
REMARK    2  A    between atoms: C_3  and  C_4
REMARK    3  A    between atoms: C_4  and  C_5
REMARK    4  A    between atoms: C_5  and  N_6
REMARK    5  A    between atoms: C_7  and  O_9
REMARK    6  A    between atoms: O_9  and  C_10
REMARK    7  A    between atoms: C_10  and  C_11
REMARK    8  A    between atoms: C_11  and  C_12
REMARK    9  A    between atoms: C_12  and  C_13
REMARK                            x       y       z     vdW  Elec       q    Type
REMARK                         _______ _______ _______ _____ _____    ______ ____
ROOT
ATOM      1  O   UNL     1       4.717   4.996  16.908  0.00  0.00    +0.000 OA
ENDROOT
BRANCH   1   3
ATOM      2  N   UNL     1       6.710   3.990  16.464  0.00  0.00    +0.000 N 
ATOM      3  C   UNL     1       5.869   4.486  17.419  0.00  0.00    +0.000 C 
ATOM      4  O   UNL     1       6.104   4.332  18.611  0.00  0.00    +0.000 OA
ATOM      5  H   UNL     1       7.446   3.427  16.873  0.00  0.00    +0.000 HD
BRANCH   2   6
ATOM      6  C   UNL     1       6.937   4.536  15.149  0.00  0.00    +0.000 C 
BRANCH   6   7
ATOM      7  C   UNL     1       5.882   3.954  14.202  0.00  0.00    +0.000 C 
BRANCH   7   8
ATOM      8  C   UNL     1       6.412   3.824  12.777  0.00  0.00    +0.000 C 
BRANCH   8  10
ATOM      9  C   UNL     1       4.366   3.192  11.465  0.00  0.00    +0.000 C 
ATOM     10  C   UNL     1       5.570   2.882  11.961  0.00  0.00    +0.000 C 
ENDBRANCH   8  10
ENDBRANCH   7   8
ENDBRANCH   6   7
ENDBRANCH   2   6
ENDBRANCH   1   3
BRANCH   1  11
ATOM     11  C   UNL     1       3.586   4.150  17.174  0.00  0.00    +0.000 C 
BRANCH  11  12
ATOM     12  C   UNL     1       2.372   4.930  17.661  0.00  0.00    +0.000 C 
BRANCH  12  13
ATOM     13  C   UNL     1       1.361   3.973  18.290  0.00  0.00    +0.000 C 
BRANCH  13  14
ATOM     14  C   UNL     1       1.774   3.518  19.642  0.00  0.00    +0.000 A 
ATOM     15  C   UNL     1       2.268   2.289  20.027  0.00  0.00    +0.000 A 
ATOM     16  N   UNL     1       2.507   2.400  21.376  0.00  0.00    +0.000 N 
ATOM     17  C   UNL     1       2.142   3.665  21.745  0.00  0.00    +0.000 A 
ATOM     18  N   UNL     1       1.697   4.360  20.727  0.00  0.00    +0.000 NA
ATOM     19  H   UNL     1       2.875   1.690  21.975  0.00  0.00    +0.000 HD
ENDBRANCH  13  14
ENDBRANCH  12  13
ENDBRANCH  11  12
ENDBRANCH   1  11
TORSDOF 9
ENDMDL
MODEL 8
REMARK VINA RESULT:      -5.8      1.748      2.381
REMARK  Name = 
REMARK  9 active torsions:
REMARK  status: ('A' for Active; 'I' for Inactive)
REMARK    1  A    between atoms: C_2  and  C_3
REMARK    2  A    between atoms: C_3  and  C_4
REMARK    3  A    between atoms: C_4  and  C_5
REMARK    4  A    between atoms: C_5  and  N_6
REMARK    5  A    between atoms: C_7  and  O_9
REMARK    6  A    between atoms: O_9  and  C_10
REMARK    7  A    between atoms: C_10  and  C_11
REMARK    8  A    between atoms: C_11  and  C_12
REMARK    9  A    between atoms: C_12  and  C_13
REMARK                            x       y       z     vdW  Elec       q    Type
REMARK                         _______ _______ _______ _____ _____    ______ ____
ROOT
ATOM      1  O   UNL     1       5.364   4.910  14.827  0.00  0.00    +0.000 OA
ENDROOT
BRANCH   1   3
ATOM      2  N   UNL     1       6.722   3.671  13.485  0.00  0.00    +0.000 N 
ATOM      3  C   UNL     1       6.612   4.406  14.630  0.00  0.00    +0.000 C 
ATOM      4  O   UNL     1       7.528   4.456  15.442  0.00  0.00    +0.000 OA
ATOM      5  H   UNL     1       7.579   3.132  13.471  0.00  0.00    +0.000 HD
BRANCH   2   6
ATOM      6  C   UNL     1       6.081   3.941  12.223  0.00  0.00    +0.000 C 
BRANCH   6   7
ATOM      7  C   UNL     1       5.120   2.787  11.919  0.00  0.00    +0.000 C 
BRANCH   7   8
ATOM      8  C   UNL     1       3.746   3.294  11.490  0.00  0.00    +0.000 C 
BRANCH   8  10
ATOM      9  C   UNL     1       2.778   4.446   9.479  0.00  0.00    +0.000 C 
ATOM     10  C   UNL     1       3.736   3.696  10.041  0.00  0.00    +0.000 C 
ENDBRANCH   8  10
ENDBRANCH   7   8
ENDBRANCH   6   7
ENDBRANCH   2   6
ENDBRANCH   1   3
BRANCH   1  11
ATOM     11  C   UNL     1       5.256   5.617  16.074  0.00  0.00    +0.000 C 
BRANCH  11  12
ATOM     12  C   UNL     1       4.153   5.065  16.967  0.00  0.00    +0.000 C 
BRANCH  12  13
ATOM     13  C   UNL     1       4.605   3.745  17.590  0.00  0.00    +0.000 C 
BRANCH  13  14
ATOM     14  C   UNL     1       3.498   3.030  18.274  0.00  0.00    +0.000 A 
ATOM     15  C   UNL     1       2.606   2.116  17.751  0.00  0.00    +0.000 A 
ATOM     16  N   UNL     1       1.805   1.747  18.806  0.00  0.00    +0.000 N 
ATOM     17  C   UNL     1       2.232   2.451  19.898  0.00  0.00    +0.000 A 
ATOM     18  N   UNL     1       3.245   3.230  19.611  0.00  0.00    +0.000 NA
ATOM     19  H   UNL     1       1.052   1.092  18.780  0.00  0.00    +0.000 HD
ENDBRANCH  13  14
ENDBRANCH  12  13
ENDBRANCH  11  12
ENDBRANCH   1  11
TORSDOF 9
ENDMDL
MODEL 9
REMARK VINA RESULT:      -5.7      1.686      1.999
REMARK  Name = 
REMARK  9 active torsions:
REMARK  status: ('A' for Active; 'I' for Inactive)
REMARK    1  A    between atoms: C_2  and  C_3
REMARK    2  A    between atoms: C_3  and  C_4
REMARK    3  A    between atoms: C_4  and  C_5
REMARK    4  A    between atoms: C_5  and  N_6
REMARK    5  A    between atoms: C_7  and  O_9
REMARK    6  A    between atoms: O_9  and  C_10
REMARK    7  A    between atoms: C_10  and  C_11
REMARK    8  A    between atoms: C_11  and  C_12
REMARK    9  A    between atoms: C_12  and  C_13
REMARK                            x       y       z     vdW  Elec       q    Type
REMARK                         _______ _______ _______ _____ _____    ______ ____
ROOT
ATOM      1  O   UNL     1       6.548   4.628  17.148  0.00  0.00    +0.000 OA
ENDROOT
BRANCH   1   3
ATOM      2  N   UNL     1       6.562   5.145  14.931  0.00  0.00    +0.000 N 
ATOM      3  C   UNL     1       6.450   5.609  16.211  0.00  0.00    +0.000 C 
ATOM      4  O   UNL     1       6.415   6.810  16.449  0.00  0.00    +0.000 OA
ATOM      5  H   UNL     1       6.706   5.902  14.274  0.00  0.00    +0.000 HD
BRANCH   2   6
ATOM      6  C   UNL     1       6.046   3.901  14.417  0.00  0.00    +0.000 C 
BRANCH   6   7
ATOM      7  C   UNL     1       6.475   3.776  12.952  0.00  0.00    +0.000 C 
BRANCH   7   8
ATOM      8  C   UNL     1       5.349   3.232  12.078  0.00  0.00    +0.000 C 
BRANCH   8  10
ATOM      9  C   UNL     1       7.026   1.645  11.090  0.00  0.00    +0.000 C 
ATOM     10  C   UNL     1       5.758   1.965  11.379  0.00  0.00    +0.000 C 
ENDBRANCH   8  10
ENDBRANCH   7   8
ENDBRANCH   6   7
ENDBRANCH   2   6
ENDBRANCH   1   3
BRANCH   1  11
ATOM     11  C   UNL     1       5.952   5.012  18.398  0.00  0.00    +0.000 C 
BRANCH  11  12
ATOM     12  C   UNL     1       5.056   3.925  18.979  0.00  0.00    +0.000 C 
BRANCH  12  13
ATOM     13  C   UNL     1       3.627   4.109  18.472  0.00  0.00    +0.000 C 
BRANCH  13  14
ATOM     14  C   UNL     1       2.611   3.688  19.470  0.00  0.00    +0.000 A 
ATOM     15  C   UNL     1       1.281   4.044  19.552  0.00  0.00    +0.000 A 
ATOM     16  N   UNL     1       0.790   3.364  20.643  0.00  0.00    +0.000 N 
ATOM     17  C   UNL     1       1.830   2.650  21.170  0.00  0.00    +0.000 A 
ATOM     18  N   UNL     1       2.936   2.824  20.490  0.00  0.00    +0.000 NA
ATOM     19  H   UNL     1      -0.147   3.390  20.986  0.00  0.00    +0.000 HD
ENDBRANCH  13  14
ENDBRANCH  12  13
ENDBRANCH  11  12
ENDBRANCH   1  11
TORSDOF 9
ENDMDL
