MODEL 1
REMARK VINA RESULT:      -8.3      0.000      0.000
REMARK  Name = 
REMARK  11 active torsions:
REMARK  status: ('A' for Active; 'I' for Inactive)
REMARK    1  A    between atoms: C_1  and  O_2
REMARK    2  A    between atoms: O_2  and  C_3
REMARK    3  A    between atoms: C_9  and  C_10
REMARK    4  A    between atoms: C_10  and  N_11
REMARK    5  A    between atoms: N_11  and  C_12
REMARK    6  A    between atoms: C_12  and  C_13
REMARK    7  A    between atoms: C_13  and  C_14
REMARK    8  A    between atoms: C_14  and  N_15
REMARK    9  A    between atoms: N_15  and  C_16
REMARK   10  A    between atoms: C_22  and  C_23
REMARK   11  A    between atoms: C_23  and  C_24
REMARK                            x       y       z     vdW  Elec       q    Type
REMARK                         _______ _______ _______ _____ _____    ______ ____
ROOT
ATOM      1  N   UNL     1       1.592   7.544  21.008  0.00  0.00    +0.000 N 
ATOM      2  H   UNL     1       2.155   7.694  21.838  0.00  0.00    +0.000 HD
ENDROOT
BRANCH   1   3
ATOM      3  C   UNL     1       1.216   8.772  20.418  0.00  0.00    +0.000 A 
ATOM      4  C   UNL     1       1.493   9.055  19.077  0.00  0.00    +0.000 A 
ATOM      5  C   UNL     1       1.070  10.249  18.533  0.00  0.00    +0.000 A 
ATOM      6  N   UNL     1       0.366  11.173  19.207  0.00  0.00    +0.000 NA
ATOM      7  C   UNL     1       0.047  10.908  20.484  0.00  0.00    +0.000 A 
ATOM      8  C   UNL     1      -0.709  11.854  21.164  0.00  0.00    +0.000 A 
ATOM      9  C   UNL     1      -1.096  11.692  22.504  0.00  0.00    +0.000 A 
ATOM     10  C   UNL     1      -0.720  10.522  23.162  0.00  0.00    +0.000 A 
ATOM     11  C   UNL     1       0.044   9.555  22.498  0.00  0.00    +0.000 A 
ATOM     12  C   UNL     1       0.447   9.723  21.150  0.00  0.00    +0.000 A 
BRANCH   9  13
ATOM     13  C   UNL     1      -1.853  12.785  23.221  0.00  0.00    +0.000 C 
BRANCH  13  14
ATOM     14  C   UNL     1      -3.360  12.675  23.215  0.00  0.00    +0.000 A 
ATOM     15  C   UNL     1      -4.071  12.490  24.410  0.00  0.00    +0.000 A 
ATOM     16  C   UNL     1      -5.468  12.492  24.417  0.00  0.00    +0.000 A 
ATOM     17  C   UNL     1      -6.173  12.670  23.229  0.00  0.00    +0.000 A 
ATOM     18  C   UNL     1      -5.481  12.828  22.030  0.00  0.00    +0.000 A 
ATOM     19  C   UNL     1      -4.084  12.824  22.021  0.00  0.00    +0.000 A 
ENDBRANCH  13  14
ENDBRANCH   9  13
ENDBRANCH   1   3
BRANCH   1  20
ATOM     20  C   UNL     1       2.072   6.460  20.152  0.00  0.00    +0.000 C 
BRANCH  20  21
ATOM     21  C   UNL     1       1.538   5.112  20.625  0.00  0.00    +0.000 C 
BRANCH  21  22
ATOM     22  C   UNL     1       2.637   4.045  20.556  0.00  0.00    +0.000 C 
BRANCH  22  23
ATOM     23  N   UNL     1       3.726   4.535  19.717  0.00  0.00    +0.000 NA
ATOM     24  H   UNL     1       3.392   5.289  19.117  0.00  0.00    +0.000 HD
BRANCH  23  25
ATOM     25  C   UNL     1       4.288   3.488  18.859  0.00  0.00    +0.000 C 
BRANCH  25  32
ATOM     26  C   UNL     1       6.264   4.902  18.018  0.00  0.00    +0.000 A 
ATOM     27  C   UNL     1       6.991   5.439  16.945  0.00  0.00    +0.000 A 
ATOM     28  C   UNL     1       6.592   5.207  15.627  0.00  0.00    +0.000 A 
ATOM     29  C   UNL     1       5.469   4.434  15.379  0.00  0.00    +0.000 A 
ATOM     30  F   UNL     1       5.091   4.207  14.115  0.00  0.00    +0.000 F 
ATOM     31  C   UNL     1       4.738   3.890  16.425  0.00  0.00    +0.000 A 
ATOM     32  C   UNL     1       5.129   4.108  17.761  0.00  0.00    +0.000 A 
BRANCH  26  34
ATOM     33  C   UNL     1       7.898   5.646  19.579  0.00  0.00    +0.000 C 
ATOM     34  O   UNL     1       6.618   5.070  19.332  0.00  0.00    +0.000 OA
ENDBRANCH  26  34
ENDBRANCH  25  32
ENDBRANCH  23  25
ENDBRANCH  22  23
ENDBRANCH  21  22
ENDBRANCH  20  21
ENDBRANCH   1  20
TORSDOF 10
ENDMDL
MODEL 2
REMARK VINA RESULT:      -8.1      1.189      2.145
REMARK  Name = 
REMARK  11 active torsions:
REMARK  status: ('A' for Active; 'I' for Inactive)
REMARK    1  A    between atoms: C_1  and  O_2
REMARK    2  A    between atoms: O_2  and  C_3
REMARK    3  A    between atoms: C_9  and  C_10
REMARK    4  A    between atoms: C_10  and  N_11
REMARK    5  A    between atoms: N_11  and  C_12
REMARK    6  A    between atoms: C_12  and  C_13
REMARK    7  A    between atoms: C_13  and  C_14
REMARK    8  A    between atoms: C_14  and  N_15
REMARK    9  A    between atoms: N_15  and  C_16
REMARK   10  A    between atoms: C_22  and  C_23
REMARK   11  A    between atoms: C_23  and  C_24
REMARK                            x       y       z     vdW  Elec       q    Type
REMARK                         _______ _______ _______ _____ _____    ______ ____
ROOT
ATOM      1  N   UNL     1       2.046   6.066  20.899  0.00  0.00    +0.000 N 
ATOM      2  H   UNL     1       2.933   5.959  21.380  0.00  0.00    +0.000 HD
ENDROOT
BRANCH   1   3
ATOM      3  C   UNL     1       2.119   7.073  19.911  0.00  0.00    +0.000 A 
ATOM      4  C   UNL     1       2.643   6.815  18.641  0.00  0.00    +0.000 A 
ATOM      5  C   UNL     1       2.656   7.819  17.695  0.00  0.00    +0.000 A 
ATOM      6  N   UNL     1       2.161   9.050  17.900  0.00  0.00    +0.000 NA
ATOM      7  C   UNL     1       1.611   9.311  19.097  0.00  0.00    +0.000 A 
ATOM      8  C   UNL     1       1.071  10.577  19.290  0.00  0.00    +0.000 A 
ATOM      9  C   UNL     1       0.478  10.970  20.500  0.00  0.00    +0.000 A 
ATOM     10  C   UNL     1       0.412  10.038  21.535  0.00  0.00    +0.000 A 
ATOM     11  C   UNL     1       0.951   8.758  21.365  0.00  0.00    +0.000 A 
ATOM     12  C   UNL     1       1.562   8.364  20.149  0.00  0.00    +0.000 A 
BRANCH   9  13
ATOM     13  C   UNL     1      -0.025  12.382  20.685  0.00  0.00    +0.000 C 
BRANCH  13  14
ATOM     14  C   UNL     1      -1.375  12.533  21.347  0.00  0.00    +0.000 A 
ATOM     15  C   UNL     1      -2.543  12.639  20.576  0.00  0.00    +0.000 A 
ATOM     16  C   UNL     1      -3.799  12.675  21.186  0.00  0.00    +0.000 A 
ATOM     17  C   UNL     1      -3.905  12.615  22.573  0.00  0.00    +0.000 A 
ATOM     18  C   UNL     1      -2.753  12.538  23.354  0.00  0.00    +0.000 A 
ATOM     19  C   UNL     1      -1.496  12.504  22.745  0.00  0.00    +0.000 A 
ENDBRANCH  13  14
ENDBRANCH   9  13
ENDBRANCH   1   3
BRANCH   1  20
ATOM     20  C   UNL     1       1.388   4.800  20.579  0.00  0.00    +0.000 C 
BRANCH  20  21
ATOM     21  C   UNL     1       1.995   3.650  21.378  0.00  0.00    +0.000 C 
BRANCH  21  22
ATOM     22  C   UNL     1       2.711   2.667  20.445  0.00  0.00    +0.000 C 
BRANCH  22  23
ATOM     23  N   UNL     1       3.269   3.402  19.315  0.00  0.00    +0.000 NA
ATOM     24  H   UNL     1       2.933   3.003  18.439  0.00  0.00    +0.000 HD
BRANCH  23  25
ATOM     25  C   UNL     1       4.734   3.371  19.294  0.00  0.00    +0.000 C 
BRANCH  25  32
ATOM     26  C   UNL     1       6.140   5.285  18.310  0.00  0.00    +0.000 A 
ATOM     27  C   UNL     1       6.582   6.004  17.188  0.00  0.00    +0.000 A 
ATOM     28  C   UNL     1       6.145   5.663  15.907  0.00  0.00    +0.000 A 
ATOM     29  C   UNL     1       5.269   4.601  15.743  0.00  0.00    +0.000 A 
ATOM     30  F   UNL     1       4.855   4.270  14.514  0.00  0.00    +0.000 F 
ATOM     31  C   UNL     1       4.823   3.875  16.838  0.00  0.00    +0.000 A 
ATOM     32  C   UNL     1       5.258   4.201  18.138  0.00  0.00    +0.000 A 
BRANCH  26  34
ATOM     33  C   UNL     1       7.959   5.667  19.797  0.00  0.00    +0.000 C 
ATOM     34  O   UNL     1       6.553   5.552  19.591  0.00  0.00    +0.000 OA
ENDBRANCH  26  34
ENDBRANCH  25  32
ENDBRANCH  23  25
ENDBRANCH  22  23
ENDBRANCH  21  22
ENDBRANCH  20  21
ENDBRANCH   1  20
TORSDOF 10
ENDMDL
MODEL 3
REMARK VINA RESULT:      -8.1      2.784      3.805
REMARK  Name = 
REMARK  11 active torsions:
REMARK  status: ('A' for Active; 'I' for Inactive)
REMARK    1  A    between atoms: C_1  and  O_2
REMARK    2  A    between atoms: O_2  and  C_3
REMARK    3  A    between atoms: C_9  and  C_10
REMARK    4  A    between atoms: C_10  and  N_11
REMARK    5  A    between atoms: N_11  and  C_12
REMARK    6  A    between atoms: C_12  and  C_13
REMARK    7  A    between atoms: C_13  and  C_14
REMARK    8  A    between atoms: C_14  and  N_15
REMARK    9  A    between atoms: N_15  and  C_16
REMARK   10  A    between atoms: C_22  and  C_23
REMARK   11  A    between atoms: C_23  and  C_24
REMARK                            x       y       z     vdW  Elec       q    Type
REMARK                         _______ _______ _______ _____ _____    ______ ____
ROOT
ATOM      1  N   UNL     1       2.413   5.894  20.597  0.00  0.00    +0.000 N 
ATOM      2  H   UNL     1       3.357   5.531  20.532  0.00  0.00    +0.000 HD
ENDROOT
BRANCH   1   3
ATOM      3  C   UNL     1       2.244   7.030  19.774  0.00  0.00    +0.000 A 
ATOM      4  C   UNL     1       2.626   7.021  18.428  0.00  0.00    +0.000 A 
ATOM      5  C   UNL     1       2.403   8.140  17.653  0.00  0.00    +0.000 A 
ATOM      6  N   UNL     1       1.803   9.255  18.098  0.00  0.00    +0.000 NA
ATOM      7  C   UNL     1       1.386   9.274  19.374  0.00  0.00    +0.000 A 
ATOM      8  C   UNL     1       0.736  10.419  19.818  0.00  0.00    +0.000 A 
ATOM      9  C   UNL     1       0.263  10.559  21.132  0.00  0.00    +0.000 A 
ATOM     10  C   UNL     1       0.437   9.492  22.012  0.00  0.00    +0.000 A 
ATOM     11  C   UNL     1       1.090   8.329  21.589  0.00  0.00    +0.000 A 
ATOM     12  C   UNL     1       1.580   8.191  20.267  0.00  0.00    +0.000 A 
BRANCH   9  13
ATOM     13  C   UNL     1      -0.368  11.854  21.587  0.00  0.00    +0.000 C 
BRANCH  13  14
ATOM     14  C   UNL     1       0.039  13.100  20.836  0.00  0.00    +0.000 A 
ATOM     15  C   UNL     1       1.201  13.803  21.189  0.00  0.00    +0.000 A 
ATOM     16  C   UNL     1       1.633  14.894  20.432  0.00  0.00    +0.000 A 
ATOM     17  C   UNL     1       0.905  15.303  19.317  0.00  0.00    +0.000 A 
ATOM     18  C   UNL     1      -0.266  14.633  18.970  0.00  0.00    +0.000 A 
ATOM     19  C   UNL     1      -0.700  13.542  19.728  0.00  0.00    +0.000 A 
ENDBRANCH  13  14
ENDBRANCH   9  13
ENDBRANCH   1   3
BRANCH   1  20
ATOM     20  C   UNL     1       1.378   4.861  20.606  0.00  0.00    +0.000 C 
BRANCH  20  21
ATOM     21  C   UNL     1       1.949   3.519  21.055  0.00  0.00    +0.000 C 
BRANCH  21  22
ATOM     22  C   UNL     1       2.389   2.689  19.843  0.00  0.00    +0.000 C 
BRANCH  22  23
ATOM     23  N   UNL     1       3.757   3.052  19.487  0.00  0.00    +0.000 NA
ATOM     24  H   UNL     1       4.098   3.782  20.111  0.00  0.00    +0.000 HD
BRANCH  23  25
ATOM     25  C   UNL     1       3.866   3.546  18.111  0.00  0.00    +0.000 C 
BRANCH  25  32
ATOM     26  C   UNL     1       5.694   4.658  16.686  0.00  0.00    +0.000 A 
ATOM     27  C   UNL     1       6.876   5.410  16.615  0.00  0.00    +0.000 A 
ATOM     28  C   UNL     1       7.515   5.845  17.779  0.00  0.00    +0.000 A 
ATOM     29  C   UNL     1       6.971   5.532  19.014  0.00  0.00    +0.000 A 
ATOM     30  F   UNL     1       7.580   5.954  20.130  0.00  0.00    +0.000 F 
ATOM     31  C   UNL     1       5.801   4.793  19.107  0.00  0.00    +0.000 A 
ATOM     32  C   UNL     1       5.139   4.351  17.944  0.00  0.00    +0.000 A 
BRANCH  26  34
ATOM     33  C   UNL     1       5.701   4.266  14.339  0.00  0.00    +0.000 C 
ATOM     34  O   UNL     1       5.005   4.225  15.582  0.00  0.00    +0.000 OA
ENDBRANCH  26  34
ENDBRANCH  25  32
ENDBRANCH  23  25
ENDBRANCH  22  23
ENDBRANCH  21  22
ENDBRANCH  20  21
ENDBRANCH   1  20
TORSDOF 10
ENDMDL
MODEL 4
REMARK VINA RESULT:      -8.0      1.478      1.839
REMARK  Name = 
REMARK  11 active torsions:
REMARK  status: ('A' for Active; 'I' for Inactive)
REMARK    1  A    between atoms: C_1  and  O_2
REMARK    2  A    between atoms: O_2  and  C_3
REMARK    3  A    between atoms: C_9  and  C_10
REMARK    4  A    between atoms: C_10  and  N_11
REMARK    5  A    between atoms: N_11  and  C_12
REMARK    6  A    between atoms: C_12  and  C_13
REMARK    7  A    between atoms: C_13  and  C_14
REMARK    8  A    between atoms: C_14  and  N_15
REMARK    9  A    between atoms: N_15  and  C_16
REMARK   10  A    between atoms: C_22  and  C_23
REMARK   11  A    between atoms: C_23  and  C_24
REMARK                            x       y       z     vdW  Elec       q    Type
REMARK                         _______ _______ _______ _____ _____    ______ ____
ROOT
ATOM      1  N   UNL     1       1.649   7.026  21.025  0.00  0.00    +0.000 N 
ATOM      2  H   UNL     1       2.193   7.132  21.874  0.00  0.00    +0.000 HD
ENDROOT
BRANCH   1   3
ATOM      3  C   UNL     1       1.408   8.277  20.413  0.00  0.00    +0.000 A 
ATOM      4  C   UNL     1       1.767   8.522  19.084  0.00  0.00    +0.000 A 
ATOM      5  C   UNL     1       1.475   9.744  18.516  0.00  0.00    +0.000 A 
ATOM      6  N   UNL     1       0.827  10.732  19.154  0.00  0.00    +0.000 NA
ATOM      7  C   UNL     1       0.432  10.508  20.417  0.00  0.00    +0.000 A 
ATOM      8  C   UNL     1      -0.267  11.523  21.059  0.00  0.00    +0.000 A 
ATOM      9  C   UNL     1      -0.725  11.408  22.381  0.00  0.00    +0.000 A 
ATOM     10  C   UNL     1      -0.482  10.215  23.060  0.00  0.00    +0.000 A 
ATOM     11  C   UNL     1       0.221   9.179  22.436  0.00  0.00    +0.000 A 
ATOM     12  C   UNL     1       0.695   9.299  21.107  0.00  0.00    +0.000 A 
BRANCH   9  13
ATOM     13  C   UNL     1      -1.412  12.569  23.059  0.00  0.00    +0.000 C 
BRANCH  13  14
ATOM     14  C   UNL     1      -2.921  12.593  22.986  0.00  0.00    +0.000 A 
ATOM     15  C   UNL     1      -3.696  12.580  24.156  0.00  0.00    +0.000 A 
ATOM     16  C   UNL     1      -5.086  12.706  24.093  0.00  0.00    +0.000 A 
ATOM     17  C   UNL     1      -5.720  12.838  22.860  0.00  0.00    +0.000 A 
ATOM     18  C   UNL     1      -4.967  12.825  21.687  0.00  0.00    +0.000 A 
ATOM     19  C   UNL     1      -3.577  12.698  21.750  0.00  0.00    +0.000 A 
ENDBRANCH  13  14
ENDBRANCH   9  13
ENDBRANCH   1   3
BRANCH   1  20
ATOM     20  C   UNL     1       2.057   5.894  20.195  0.00  0.00    +0.000 C 
BRANCH  20  21
ATOM     21  C   UNL     1       1.277   4.635  20.565  0.00  0.00    +0.000 C 
BRANCH  21  22
ATOM     22  C   UNL     1       1.130   3.717  19.345  0.00  0.00    +0.000 C 
BRANCH  22  23
ATOM     23  N   UNL     1       1.466   4.468  18.140  0.00  0.00    +0.000 NA
ATOM     24  H   UNL     1       0.644   4.560  17.545  0.00  0.00    +0.000 HD
BRANCH  23  25
ATOM     25  C   UNL     1       2.523   3.824  17.354  0.00  0.00    +0.000 C 
BRANCH  25  32
ATOM     26  C   UNL     1       4.793   3.743  18.559  0.00  0.00    +0.000 A 
ATOM     27  C   UNL     1       6.026   4.347  18.849  0.00  0.00    +0.000 A 
ATOM     28  C   UNL     1       6.344   5.603  18.328  0.00  0.00    +0.000 A 
ATOM     29  C   UNL     1       5.433   6.255  17.512  0.00  0.00    +0.000 A 
ATOM     30  F   UNL     1       5.741   7.456  17.007  0.00  0.00    +0.000 F 
ATOM     31  C   UNL     1       4.210   5.674  17.209  0.00  0.00    +0.000 A 
ATOM     32  C   UNL     1       3.874   4.405  17.721  0.00  0.00    +0.000 A 
BRANCH  26  34
ATOM     33  C   UNL     1       4.426   2.319  20.430  0.00  0.00    +0.000 C 
ATOM     34  O   UNL     1       4.432   2.501  19.016  0.00  0.00    +0.000 OA
ENDBRANCH  26  34
ENDBRANCH  25  32
ENDBRANCH  23  25
ENDBRANCH  22  23
ENDBRANCH  21  22
ENDBRANCH  20  21
ENDBRANCH   1  20
TORSDOF 10
ENDMDL
MODEL 5
REMARK VINA RESULT:      -8.0      4.153     11.509
REMARK  Name = 
REMARK  11 active torsions:
REMARK  status: ('A' for Active; 'I' for Inactive)
REMARK    1  A    between atoms: C_1  and  O_2
REMARK    2  A    between atoms: O_2  and  C_3
REMARK    3  A    between atoms: C_9  and  C_10
REMARK    4  A    between atoms: C_10  and  N_11
REMARK    5  A    between atoms: N_11  and  C_12
REMARK    6  A    between atoms: C_12  and  C_13
REMARK    7  A    between atoms: C_13  and  C_14
REMARK    8  A    between atoms: C_14  and  N_15
REMARK    9  A    between atoms: N_15  and  C_16
REMARK   10  A    between atoms: C_22  and  C_23
REMARK   11  A    between atoms: C_23  and  C_24
REMARK                            x       y       z     vdW  Elec       q    Type
REMARK                         _______ _______ _______ _____ _____    ______ ____
ROOT
ATOM      1  N   UNL     1       2.114   7.871  19.328  0.00  0.00    +0.000 N 
ATOM      2  H   UNL     1       2.818   8.509  18.973  0.00  0.00    +0.000 HD
ENDROOT
BRANCH   1   3
ATOM      3  C   UNL     1       2.641   6.572  19.499  0.00  0.00    +0.000 A 
ATOM      4  C   UNL     1       2.070   5.664  20.397  0.00  0.00    +0.000 A 
ATOM      5  C   UNL     1       2.594   4.392  20.500  0.00  0.00    +0.000 A 
ATOM      6  N   UNL     1       3.619   3.940  19.761  0.00  0.00    +0.000 NA
ATOM      7  C   UNL     1       4.157   4.777  18.859  0.00  0.00    +0.000 A 
ATOM      8  C   UNL     1       5.197   4.291  18.075  0.00  0.00    +0.000 A 
ATOM      9  C   UNL     1       5.843   5.074  17.106  0.00  0.00    +0.000 A 
ATOM     10  C   UNL     1       5.402   6.383  16.915  0.00  0.00    +0.000 A 
ATOM     11  C   UNL     1       4.359   6.896  17.694  0.00  0.00    +0.000 A 
ATOM     12  C   UNL     1       3.714   6.111  18.682  0.00  0.00    +0.000 A 
BRANCH   9  13
ATOM     13  C   UNL     1       7.018   4.524  16.334  0.00  0.00    +0.000 C 
BRANCH  13  14
ATOM     14  C   UNL     1       6.870   4.472  14.830  0.00  0.00    +0.000 A 
ATOM     15  C   UNL     1       7.630   5.317  14.006  0.00  0.00    +0.000 A 
ATOM     16  C   UNL     1       7.570   5.198  12.616  0.00  0.00    +0.000 A 
ATOM     17  C   UNL     1       6.743   4.242  12.030  0.00  0.00    +0.000 A 
ATOM     18  C   UNL     1       5.962   3.414  12.835  0.00  0.00    +0.000 A 
ATOM     19  C   UNL     1       6.021   3.533  14.226  0.00  0.00    +0.000 A 
ENDBRANCH  13  14
ENDBRANCH   9  13
ENDBRANCH   1   3
BRANCH   1  20
ATOM     20  C   UNL     1       1.270   8.442  20.377  0.00  0.00    +0.000 C 
BRANCH  20  21
ATOM     21  C   UNL     1       0.804   9.846  20.001  0.00  0.00    +0.000 C 
BRANCH  21  22
ATOM     22  C   UNL     1       0.822  10.028  18.479  0.00  0.00    +0.000 C 
BRANCH  22  23
ATOM     23  N   UNL     1      -0.551  10.135  17.995  0.00  0.00    +0.000 NA
ATOM     24  H   UNL     1      -0.608   9.805  17.032  0.00  0.00    +0.000 HD
BRANCH  23  25
ATOM     25  C   UNL     1      -1.052  11.512  18.032  0.00  0.00    +0.000 C 
BRANCH  25  32
ATOM     26  C   UNL     1      -3.313  11.069  16.890  0.00  0.00    +0.000 A 
ATOM     27  C   UNL     1      -4.715  11.103  16.938  0.00  0.00    +0.000 A 
ATOM     28  C   UNL     1      -5.377  11.590  18.066  0.00  0.00    +0.000 A 
ATOM     29  C   UNL     1      -4.640  12.039  19.151  0.00  0.00    +0.000 A 
ATOM     30  F   UNL     1      -5.276  12.500  20.236  0.00  0.00    +0.000 F 
ATOM     31  C   UNL     1      -3.254  12.010  19.126  0.00  0.00    +0.000 A 
ATOM     32  C   UNL     1      -2.568  11.517  17.999  0.00  0.00    +0.000 A 
BRANCH  26  34
ATOM     33  C   UNL     1      -3.360  10.179  14.684  0.00  0.00    +0.000 C 
ATOM     34  O   UNL     1      -2.604  10.578  15.823  0.00  0.00    +0.000 OA
ENDBRANCH  26  34
ENDBRANCH  25  32
ENDBRANCH  23  25
ENDBRANCH  22  23
ENDBRANCH  21  22
ENDBRANCH  20  21
ENDBRANCH   1  20
TORSDOF 10
ENDMDL
MODEL 6
REMARK VINA RESULT:      -7.9      4.704     10.996
REMARK  Name = 
REMARK  11 active torsions:
REMARK  status: ('A' for Active; 'I' for Inactive)
REMARK    1  A    between atoms: C_1  and  O_2
REMARK    2  A    between atoms: O_2  and  C_3
REMARK    3  A    between atoms: C_9  and  C_10
REMARK    4  A    between atoms: C_10  and  N_11
REMARK    5  A    between atoms: N_11  and  C_12
REMARK    6  A    between atoms: C_12  and  C_13
REMARK    7  A    between atoms: C_13  and  C_14
REMARK    8  A    between atoms: C_14  and  N_15
REMARK    9  A    between atoms: N_15  and  C_16
REMARK   10  A    between atoms: C_22  and  C_23
REMARK   11  A    between atoms: C_23  and  C_24
REMARK                            x       y       z     vdW  Elec       q    Type
REMARK                         _______ _______ _______ _____ _____    ______ ____
ROOT
ATOM      1  N   UNL     1       0.256  11.744  18.977  0.00  0.00    +0.000 N 
ATOM      2  H   UNL     1       0.708  12.608  19.254  0.00  0.00    +0.000 HD
ENDROOT
BRANCH   1   3
ATOM      3  C   UNL     1       0.576  10.693  19.865  0.00  0.00    +0.000 A 
ATOM      4  C   UNL     1       0.158  10.710  21.199  0.00  0.00    +0.000 A 
ATOM      5  C   UNL     1       0.459   9.642  22.018  0.00  0.00    +0.000 A 
ATOM      6  N   UNL     1       1.115   8.544  21.610  0.00  0.00    +0.000 NA
ATOM      7  C   UNL     1       1.489   8.482  20.322  0.00  0.00    +0.000 A 
ATOM      8  C   UNL     1       2.139   7.329  19.900  0.00  0.00    +0.000 A 
ATOM      9  C   UNL     1       2.585   7.151  18.581  0.00  0.00    +0.000 A 
ATOM     10  C   UNL     1       2.341   8.170  17.660  0.00  0.00    +0.000 A 
ATOM     11  C   UNL     1       1.691   9.342  18.062  0.00  0.00    +0.000 A 
ATOM     12  C   UNL     1       1.252   9.528  19.397  0.00  0.00    +0.000 A 
BRANCH   9  13
ATOM     13  C   UNL     1       3.354   5.912  18.190  0.00  0.00    +0.000 C 
BRANCH  13  14
ATOM     14  C   UNL     1       2.782   4.592  18.652  0.00  0.00    +0.000 A 
ATOM     15  C   UNL     1       1.578   4.106  18.119  0.00  0.00    +0.000 A 
ATOM     16  C   UNL     1       1.102   2.841  18.469  0.00  0.00    +0.000 A 
ATOM     17  C   UNL     1       1.818   2.047  19.363  0.00  0.00    +0.000 A 
ATOM     18  C   UNL     1       3.001   2.526  19.922  0.00  0.00    +0.000 A 
ATOM     19  C   UNL     1       3.477   3.793  19.573  0.00  0.00    +0.000 A 
ENDBRANCH  13  14
ENDBRANCH   9  13
ENDBRANCH   1   3
BRANCH   1  20
ATOM     20  C   UNL     1      -1.129  11.911  18.540  0.00  0.00    +0.000 C 
BRANCH  20  21
ATOM     21  C   UNL     1      -1.723  10.582  18.083  0.00  0.00    +0.000 C 
BRANCH  21  22
ATOM     22  C   UNL     1      -2.583  10.781  16.829  0.00  0.00    +0.000 C 
BRANCH  22  23
ATOM     23  N   UNL     1      -3.435  11.951  17.016  0.00  0.00    +0.000 NA
ATOM     24  H   UNL     1      -3.190  12.426  17.884  0.00  0.00    +0.000 HD
BRANCH  23  25
ATOM     25  C   UNL     1      -4.858  11.604  17.075  0.00  0.00    +0.000 C 
BRANCH  25  32
ATOM     26  C   UNL     1      -6.647  13.089  18.172  0.00  0.00    +0.000 A 
ATOM     27  C   UNL     1      -7.191  13.666  19.330  0.00  0.00    +0.000 A 
ATOM     28  C   UNL     1      -6.606  13.444  20.578  0.00  0.00    +0.000 A 
ATOM     29  C   UNL     1      -5.480  12.641  20.672  0.00  0.00    +0.000 A 
ATOM     30  F   UNL     1      -4.923  12.423  21.870  0.00  0.00    +0.000 F 
ATOM     31  C   UNL     1      -4.928  12.059  19.541  0.00  0.00    +0.000 A 
ATOM     32  C   UNL     1      -5.508  12.267  18.274  0.00  0.00    +0.000 A 
BRANCH  26  34
ATOM     33  C   UNL     1      -7.197  14.569  16.391  0.00  0.00    +0.000 C 
ATOM     34  O   UNL     1      -7.190  13.246  16.922  0.00  0.00    +0.000 OA
ENDBRANCH  26  34
ENDBRANCH  25  32
ENDBRANCH  23  25
ENDBRANCH  22  23
ENDBRANCH  21  22
ENDBRANCH  20  21
ENDBRANCH   1  20
TORSDOF 10
ENDMDL
MODEL 7
REMARK VINA RESULT:      -7.9      2.393      3.299
REMARK  Name = 
REMARK  11 active torsions:
REMARK  status: ('A' for Active; 'I' for Inactive)
REMARK    1  A    between atoms: C_1  and  O_2
REMARK    2  A    between atoms: O_2  and  C_3
REMARK    3  A    between atoms: C_9  and  C_10
REMARK    4  A    between atoms: C_10  and  N_11
REMARK    5  A    between atoms: N_11  and  C_12
REMARK    6  A    between atoms: C_12  and  C_13
REMARK    7  A    between atoms: C_13  and  C_14
REMARK    8  A    between atoms: C_14  and  N_15
REMARK    9  A    between atoms: N_15  and  C_16
REMARK   10  A    between atoms: C_22  and  C_23
REMARK   11  A    between atoms: C_23  and  C_24
REMARK                            x       y       z     vdW  Elec       q    Type
REMARK                         _______ _______ _______ _____ _____    ______ ____
ROOT
ATOM      1  N   UNL     1       2.550   5.717  20.858  0.00  0.00    +0.000 N 
ATOM      2  H   UNL     1       3.521   5.445  20.960  0.00  0.00    +0.000 HD
ENDROOT
BRANCH   1   3
ATOM      3  C   UNL     1       2.409   6.771  19.928  0.00  0.00    +0.000 A 
ATOM      4  C   UNL     1       3.001   6.715  18.663  0.00  0.00    +0.000 A 
ATOM      5  C   UNL     1       2.802   7.750  17.774  0.00  0.00    +0.000 A 
ATOM      6  N   UNL     1       2.037   8.823  18.030  0.00  0.00    +0.000 NA
ATOM      7  C   UNL     1       1.421   8.881  19.221  0.00  0.00    +0.000 A 
ATOM      8  C   UNL     1       0.604   9.979  19.466  0.00  0.00    +0.000 A 
ATOM      9  C   UNL     1      -0.085  10.154  20.676  0.00  0.00    +0.000 A 
ATOM     10  C   UNL     1       0.045   9.171  21.657  0.00  0.00    +0.000 A 
ATOM     11  C   UNL     1       0.863   8.058  21.434  0.00  0.00    +0.000 A 
ATOM     12  C   UNL     1       1.569   7.887  20.218  0.00  0.00    +0.000 A 
BRANCH   9  13
ATOM     13  C   UNL     1      -0.899  11.403  20.923  0.00  0.00    +0.000 C 
BRANCH  13  14
ATOM     14  C   UNL     1      -0.301  12.702  20.435  0.00  0.00    +0.000 A 
ATOM     15  C   UNL     1       0.817  13.262  21.073  0.00  0.00    +0.000 A 
ATOM     16  C   UNL     1       1.432  14.406  20.561  0.00  0.00    +0.000 A 
ATOM     17  C   UNL     1       0.933  15.012  19.410  0.00  0.00    +0.000 A 
ATOM     18  C   UNL     1      -0.193  14.485  18.780  0.00  0.00    +0.000 A 
ATOM     19  C   UNL     1      -0.809  13.341  19.293  0.00  0.00    +0.000 A 
ENDBRANCH  13  14
ENDBRANCH   9  13
ENDBRANCH   1   3
BRANCH   1  20
ATOM     20  C   UNL     1       1.621   4.589  20.801  0.00  0.00    +0.000 C 
BRANCH  20  21
ATOM     21  C   UNL     1       1.362   4.166  19.358  0.00  0.00    +0.000 C 
BRANCH  21  22
ATOM     22  C   UNL     1       1.925   2.763  19.100  0.00  0.00    +0.000 C 
BRANCH  22  23
ATOM     23  N   UNL     1       3.017   2.858  18.135  0.00  0.00    +0.000 NA
ATOM     24  H   UNL     1       3.214   1.939  17.740  0.00  0.00    +0.000 HD
BRANCH  23  25
ATOM     25  C   UNL     1       4.253   3.368  18.736  0.00  0.00    +0.000 C 
BRANCH  25  32
ATOM     26  C   UNL     1       6.255   4.790  17.975  0.00  0.00    +0.000 A 
ATOM     27  C   UNL     1       7.017   5.340  16.933  0.00  0.00    +0.000 A 
ATOM     28  C   UNL     1       6.660   5.124  15.600  0.00  0.00    +0.000 A 
ATOM     29  C   UNL     1       5.545   4.355  15.307  0.00  0.00    +0.000 A 
ATOM     30  F   UNL     1       5.206   4.143  14.029  0.00  0.00    +0.000 F 
ATOM     31  C   UNL     1       4.781   3.799  16.322  0.00  0.00    +0.000 A 
ATOM     32  C   UNL     1       5.128   4.000  17.672  0.00  0.00    +0.000 A 
BRANCH  26  34
ATOM     33  C   UNL     1       7.733   5.706  19.600  0.00  0.00    +0.000 C 
ATOM     34  O   UNL     1       6.568   4.941  19.302  0.00  0.00    +0.000 OA
ENDBRANCH  26  34
ENDBRANCH  25  32
ENDBRANCH  23  25
ENDBRANCH  22  23
ENDBRANCH  21  22
ENDBRANCH  20  21
ENDBRANCH   1  20
TORSDOF 10
ENDMDL
MODEL 8
REMARK VINA RESULT:      -7.9      3.569     11.227
REMARK  Name = 
REMARK  11 active torsions:
REMARK  status: ('A' for Active; 'I' for Inactive)
REMARK    1  A    between atoms: C_1  and  O_2
REMARK    2  A    between atoms: O_2  and  C_3
REMARK    3  A    between atoms: C_9  and  C_10
REMARK    4  A    between atoms: C_10  and  N_11
REMARK    5  A    between atoms: N_11  and  C_12
REMARK    6  A    between atoms: C_12  and  C_13
REMARK    7  A    between atoms: C_13  and  C_14
REMARK    8  A    between atoms: C_14  and  N_15
REMARK    9  A    between atoms: N_15  and  C_16
REMARK   10  A    between atoms: C_22  and  C_23
REMARK   11  A    between atoms: C_23  and  C_24
REMARK                            x       y       z     vdW  Elec       q    Type
REMARK                         _______ _______ _______ _____ _____    ______ ____
ROOT
ATOM      1  N   UNL     1       2.038   7.606  19.344  0.00  0.00    +0.000 N 
ATOM      2  H   UNL     1       2.514   8.233  18.705  0.00  0.00    +0.000 HD
ENDROOT
BRANCH   1   3
ATOM      3  C   UNL     1       2.650   6.332  19.359  0.00  0.00    +0.000 A 
ATOM      4  C   UNL     1       2.149   5.290  20.145  0.00  0.00    +0.000 A 
ATOM      5  C   UNL     1       2.755   4.052  20.097  0.00  0.00    +0.000 A 
ATOM      6  N   UNL     1       3.800   3.758  19.306  0.00  0.00    +0.000 NA
ATOM      7  C   UNL     1       4.272   4.728  18.508  0.00  0.00    +0.000 A 
ATOM      8  C   UNL     1       5.332   4.407  17.669  0.00  0.00    +0.000 A 
ATOM      9  C   UNL     1       5.916   5.338  16.796  0.00  0.00    +0.000 A 
ATOM     10  C   UNL     1       5.390   6.629  16.762  0.00  0.00    +0.000 A 
ATOM     11  C   UNL     1       4.324   6.977  17.599  0.00  0.00    +0.000 A 
ATOM     12  C   UNL     1       3.742   6.042  18.490  0.00  0.00    +0.000 A 
BRANCH   9  13
ATOM     13  C   UNL     1       7.116   4.960  15.961  0.00  0.00    +0.000 C 
BRANCH  13  14
ATOM     14  C   UNL     1       6.849   4.638  14.509  0.00  0.00    +0.000 A 
ATOM     15  C   UNL     1       7.683   5.140  13.498  0.00  0.00    +0.000 A 
ATOM     16  C   UNL     1       7.500   4.759  12.167  0.00  0.00    +0.000 A 
ATOM     17  C   UNL     1       6.475   3.878  11.827  0.00  0.00    +0.000 A 
ATOM     18  C   UNL     1       5.622   3.392  12.815  0.00  0.00    +0.000 A 
ATOM     19  C   UNL     1       5.804   3.774  14.147  0.00  0.00    +0.000 A 
ENDBRANCH  13  14
ENDBRANCH   9  13
ENDBRANCH   1   3
BRANCH   1  20
ATOM     20  C   UNL     1       1.654   8.227  20.610  0.00  0.00    +0.000 C 
BRANCH  20  21
ATOM     21  C   UNL     1       0.325   8.964  20.477  0.00  0.00    +0.000 C 
BRANCH  21  22
ATOM     22  C   UNL     1       0.243  10.112  21.491  0.00  0.00    +0.000 C 
BRANCH  22  23
ATOM     23  N   UNL     1      -0.731  11.093  21.023  0.00  0.00    +0.000 NA
ATOM     24  H   UNL     1      -1.673  10.710  21.091  0.00  0.00    +0.000 HD
BRANCH  23  25
ATOM     25  C   UNL     1      -0.503  11.489  19.630  0.00  0.00    +0.000 C 
BRANCH  25  32
ATOM     26  C   UNL     1      -3.003  11.848  19.150  0.00  0.00    +0.000 A 
ATOM     27  C   UNL     1      -4.123  11.601  18.341  0.00  0.00    +0.000 A 
ATOM     28  C   UNL     1      -4.021  10.781  17.215  0.00  0.00    +0.000 A 
ATOM     29  C   UNL     1      -2.800  10.210  16.893  0.00  0.00    +0.000 A 
ATOM     30  F   UNL     1      -2.702   9.429  15.810  0.00  0.00    +0.000 F 
ATOM     31  C   UNL     1      -1.680  10.444  17.677  0.00  0.00    +0.000 A 
ATOM     32  C   UNL     1      -1.762  11.273  18.813  0.00  0.00    +0.000 A 
BRANCH  26  34
ATOM     33  C   UNL     1      -4.235  13.392  20.476  0.00  0.00    +0.000 C 
ATOM     34  O   UNL     1      -3.031  12.664  20.251  0.00  0.00    +0.000 OA
ENDBRANCH  26  34
ENDBRANCH  25  32
ENDBRANCH  23  25
ENDBRANCH  22  23
ENDBRANCH  21  22
ENDBRANCH  20  21
ENDBRANCH   1  20
TORSDOF 10
ENDMDL
MODEL 9
REMARK VINA RESULT:      -7.8      1.981      2.991
REMARK  Name = 
REMARK  11 active torsions:
REMARK  status: ('A' for Active; 'I' for Inactive)
REMARK    1  A    between atoms: C_1  and  O_2
REMARK    2  A    between atoms: O_2  and  C_3
REMARK    3  A    between atoms: C_9  and  C_10
REMARK    4  A    between atoms: C_10  and  N_11
REMARK    5  A    between atoms: N_11  and  C_12
REMARK    6  A    between atoms: C_12  and  C_13
REMARK    7  A    between atoms: C_13  and  C_14
REMARK    8  A    between atoms: C_14  and  N_15
REMARK    9  A    between atoms: N_15  and  C_16
REMARK   10  A    between atoms: C_22  and  C_23
REMARK   11  A    between atoms: C_23  and  C_24
REMARK                            x       y       z     vdW  Elec       q    Type
REMARK                         _______ _______ _______ _____ _____    ______ ____
ROOT
ATOM      1  N   UNL     1       2.182   6.367  20.794  0.00  0.00    +0.000 N 
ATOM      2  H   UNL     1       3.120   6.197  21.139  0.00  0.00    +0.000 HD
ENDROOT
BRANCH   1   3
ATOM      3  C   UNL     1       2.184   7.330  19.761  0.00  0.00    +0.000 A 
ATOM      4  C   UNL     1       2.909   7.136  18.580  0.00  0.00    +0.000 A 
ATOM      5  C   UNL     1       2.847   8.086  17.582  0.00  0.00    +0.000 A 
ATOM      6  N   UNL     1       2.099   9.198  17.650  0.00  0.00    +0.000 NA
ATOM      7  C   UNL     1       1.358   9.388  18.753  0.00  0.00    +0.000 A 
ATOM      8  C   UNL     1       0.561  10.525  18.801  0.00  0.00    +0.000 A 
ATOM      9  C   UNL     1      -0.249  10.835  19.905  0.00  0.00    +0.000 A 
ATOM     10  C   UNL     1      -0.265   9.948  20.981  0.00  0.00    +0.000 A 
ATOM     11  C   UNL     1       0.531   8.798  20.956  0.00  0.00    +0.000 A 
ATOM     12  C   UNL     1       1.360   8.490  19.849  0.00  0.00    +0.000 A 
BRANCH   9  13
ATOM     13  C   UNL     1      -1.038  12.123  19.941  0.00  0.00    +0.000 C 
BRANCH  13  14
ATOM     14  C   UNL     1      -1.493  12.595  21.303  0.00  0.00    +0.000 A 
ATOM     15  C   UNL     1      -0.609  13.270  22.159  0.00  0.00    +0.000 A 
ATOM     16  C   UNL     1      -1.056  13.797  23.373  0.00  0.00    +0.000 A 
ATOM     17  C   UNL     1      -2.388  13.648  23.752  0.00  0.00    +0.000 A 
ATOM     18  C   UNL     1      -3.271  12.956  22.925  0.00  0.00    +0.000 A 
ATOM     19  C   UNL     1      -2.825  12.427  21.711  0.00  0.00    +0.000 A 
ENDBRANCH  13  14
ENDBRANCH   9  13
ENDBRANCH   1   3
BRANCH   1  20
ATOM     20  C   UNL     1       1.379   5.155  20.636  0.00  0.00    +0.000 C 
BRANCH  20  21
ATOM     21  C   UNL     1       2.048   3.963  21.314  0.00  0.00    +0.000 C 
BRANCH  21  22
ATOM     22  C   UNL     1       3.089   3.330  20.383  0.00  0.00    +0.000 C 
BRANCH  22  23
ATOM     23  N   UNL     1       2.937   3.893  19.045  0.00  0.00    +0.000 NA
ATOM     24  H   UNL     1       1.992   3.727  18.701  0.00  0.00    +0.000 HD
BRANCH  23  25
ATOM     25  C   UNL     1       3.877   3.312  18.082  0.00  0.00    +0.000 C 
BRANCH  25  32
ATOM     26  C   UNL     1       5.612   4.597  16.686  0.00  0.00    +0.000 A 
ATOM     27  C   UNL     1       6.742   5.427  16.635  0.00  0.00    +0.000 A 
ATOM     28  C   UNL     1       7.366   5.854  17.809  0.00  0.00    +0.000 A 
ATOM     29  C   UNL     1       6.859   5.456  19.036  0.00  0.00    +0.000 A 
ATOM     30  F   UNL     1       7.454   5.871  20.162  0.00  0.00    +0.000 F 
ATOM     31  C   UNL     1       5.740   4.639  19.109  0.00  0.00    +0.000 A 
ATOM     32  C   UNL     1       5.094   4.204  17.936  0.00  0.00    +0.000 A 
BRANCH  26  34
ATOM     33  C   UNL     1       5.602   4.330  14.322  0.00  0.00    +0.000 C 
ATOM     34  O   UNL     1       4.938   4.167  15.572  0.00  0.00    +0.000 OA
ENDBRANCH  26  34
ENDBRANCH  25  32
ENDBRANCH  23  25
ENDBRANCH  22  23
ENDBRANCH  21  22
ENDBRANCH  20  21
ENDBRANCH   1  20
TORSDOF 10
ENDMDL
