MODEL 1
REMARK VINA RESULT:      -8.0      0.000      0.000
REMARK  Name = 
REMARK  6 active torsions:
REMARK  status: ('A' for Active; 'I' for Inactive)
REMARK    1  A    between atoms: C_1  and  C_2
REMARK    2  A    between atoms: C_2  and  S_3
REMARK    3  A    between atoms: S_3  and  C_6
REMARK    4  A    between atoms: C_11  and  C_12
REMARK    5  A    between atoms: C_20  and  O_21
REMARK    6  A    between atoms: C_22  and  O_23
REMARK                            x       y       z     vdW  Elec       q    Type
REMARK                         _______ _______ _______ _____ _____    ______ ____
ROOT
ATOM      1  C   UNL     1       4.586   5.911  17.697  0.00  0.00    +0.000 A 
ATOM      2  C   UNL     1       4.214   5.278  18.894  0.00  0.00    +0.000 A 
ATOM      3  C   UNL     1       3.221   5.826  19.718  0.00  0.00    +0.000 A 
ATOM      4  C   UNL     1       2.638   7.002  19.260  0.00  0.00    +0.000 A 
ATOM      5  O   UNL     1       1.651   7.730  19.860  0.00  0.00    +0.000 OA
ATOM      6  C   UNL     1       1.444   8.782  19.001  0.00  0.00    +0.000 A 
ATOM      7  N   UNL     1       2.211   8.769  17.924  0.00  0.00    +0.000 NA
ATOM      8  C   UNL     1       2.976   7.643  18.078  0.00  0.00    +0.000 A 
ATOM      9  C   UNL     1       3.971   7.096  17.262  0.00  0.00    +0.000 A 
ENDROOT
BRANCH   6  10
ATOM     10  C   UNL     1       0.448   9.777  19.395  0.00  0.00    +0.000 A 
ATOM     11  C   UNL     1      -0.339  10.455  18.459  0.00  0.00    +0.000 A 
ATOM     12  C   UNL     1      -1.308  11.372  18.878  0.00  0.00    +0.000 A 
ATOM     13  C   UNL     1      -1.508  11.636  20.244  0.00  0.00    +0.000 A 
ATOM     14  C   UNL     1      -0.711  10.975  21.189  0.00  0.00    +0.000 A 
ATOM     15  C   UNL     1       0.257  10.055  20.758  0.00  0.00    +0.000 A 
ATOM     16  C   UNL     1      -0.869  11.234  22.619  0.00  0.00    +0.000 C 
ATOM     17  C   UNL     1      -1.815  12.064  23.073  0.00  0.00    +0.000 C 
ATOM     18  C   UNL     1      -2.783  12.796  22.197  0.00  0.00    +0.000 C 
ATOM     19  C   UNL     1      -2.557  12.647  20.660  0.00  0.00    +0.000 C 
BRANCH  18  20
ATOM     20  O   UNL     1      -4.086  12.332  22.565  0.00  0.00    +0.000 OA
ATOM     21  H   UNL     1      -4.206  12.539  23.507  0.00  0.00    +0.000 HD
ENDBRANCH  18  20
BRANCH  19  22
ATOM     22  O   UNL     1      -2.180  13.914  20.103  0.00  0.00    +0.000 OA
ATOM     23  H   UNL     1      -1.767  13.729  19.242  0.00  0.00    +0.000 HD
ENDBRANCH  19  22
ENDBRANCH   6  10
BRANCH   1  24
ATOM     24  S   UNL     1       5.790   5.140  16.635  0.00  0.00    +0.000 S 
ATOM     25  O   UNL     1       6.025   6.050  15.528  0.00  0.00    +0.000 OA
ATOM     26  O   UNL     1       5.338   3.785  16.397  0.00  0.00    +0.000 OA
BRANCH  24  28
ATOM     27  C   UNL     1       7.682   6.458  18.092  0.00  0.00    +0.000 C 
ATOM     28  C   UNL     1       7.268   5.073  17.631  0.00  0.00    +0.000 C 
ENDBRANCH  24  28
ENDBRANCH   1  24
TORSDOF 5
ENDMDL
MODEL 2
REMARK VINA RESULT:      -8.0      1.833      2.976
REMARK  Name = 
REMARK  6 active torsions:
REMARK  status: ('A' for Active; 'I' for Inactive)
REMARK    1  A    between atoms: C_1  and  C_2
REMARK    2  A    between atoms: C_2  and  S_3
REMARK    3  A    between atoms: S_3  and  C_6
REMARK    4  A    between atoms: C_11  and  C_12
REMARK    5  A    between atoms: C_20  and  O_21
REMARK    6  A    between atoms: C_22  and  O_23
REMARK                            x       y       z     vdW  Elec       q    Type
REMARK                         _______ _______ _______ _____ _____    ______ ____
ROOT
ATOM      1  C   UNL     1       3.660   5.709  18.527  0.00  0.00    +0.000 A 
ATOM      2  C   UNL     1       3.677   6.698  17.528  0.00  0.00    +0.000 A 
ATOM      3  C   UNL     1       2.966   7.894  17.690  0.00  0.00    +0.000 A 
ATOM      4  C   UNL     1       2.275   8.029  18.889  0.00  0.00    +0.000 A 
ATOM      5  O   UNL     1       1.518   9.088  19.299  0.00  0.00    +0.000 OA
ATOM      6  C   UNL     1       1.070   8.716  20.543  0.00  0.00    +0.000 A 
ATOM      7  N   UNL     1       1.483   7.524  20.940  0.00  0.00    +0.000 NA
ATOM      8  C   UNL     1       2.249   7.077  19.897  0.00  0.00    +0.000 A 
ATOM      9  C   UNL     1       2.956   5.882  19.729  0.00  0.00    +0.000 A 
ENDROOT
BRANCH   6  10
ATOM     10  C   UNL     1       0.185   9.648  21.239  0.00  0.00    +0.000 A 
ATOM     11  C   UNL     1      -0.107   9.525  22.601  0.00  0.00    +0.000 A 
ATOM     12  C   UNL     1      -0.928  10.460  23.238  0.00  0.00    +0.000 A 
ATOM     13  C   UNL     1      -1.480  11.539  22.527  0.00  0.00    +0.000 A 
ATOM     14  C   UNL     1      -1.208  11.662  21.158  0.00  0.00    +0.000 A 
ATOM     15  C   UNL     1      -0.382  10.719  20.527  0.00  0.00    +0.000 A 
ATOM     16  C   UNL     1      -1.777  12.756  20.373  0.00  0.00    +0.000 C 
ATOM     17  C   UNL     1      -2.527  13.704  20.946  0.00  0.00    +0.000 C 
ATOM     18  C   UNL     1      -2.855  13.747  22.406  0.00  0.00    +0.000 C 
ATOM     19  C   UNL     1      -2.376  12.525  23.249  0.00  0.00    +0.000 C 
BRANCH  18  20
ATOM     20  O   UNL     1      -2.288  14.962  22.908  0.00  0.00    +0.000 OA
ATOM     21  H   UNL     1      -1.406  15.049  22.511  0.00  0.00    +0.000 HD
ENDBRANCH  18  20
BRANCH  19  22
ATOM     22  O   UNL     1      -3.514  11.798  23.734  0.00  0.00    +0.000 OA
ATOM     23  H   UNL     1      -4.155  11.760  23.004  0.00  0.00    +0.000 HD
ENDBRANCH  19  22
ENDBRANCH   6  10
BRANCH   1  24
ATOM     24  S   UNL     1       4.645   4.240  18.323  0.00  0.00    +0.000 S 
ATOM     25  O   UNL     1       5.666   4.267  19.354  0.00  0.00    +0.000 OA
ATOM     26  O   UNL     1       5.007   4.165  16.922  0.00  0.00    +0.000 OA
BRANCH  24  28
ATOM     27  C   UNL     1       2.444   2.792  17.615  0.00  0.00    +0.000 C 
ATOM     28  C   UNL     1       3.516   2.907  18.683  0.00  0.00    +0.000 C 
ENDBRANCH  24  28
ENDBRANCH   1  24
TORSDOF 5
ENDMDL
MODEL 3
REMARK VINA RESULT:      -8.0      3.160      9.339
REMARK  Name = 
REMARK  6 active torsions:
REMARK  status: ('A' for Active; 'I' for Inactive)
REMARK    1  A    between atoms: C_1  and  C_2
REMARK    2  A    between atoms: C_2  and  S_3
REMARK    3  A    between atoms: S_3  and  C_6
REMARK    4  A    between atoms: C_11  and  C_12
REMARK    5  A    between atoms: C_20  and  O_21
REMARK    6  A    between atoms: C_22  and  O_23
REMARK                            x       y       z     vdW  Elec       q    Type
REMARK                         _______ _______ _______ _____ _____    ______ ____
ROOT
ATOM      1  C   UNL     1      -1.118  11.981  21.876  0.00  0.00    +0.000 A 
ATOM      2  C   UNL     1      -1.194  11.219  23.054  0.00  0.00    +0.000 A 
ATOM      3  C   UNL     1      -0.620   9.943  23.123  0.00  0.00    +0.000 A 
ATOM      4  C   UNL     1       0.028   9.510  21.971  0.00  0.00    +0.000 A 
ATOM      5  O   UNL     1       0.672   8.322  21.776  0.00  0.00    +0.000 OA
ATOM      6  C   UNL     1       1.132   8.401  20.484  0.00  0.00    +0.000 A 
ATOM      7  N   UNL     1       0.832   9.530  19.864  0.00  0.00    +0.000 NA
ATOM      8  C   UNL     1       0.130  10.243  20.799  0.00  0.00    +0.000 A 
ATOM      9  C   UNL     1      -0.450  11.513  20.733  0.00  0.00    +0.000 A 
ENDROOT
BRANCH   6  10
ATOM     10  C   UNL     1       1.847   7.239  19.959  0.00  0.00    +0.000 A 
ATOM     11  C   UNL     1       2.645   7.309  18.812  0.00  0.00    +0.000 A 
ATOM     12  C   UNL     1       3.344   6.185  18.365  0.00  0.00    +0.000 A 
ATOM     13  C   UNL     1       3.257   4.961  19.050  0.00  0.00    +0.000 A 
ATOM     14  C   UNL     1       2.446   4.876  20.190  0.00  0.00    +0.000 A 
ATOM     15  C   UNL     1       1.750   6.011  20.633  0.00  0.00    +0.000 A 
ATOM     16  C   UNL     1       2.309   3.618  20.924  0.00  0.00    +0.000 C 
ATOM     17  C   UNL     1       2.996   2.527  20.565  0.00  0.00    +0.000 C 
ATOM     18  C   UNL     1       3.949   2.476  19.411  0.00  0.00    +0.000 C 
ATOM     19  C   UNL     1       4.018   3.760  18.527  0.00  0.00    +0.000 C 
BRANCH  18  20
ATOM     20  O   UNL     1       5.233   2.172  19.965  0.00  0.00    +0.000 OA
ATOM     21  H   UNL     1       5.180   2.349  20.920  0.00  0.00    +0.000 HD
ENDBRANCH  18  20
BRANCH  19  22
ATOM     22  O   UNL     1       3.517   3.470  17.215  0.00  0.00    +0.000 OA
ATOM     23  H   UNL     1       2.603   3.804  17.184  0.00  0.00    +0.000 HD
ENDBRANCH  19  22
ENDBRANCH   6  10
BRANCH   1  24
ATOM     24  S   UNL     1      -1.785  13.632  21.854  0.00  0.00    +0.000 S 
ATOM     25  O   UNL     1      -0.975  14.405  20.930  0.00  0.00    +0.000 OA
ATOM     26  O   UNL     1      -1.933  14.046  23.234  0.00  0.00    +0.000 OA
BRANCH  24  28
ATOM     27  C   UNL     1      -4.416  13.004  22.200  0.00  0.00    +0.000 C 
ATOM     28  C   UNL     1      -3.411  13.435  21.148  0.00  0.00    +0.000 C 
ENDBRANCH  24  28
ENDBRANCH   1  24
TORSDOF 5
ENDMDL
MODEL 4
REMARK VINA RESULT:      -7.9      3.253      9.323
REMARK  Name = 
REMARK  6 active torsions:
REMARK  status: ('A' for Active; 'I' for Inactive)
REMARK    1  A    between atoms: C_1  and  C_2
REMARK    2  A    between atoms: C_2  and  S_3
REMARK    3  A    between atoms: S_3  and  C_6
REMARK    4  A    between atoms: C_11  and  C_12
REMARK    5  A    between atoms: C_20  and  O_21
REMARK    6  A    between atoms: C_22  and  O_23
REMARK                            x       y       z     vdW  Elec       q    Type
REMARK                         _______ _______ _______ _____ _____    ______ ____
ROOT
ATOM      1  C   UNL     1      -0.801  12.213  22.014  0.00  0.00    +0.000 A 
ATOM      2  C   UNL     1      -1.111  11.361  23.087  0.00  0.00    +0.000 A 
ATOM      3  C   UNL     1      -0.694  10.023  23.085  0.00  0.00    +0.000 A 
ATOM      4  C   UNL     1       0.044   9.622  21.978  0.00  0.00    +0.000 A 
ATOM      5  O   UNL     1       0.574   8.388  21.733  0.00  0.00    +0.000 OA
ATOM      6  C   UNL     1       1.201   8.530  20.519  0.00  0.00    +0.000 A 
ATOM      7  N   UNL     1       1.109   9.739  19.993  0.00  0.00    +0.000 NA
ATOM      8  C   UNL     1       0.376  10.443  20.910  0.00  0.00    +0.000 A 
ATOM      9  C   UNL     1      -0.047  11.775  20.913  0.00  0.00    +0.000 A 
ENDROOT
BRANCH   6  10
ATOM     10  C   UNL     1       1.846   7.343  19.960  0.00  0.00    +0.000 A 
ATOM     11  C   UNL     1       2.530   7.369  18.740  0.00  0.00    +0.000 A 
ATOM     12  C   UNL     1       3.166   6.222  18.258  0.00  0.00    +0.000 A 
ATOM     13  C   UNL     1       3.128   5.018  18.983  0.00  0.00    +0.000 A 
ATOM     14  C   UNL     1       2.430   4.976  20.197  0.00  0.00    +0.000 A 
ATOM     15  C   UNL     1       1.796   6.133  20.673  0.00  0.00    +0.000 A 
ATOM     16  C   UNL     1       2.346   3.740  20.974  0.00  0.00    +0.000 C 
ATOM     17  C   UNL     1       2.979   2.629  20.581  0.00  0.00    +0.000 C 
ATOM     18  C   UNL     1       3.815   2.531  19.344  0.00  0.00    +0.000 C 
ATOM     19  C   UNL     1       3.818   3.790  18.422  0.00  0.00    +0.000 C 
BRANCH  18  20
ATOM     20  O   UNL     1       5.143   2.220  19.780  0.00  0.00    +0.000 OA
ATOM     21  H   UNL     1       5.162   1.268  19.972  0.00  0.00    +0.000 HD
ENDBRANCH  18  20
BRANCH  19  22
ATOM     22  O   UNL     1       3.188   3.475  17.172  0.00  0.00    +0.000 OA
ATOM     23  H   UNL     1       2.233   3.616  17.296  0.00  0.00    +0.000 HD
ENDBRANCH  19  22
ENDBRANCH   6  10
BRANCH   1  24
ATOM     24  S   UNL     1      -1.274  13.929  22.091  0.00  0.00    +0.000 S 
ATOM     25  O   UNL     1      -2.509  14.063  21.341  0.00  0.00    +0.000 OA
ATOM     26  O   UNL     1      -0.103  14.706  21.737  0.00  0.00    +0.000 OA
BRANCH  24  28
ATOM     27  C   UNL     1      -3.108  14.468  24.037  0.00  0.00    +0.000 C 
ATOM     28  C   UNL     1      -1.630  14.203  23.817  0.00  0.00    +0.000 C 
ENDBRANCH  24  28
ENDBRANCH   1  24
TORSDOF 5
ENDMDL
MODEL 5
REMARK VINA RESULT:      -7.9      1.142      1.434
REMARK  Name = 
REMARK  6 active torsions:
REMARK  status: ('A' for Active; 'I' for Inactive)
REMARK    1  A    between atoms: C_1  and  C_2
REMARK    2  A    between atoms: C_2  and  S_3
REMARK    3  A    between atoms: S_3  and  C_6
REMARK    4  A    between atoms: C_11  and  C_12
REMARK    5  A    between atoms: C_20  and  O_21
REMARK    6  A    between atoms: C_22  and  O_23
REMARK                            x       y       z     vdW  Elec       q    Type
REMARK                         _______ _______ _______ _____ _____    ______ ____
ROOT
ATOM      1  C   UNL     1       5.068   5.805  17.739  0.00  0.00    +0.000 A 
ATOM      2  C   UNL     1       4.594   5.124  18.873  0.00  0.00    +0.000 A 
ATOM      3  C   UNL     1       3.523   5.631  19.620  0.00  0.00    +0.000 A 
ATOM      4  C   UNL     1       2.970   6.818  19.154  0.00  0.00    +0.000 A 
ATOM      5  O   UNL     1       1.922   7.514  19.685  0.00  0.00    +0.000 OA
ATOM      6  C   UNL     1       1.782   8.595  18.850  0.00  0.00    +0.000 A 
ATOM      7  N   UNL     1       2.646   8.630  17.850  0.00  0.00    +0.000 NA
ATOM      8  C   UNL     1       3.407   7.506  18.032  0.00  0.00    +0.000 A 
ATOM      9  C   UNL     1       4.480   7.000  17.293  0.00  0.00    +0.000 A 
ENDROOT
BRANCH   6  10
ATOM     10  C   UNL     1       0.742   9.565  19.185  0.00  0.00    +0.000 A 
ATOM     11  C   UNL     1      -0.132  10.086  18.225  0.00  0.00    +0.000 A 
ATOM     12  C   UNL     1      -1.139  10.983  18.593  0.00  0.00    +0.000 A 
ATOM     13  C   UNL     1      -1.292  11.386  19.930  0.00  0.00    +0.000 A 
ATOM     14  C   UNL     1      -0.411  10.884  20.898  0.00  0.00    +0.000 A 
ATOM     15  C   UNL     1       0.595   9.983  20.519  0.00  0.00    +0.000 A 
ATOM     16  C   UNL     1      -0.520  11.291  22.298  0.00  0.00    +0.000 C 
ATOM     17  C   UNL     1      -1.497  12.108  22.709  0.00  0.00    +0.000 C 
ATOM     18  C   UNL     1      -2.551  12.676  21.810  0.00  0.00    +0.000 C 
ATOM     19  C   UNL     1      -2.386  12.371  20.289  0.00  0.00    +0.000 C 
BRANCH  18  20
ATOM     20  O   UNL     1      -3.802  12.178  22.295  0.00  0.00    +0.000 OA
ATOM     21  H   UNL     1      -3.709  11.215  22.384  0.00  0.00    +0.000 HD
ENDBRANCH  18  20
BRANCH  19  22
ATOM     22  O   UNL     1      -2.121  13.588  19.578  0.00  0.00    +0.000 OA
ATOM     23  H   UNL     1      -2.857  14.193  19.774  0.00  0.00    +0.000 HD
ENDBRANCH  19  22
ENDBRANCH   6  10
BRANCH   1  24
ATOM     24  S   UNL     1       6.375   5.086  16.766  0.00  0.00    +0.000 S 
ATOM     25  O   UNL     1       7.261   4.398  17.687  0.00  0.00    +0.000 OA
ATOM     26  O   UNL     1       6.876   6.130  15.895  0.00  0.00    +0.000 OA
BRANCH  24  28
ATOM     27  C   UNL     1       5.627   4.221  14.289  0.00  0.00    +0.000 C 
ATOM     28  C   UNL     1       5.548   3.866  15.762  0.00  0.00    +0.000 C 
ENDBRANCH  24  28
ENDBRANCH   1  24
TORSDOF 5
ENDMDL
MODEL 6
REMARK VINA RESULT:      -7.9      1.626      2.604
REMARK  Name = 
REMARK  6 active torsions:
REMARK  status: ('A' for Active; 'I' for Inactive)
REMARK    1  A    between atoms: C_1  and  C_2
REMARK    2  A    between atoms: C_2  and  S_3
REMARK    3  A    between atoms: S_3  and  C_6
REMARK    4  A    between atoms: C_11  and  C_12
REMARK    5  A    between atoms: C_20  and  O_21
REMARK    6  A    between atoms: C_22  and  O_23
REMARK                            x       y       z     vdW  Elec       q    Type
REMARK                         _______ _______ _______ _____ _____    ______ ____
ROOT
ATOM      1  C   UNL     1       3.726   5.551  18.492  0.00  0.00    +0.000 A 
ATOM      2  C   UNL     1       3.754   6.538  17.492  0.00  0.00    +0.000 A 
ATOM      3  C   UNL     1       3.053   7.741  17.652  0.00  0.00    +0.000 A 
ATOM      4  C   UNL     1       2.363   7.884  18.850  0.00  0.00    +0.000 A 
ATOM      5  O   UNL     1       1.616   8.951  19.258  0.00  0.00    +0.000 OA
ATOM      6  C   UNL     1       1.163   8.584  20.502  0.00  0.00    +0.000 A 
ATOM      7  N   UNL     1       1.564   7.390  20.901  0.00  0.00    +0.000 NA
ATOM      8  C   UNL     1       2.327   6.934  19.859  0.00  0.00    +0.000 A 
ATOM      9  C   UNL     1       3.023   5.732  19.694  0.00  0.00    +0.000 A 
ENDROOT
BRANCH   6  10
ATOM     10  C   UNL     1       0.287   9.527  21.196  0.00  0.00    +0.000 A 
ATOM     11  C   UNL     1       0.001   9.414  22.560  0.00  0.00    +0.000 A 
ATOM     12  C   UNL     1      -0.811  10.358  23.195  0.00  0.00    +0.000 A 
ATOM     13  C   UNL     1      -1.362  11.434  22.479  0.00  0.00    +0.000 A 
ATOM     14  C   UNL     1      -1.096  11.546  21.107  0.00  0.00    +0.000 A 
ATOM     15  C   UNL     1      -0.278  10.595  20.480  0.00  0.00    +0.000 A 
ATOM     16  C   UNL     1      -1.664  12.638  20.318  0.00  0.00    +0.000 C 
ATOM     17  C   UNL     1      -2.407  13.594  20.888  0.00  0.00    +0.000 C 
ATOM     18  C   UNL     1      -2.727  13.649  22.350  0.00  0.00    +0.000 C 
ATOM     19  C   UNL     1      -2.249  12.430  23.198  0.00  0.00    +0.000 C 
BRANCH  18  20
ATOM     20  O   UNL     1      -2.151  14.865  22.840  0.00  0.00    +0.000 OA
ATOM     21  H   UNL     1      -1.280  14.956  22.419  0.00  0.00    +0.000 HD
ENDBRANCH  18  20
BRANCH  19  22
ATOM     22  O   UNL     1      -3.388  11.713  23.695  0.00  0.00    +0.000 OA
ATOM     23  H   UNL     1      -3.255  10.778  23.459  0.00  0.00    +0.000 HD
ENDBRANCH  19  22
ENDBRANCH   6  10
BRANCH   1  24
ATOM     24  S   UNL     1       4.697   4.071  18.291  0.00  0.00    +0.000 S 
ATOM     25  O   UNL     1       3.983   3.218  17.359  0.00  0.00    +0.000 OA
ATOM     26  O   UNL     1       5.031   3.602  19.620  0.00  0.00    +0.000 OA
BRANCH  24  28
ATOM     27  C   UNL     1       7.110   5.327  18.497  0.00  0.00    +0.000 C 
ATOM     28  C   UNL     1       6.193   4.638  17.503  0.00  0.00    +0.000 C 
ENDBRANCH  24  28
ENDBRANCH   1  24
TORSDOF 5
ENDMDL
MODEL 7
REMARK VINA RESULT:      -7.9      2.228      3.238
REMARK  Name = 
REMARK  6 active torsions:
REMARK  status: ('A' for Active; 'I' for Inactive)
REMARK    1  A    between atoms: C_1  and  C_2
REMARK    2  A    between atoms: C_2  and  S_3
REMARK    3  A    between atoms: S_3  and  C_6
REMARK    4  A    between atoms: C_11  and  C_12
REMARK    5  A    between atoms: C_20  and  O_21
REMARK    6  A    between atoms: C_22  and  O_23
REMARK                            x       y       z     vdW  Elec       q    Type
REMARK                         _______ _______ _______ _____ _____    ______ ____
ROOT
ATOM      1  C   UNL     1       3.382   5.161  18.743  0.00  0.00    +0.000 A 
ATOM      2  C   UNL     1       3.547   6.131  17.740  0.00  0.00    +0.000 A 
ATOM      3  C   UNL     1       3.009   7.417  17.888  0.00  0.00    +0.000 A 
ATOM      4  C   UNL     1       2.335   7.655  19.080  0.00  0.00    +0.000 A 
ATOM      5  O   UNL     1       1.730   8.813  19.477  0.00  0.00    +0.000 OA
ATOM      6  C   UNL     1       1.223   8.515  20.719  0.00  0.00    +0.000 A 
ATOM      7  N   UNL     1       1.461   7.280  21.126  0.00  0.00    +0.000 NA
ATOM      8  C   UNL     1       2.166   6.722  20.092  0.00  0.00    +0.000 A 
ATOM      9  C   UNL     1       2.699   5.439  19.938  0.00  0.00    +0.000 A 
ENDROOT
BRANCH   6  10
ATOM     10  C   UNL     1       0.473   9.567  21.401  0.00  0.00    +0.000 A 
ATOM     11  C   UNL     1      -0.380   9.298  22.477  0.00  0.00    +0.000 A 
ATOM     12  C   UNL     1      -1.051  10.337  23.128  0.00  0.00    +0.000 A 
ATOM     13  C   UNL     1      -0.889  11.671  22.715  0.00  0.00    +0.000 A 
ATOM     14  C   UNL     1      -0.051  11.949  21.626  0.00  0.00    +0.000 A 
ATOM     15  C   UNL     1       0.619  10.899  20.981  0.00  0.00    +0.000 A 
ATOM     16  C   UNL     1       0.131  13.319  21.148  0.00  0.00    +0.000 C 
ATOM     17  C   UNL     1      -0.449  14.353  21.768  0.00  0.00    +0.000 C 
ATOM     18  C   UNL     1      -1.320  14.226  22.979  0.00  0.00    +0.000 C 
ATOM     19  C   UNL     1      -1.644  12.770  23.436  0.00  0.00    +0.000 C 
BRANCH  18  20
ATOM     20  O   UNL     1      -0.662  14.950  24.024  0.00  0.00    +0.000 OA
ATOM     21  H   UNL     1      -1.144  14.762  24.846  0.00  0.00    +0.000 HD
ENDBRANCH  18  20
BRANCH  19  22
ATOM     22  O   UNL     1      -3.045  12.512  23.269  0.00  0.00    +0.000 OA
ATOM     23  H   UNL     1      -3.468  13.369  23.091  0.00  0.00    +0.000 HD
ENDBRANCH  19  22
ENDBRANCH   6  10
BRANCH   1  24
ATOM     24  S   UNL     1       4.153   3.566  18.556  0.00  0.00    +0.000 S 
ATOM     25  O   UNL     1       5.353   3.576  19.372  0.00  0.00    +0.000 OA
ATOM     26  O   UNL     1       4.225   3.296  17.135  0.00  0.00    +0.000 OA
BRANCH  24  28
ATOM     27  C   UNL     1       1.800   2.199  18.367  0.00  0.00    +0.000 C 
ATOM     28  C   UNL     1       2.985   2.432  19.285  0.00  0.00    +0.000 C 
ENDBRANCH  24  28
ENDBRANCH   1  24
TORSDOF 5
ENDMDL
MODEL 8
REMARK VINA RESULT:      -7.9      2.814      9.297
REMARK  Name = 
REMARK  6 active torsions:
REMARK  status: ('A' for Active; 'I' for Inactive)
REMARK    1  A    between atoms: C_1  and  C_2
REMARK    2  A    between atoms: C_2  and  S_3
REMARK    3  A    between atoms: S_3  and  C_6
REMARK    4  A    between atoms: C_11  and  C_12
REMARK    5  A    between atoms: C_20  and  O_21
REMARK    6  A    between atoms: C_22  and  O_23
REMARK                            x       y       z     vdW  Elec       q    Type
REMARK                         _______ _______ _______ _____ _____    ______ ____
ROOT
ATOM      1  C   UNL     1      -1.095  11.351  21.716  0.00  0.00    +0.000 A 
ATOM      2  C   UNL     1      -0.879  10.644  22.911  0.00  0.00    +0.000 A 
ATOM      3  C   UNL     1      -0.072   9.499  22.931  0.00  0.00    +0.000 A 
ATOM      4  C   UNL     1       0.496   9.138  21.714  0.00  0.00    +0.000 A 
ATOM      5  O   UNL     1       1.321   8.080  21.462  0.00  0.00    +0.000 OA
ATOM      6  C   UNL     1       1.592   8.182  20.119  0.00  0.00    +0.000 A 
ATOM      7  N   UNL     1       1.012   9.208  19.520  0.00  0.00    +0.000 NA
ATOM      8  C   UNL     1       0.311   9.823  20.523  0.00  0.00    +0.000 A 
ATOM      9  C   UNL     1      -0.499  10.962  20.505  0.00  0.00    +0.000 A 
ENDROOT
BRANCH   6  10
ATOM     10  C   UNL     1       2.441   7.148  19.531  0.00  0.00    +0.000 A 
ATOM     11  C   UNL     1       2.513   5.853  20.056  0.00  0.00    +0.000 A 
ATOM     12  C   UNL     1       3.307   4.881  19.442  0.00  0.00    +0.000 A 
ATOM     13  C   UNL     1       4.054   5.182  18.290  0.00  0.00    +0.000 A 
ATOM     14  C   UNL     1       4.003   6.481  17.766  0.00  0.00    +0.000 A 
ATOM     15  C   UNL     1       3.201   7.449  18.389  0.00  0.00    +0.000 A 
ATOM     16  C   UNL     1       4.779   6.846  16.582  0.00  0.00    +0.000 C 
ATOM     17  C   UNL     1       5.515   5.939  15.929  0.00  0.00    +0.000 C 
ATOM     18  C   UNL     1       5.622   4.500  16.325  0.00  0.00    +0.000 C 
ATOM     19  C   UNL     1       4.915   4.106  17.659  0.00  0.00    +0.000 C 
BRANCH  18  20
ATOM     20  O   UNL     1       5.096   3.742  15.230  0.00  0.00    +0.000 OA
ATOM     21  H   UNL     1       5.334   2.813  15.388  0.00  0.00    +0.000 HD
ENDBRANCH  18  20
BRANCH  19  22
ATOM     22  O   UNL     1       5.897   3.716  18.629  0.00  0.00    +0.000 OA
ATOM     23  H   UNL     1       5.419   3.259  19.343  0.00  0.00    +0.000 HD
ENDBRANCH  19  22
ENDBRANCH   6  10
BRANCH   1  24
ATOM     24  S   UNL     1      -2.056  12.851  21.746  0.00  0.00    +0.000 S 
ATOM     25  O   UNL     1      -3.273  12.560  22.482  0.00  0.00    +0.000 OA
ATOM     26  O   UNL     1      -2.112  13.343  20.384  0.00  0.00    +0.000 OA
BRANCH  24  28
ATOM     27  C   UNL     1       0.246  14.289  22.021  0.00  0.00    +0.000 C 
ATOM     28  C   UNL     1      -1.070  13.980  22.711  0.00  0.00    +0.000 C 
ENDBRANCH  24  28
ENDBRANCH   1  24
TORSDOF 5
ENDMDL
MODEL 9
REMARK VINA RESULT:      -7.8      3.213      9.151
REMARK  Name = 
REMARK  6 active torsions:
REMARK  status: ('A' for Active; 'I' for Inactive)
REMARK    1  A    between atoms: C_1  and  C_2
REMARK    2  A    between atoms: C_2  and  S_3
REMARK    3  A    between atoms: S_3  and  C_6
REMARK    4  A    between atoms: C_11  and  C_12
REMARK    5  A    between atoms: C_20  and  O_21
REMARK    6  A    between atoms: C_22  and  O_23
REMARK                            x       y       z     vdW  Elec       q    Type
REMARK                         _______ _______ _______ _____ _____    ______ ____
ROOT
ATOM      1  C   UNL     1      -1.041  12.051  21.840  0.00  0.00    +0.000 A 
ATOM      2  C   UNL     1      -1.180  11.273  23.002  0.00  0.00    +0.000 A 
ATOM      3  C   UNL     1      -0.642   9.980  23.068  0.00  0.00    +0.000 A 
ATOM      4  C   UNL     1       0.035   9.549  21.933  0.00  0.00    +0.000 A 
ATOM      5  O   UNL     1       0.655   8.348  21.740  0.00  0.00    +0.000 OA
ATOM      6  C   UNL     1       1.163   8.437  20.466  0.00  0.00    +0.000 A 
ATOM      7  N   UNL     1       0.916   9.584  19.856  0.00  0.00    +0.000 NA
ATOM      8  C   UNL     1       0.199  10.299  20.778  0.00  0.00    +0.000 A 
ATOM      9  C   UNL     1      -0.345  11.586  20.714  0.00  0.00    +0.000 A 
ENDROOT
BRANCH   6  10
ATOM     10  C   UNL     1       1.866   7.266  19.947  0.00  0.00    +0.000 A 
ATOM     11  C   UNL     1       2.653   7.319  18.792  0.00  0.00    +0.000 A 
ATOM     12  C   UNL     1       3.341   6.185  18.349  0.00  0.00    +0.000 A 
ATOM     13  C   UNL     1       3.254   4.969  19.048  0.00  0.00    +0.000 A 
ATOM     14  C   UNL     1       2.454   4.901  20.197  0.00  0.00    +0.000 A 
ATOM     15  C   UNL     1       1.769   6.044  20.634  0.00  0.00    +0.000 A 
ATOM     16  C   UNL     1       2.317   3.652  20.945  0.00  0.00    +0.000 C 
ATOM     17  C   UNL     1       2.994   2.553  20.591  0.00  0.00    +0.000 C 
ATOM     18  C   UNL     1       3.934   2.484  19.428  0.00  0.00    +0.000 C 
ATOM     19  C   UNL     1       4.003   3.758  18.530  0.00  0.00    +0.000 C 
BRANCH  18  20
ATOM     20  O   UNL     1       5.222   2.178  19.973  0.00  0.00    +0.000 OA
ATOM     21  H   UNL     1       5.591   3.011  20.314  0.00  0.00    +0.000 HD
ENDBRANCH  18  20
BRANCH  19  22
ATOM     22  O   UNL     1       3.486   3.457  17.226  0.00  0.00    +0.000 OA
ATOM     23  H   UNL     1       3.338   2.496  17.198  0.00  0.00    +0.000 HD
ENDBRANCH  19  22
ENDBRANCH   6  10
BRANCH   1  24
ATOM     24  S   UNL     1      -1.663  13.720  21.824  0.00  0.00    +0.000 S 
ATOM     25  O   UNL     1      -1.792  14.139  23.208  0.00  0.00    +0.000 OA
ATOM     26  O   UNL     1      -2.807  13.736  20.936  0.00  0.00    +0.000 OA
BRANCH  24  28
ATOM     27  C   UNL     1       0.747  14.974  22.069  0.00  0.00    +0.000 C 
ATOM     28  C   UNL     1      -0.353  14.665  21.070  0.00  0.00    +0.000 C 
ENDBRANCH  24  28
ENDBRANCH   1  24
TORSDOF 5
ENDMDL
