MODEL 1
REMARK VINA RESULT:      -8.3      0.000      0.000
REMARK  Name = 
REMARK  5 active torsions:
REMARK  status: ('A' for Active; 'I' for Inactive)
REMARK    1  A    between atoms: C_2  and  O_3
REMARK    2  A    between atoms: C_2  and  C_4
REMARK    3  A    between atoms: C_7  and  C_8
REMARK    4  A    between atoms: C_10  and  C_11
REMARK    5  A    between atoms: C_14  and  N_15
REMARK                            x       y       z     vdW  Elec       q    Type
REMARK                         _______ _______ _______ _____ _____    ______ ____
ROOT
ATOM      1  C   UNL     1       2.652   6.953  18.896  0.00  0.00    +0.000 A 
ATOM      2  N   UNL     1       2.152   8.172  18.804  0.00  0.00    +0.000 NA
ATOM      3  C   UNL     1       1.358   8.443  19.905  0.00  0.00    +0.000 A 
ATOM      4  C   UNL     1       1.236   7.411  20.812  0.00  0.00    +0.000 A 
ATOM      5  S   UNL     1       2.136   6.062  20.283  0.00  0.00    +0.000 S 
ENDROOT
BRANCH   1   9
ATOM      6  C   UNL     1       5.353   5.277  16.004  0.00  0.00    +0.000 A 
ATOM      7  C   UNL     1       4.515   4.432  16.739  0.00  0.00    +0.000 A 
ATOM      8  C   UNL     1       3.630   4.964  17.682  0.00  0.00    +0.000 A 
ATOM      9  C   UNL     1       3.557   6.350  17.900  0.00  0.00    +0.000 A 
ATOM     10  C   UNL     1       4.396   7.188  17.144  0.00  0.00    +0.000 A 
ATOM     11  C   UNL     1       5.280   6.659  16.194  0.00  0.00    +0.000 A 
BRANCH   6  13
ATOM     12  O   UNL     1       5.989   3.661  14.382  0.00  0.00    +0.000 OA
ATOM     13  C   UNL     1       6.273   4.660  15.018  0.00  0.00    +0.000 C 
BRANCH  13  14
ATOM     14  O   UNL     1       7.470   5.278  14.934  0.00  0.00    +0.000 OA
ATOM     15  H   UNL     1       8.243   4.686  14.949  0.00  0.00    +0.000 HD
ENDBRANCH  13  14
ENDBRANCH   6  13
ENDBRANCH   1   9
BRANCH   3  16
ATOM     16  C   UNL     1       0.740   9.766  20.053  0.00  0.00    +0.000 A 
ATOM     17  C   UNL     1       1.186  10.807  20.835  0.00  0.00    +0.000 A 
ATOM     18  S   UNL     1       0.102  12.130  20.702  0.00  0.00    +0.000 S 
ATOM     19  C   UNL     1      -0.904  11.211  19.632  0.00  0.00    +0.000 A 
ATOM     20  N   UNL     1      -0.430  10.005  19.364  0.00  0.00    +0.000 NA
BRANCH  19  21
ATOM     21  N   UNL     1      -2.084  11.750  19.226  0.00  0.00    +0.000 NA
ATOM     22  C   UNL     1      -2.452  11.563  17.995  0.00  0.00    +0.000 C 
ATOM     23  N   UNL     1      -1.744  10.978  16.977  0.00  0.00    +0.000 N 
ATOM     24  C   UNL     1      -2.379  10.080  16.042  0.00  0.00    +0.000 C 
ATOM     25  C   UNL     1      -3.654  10.711  15.517  0.00  0.00    +0.000 C 
ATOM     26  C   UNL     1      -4.494  11.173  16.696  0.00  0.00    +0.000 C 
ATOM     27  N   UNL     1      -3.695  11.977  17.602  0.00  0.00    +0.000 N 
ATOM     28  H   UNL     1      -0.840  10.639  17.310  0.00  0.00    +0.000 HD
ATOM     29  H   UNL     1      -4.218  12.352  18.387  0.00  0.00    +0.000 HD
ENDBRANCH  19  21
ENDBRANCH   3  16
TORSDOF 5
ENDMDL
MODEL 2
REMARK VINA RESULT:      -8.2      1.159      1.394
REMARK  Name = 
REMARK  5 active torsions:
REMARK  status: ('A' for Active; 'I' for Inactive)
REMARK    1  A    between atoms: C_2  and  O_3
REMARK    2  A    between atoms: C_2  and  C_4
REMARK    3  A    between atoms: C_7  and  C_8
REMARK    4  A    between atoms: C_10  and  C_11
REMARK    5  A    between atoms: C_14  and  N_15
REMARK                            x       y       z     vdW  Elec       q    Type
REMARK                         _______ _______ _______ _____ _____    ______ ____
ROOT
ATOM      1  C   UNL     1       3.161   6.110  18.731  0.00  0.00    +0.000 A 
ATOM      2  N   UNL     1       2.639   7.316  18.866  0.00  0.00    +0.000 NA
ATOM      3  C   UNL     1       1.861   7.370  20.009  0.00  0.00    +0.000 A 
ATOM      4  C   UNL     1       1.771   6.190  20.717  0.00  0.00    +0.000 A 
ATOM      5  S   UNL     1       2.683   4.975  19.941  0.00  0.00    +0.000 S 
ENDROOT
BRANCH   1   9
ATOM      6  C   UNL     1       5.819   5.048  15.525  0.00  0.00    +0.000 A 
ATOM      7  C   UNL     1       5.308   4.049  16.359  0.00  0.00    +0.000 A 
ATOM      8  C   UNL     1       4.440   4.380  17.405  0.00  0.00    +0.000 A 
ATOM      9  C   UNL     1       4.058   5.714  17.629  0.00  0.00    +0.000 A 
ATOM     10  C   UNL     1       4.571   6.705  16.775  0.00  0.00    +0.000 A 
ATOM     11  C   UNL     1       5.435   6.377  15.722  0.00  0.00    +0.000 A 
BRANCH   6  13
ATOM     12  O   UNL     1       7.686   5.318  14.082  0.00  0.00    +0.000 OA
ATOM     13  C   UNL     1       6.736   4.642  14.433  0.00  0.00    +0.000 C 
BRANCH  13  14
ATOM     14  O   UNL     1       6.386   3.485  13.833  0.00  0.00    +0.000 OA
ATOM     15  H   UNL     1       6.743   2.680  14.250  0.00  0.00    +0.000 HD
ENDBRANCH  13  14
ENDBRANCH   6  13
ENDBRANCH   1   9
BRANCH   3  16
ATOM     16  C   UNL     1       1.224   8.633  20.402  0.00  0.00    +0.000 A 
ATOM     17  C   UNL     1       1.010   9.092  21.681  0.00  0.00    +0.000 A 
ATOM     18  S   UNL     1       0.197  10.601  21.621  0.00  0.00    +0.000 S 
ATOM     19  C   UNL     1       0.161  10.525  19.891  0.00  0.00    +0.000 A 
ATOM     20  N   UNL     1       0.759   9.454  19.396  0.00  0.00    +0.000 NA
BRANCH  19  21
ATOM     21  N   UNL     1      -0.509  11.493  19.212  0.00  0.00    +0.000 NA
ATOM     22  C   UNL     1      -1.407  11.127  18.349  0.00  0.00    +0.000 C 
ATOM     23  N   UNL     1      -1.707   9.859  17.923  0.00  0.00    +0.000 N 
ATOM     24  C   UNL     1      -3.074   9.439  17.724  0.00  0.00    +0.000 C 
ATOM     25  C   UNL     1      -3.807  10.473  16.893  0.00  0.00    +0.000 C 
ATOM     26  C   UNL     1      -3.599  11.842  17.517  0.00  0.00    +0.000 C 
ATOM     27  N   UNL     1      -2.188  12.081  17.755  0.00  0.00    +0.000 N 
ATOM     28  H   UNL     1      -1.141   9.165  18.415  0.00  0.00    +0.000 HD
ATOM     29  H   UNL     1      -1.984  13.001  18.131  0.00  0.00    +0.000 HD
ENDBRANCH  19  21
ENDBRANCH   3  16
TORSDOF 5
ENDMDL
MODEL 3
REMARK VINA RESULT:      -8.2      1.133      1.664
REMARK  Name = 
REMARK  5 active torsions:
REMARK  status: ('A' for Active; 'I' for Inactive)
REMARK    1  A    between atoms: C_2  and  O_3
REMARK    2  A    between atoms: C_2  and  C_4
REMARK    3  A    between atoms: C_7  and  C_8
REMARK    4  A    between atoms: C_10  and  C_11
REMARK    5  A    between atoms: C_14  and  N_15
REMARK                            x       y       z     vdW  Elec       q    Type
REMARK                         _______ _______ _______ _____ _____    ______ ____
ROOT
ATOM      1  C   UNL     1       3.204   6.153  18.706  0.00  0.00    +0.000 A 
ATOM      2  N   UNL     1       2.642   7.341  18.837  0.00  0.00    +0.000 NA
ATOM      3  C   UNL     1       1.896   7.386  20.002  0.00  0.00    +0.000 A 
ATOM      4  C   UNL     1       1.870   6.216  20.731  0.00  0.00    +0.000 A 
ATOM      5  S   UNL     1       2.804   5.022  19.948  0.00  0.00    +0.000 S 
ENDROOT
BRANCH   1   9
ATOM      6  C   UNL     1       5.711   4.953  15.427  0.00  0.00    +0.000 A 
ATOM      7  C   UNL     1       5.548   6.312  15.711  0.00  0.00    +0.000 A 
ATOM      8  C   UNL     1       4.736   6.717  16.777  0.00  0.00    +0.000 A 
ATOM      9  C   UNL     1       4.082   5.771  17.584  0.00  0.00    +0.000 A 
ATOM     10  C   UNL     1       4.266   4.408  17.294  0.00  0.00    +0.000 A 
ATOM     11  C   UNL     1       5.084   3.998  16.232  0.00  0.00    +0.000 A 
BRANCH   6  13
ATOM     12  O   UNL     1       7.421   5.328  13.822  0.00  0.00    +0.000 OA
ATOM     13  C   UNL     1       6.580   4.579  14.286  0.00  0.00    +0.000 C 
BRANCH  13  14
ATOM     14  O   UNL     1       6.316   3.357  13.780  0.00  0.00    +0.000 OA
ATOM     15  H   UNL     1       5.369   3.142  13.693  0.00  0.00    +0.000 HD
ENDBRANCH  13  14
ENDBRANCH   6  13
ENDBRANCH   1   9
BRANCH   3  16
ATOM     16  C   UNL     1       1.225   8.631  20.393  0.00  0.00    +0.000 A 
ATOM     17  C   UNL     1       0.946   9.057  21.671  0.00  0.00    +0.000 A 
ATOM     18  S   UNL     1       0.116  10.557  21.609  0.00  0.00    +0.000 S 
ATOM     19  C   UNL     1       0.160  10.520  19.877  0.00  0.00    +0.000 A 
ATOM     20  N   UNL     1       0.794   9.469  19.386  0.00  0.00    +0.000 NA
BRANCH  19  21
ATOM     21  N   UNL     1      -0.492  11.495  19.190  0.00  0.00    +0.000 NA
ATOM     22  C   UNL     1      -1.076  11.174  18.075  0.00  0.00    +0.000 C 
ATOM     23  N   UNL     1      -1.030   9.977  17.408  0.00  0.00    +0.000 N 
ATOM     24  C   UNL     1      -2.211   9.416  16.794  0.00  0.00    +0.000 C 
ATOM     25  C   UNL     1      -2.898  10.475  15.954  0.00  0.00    +0.000 C 
ATOM     26  C   UNL     1      -3.097  11.720  16.801  0.00  0.00    +0.000 C 
ATOM     27  N   UNL     1      -1.851  12.104  17.439  0.00  0.00    +0.000 N 
ATOM     28  H   UNL     1      -0.482   9.290  17.928  0.00  0.00    +0.000 HD
ATOM     29  H   UNL     1      -1.914  12.958  17.982  0.00  0.00    +0.000 HD
ENDBRANCH  19  21
ENDBRANCH   3  16
TORSDOF 5
ENDMDL
MODEL 4
REMARK VINA RESULT:      -7.7      5.405      9.715
REMARK  Name = 
REMARK  5 active torsions:
REMARK  status: ('A' for Active; 'I' for Inactive)
REMARK    1  A    between atoms: C_2  and  O_3
REMARK    2  A    between atoms: C_2  and  C_4
REMARK    3  A    between atoms: C_7  and  C_8
REMARK    4  A    between atoms: C_10  and  C_11
REMARK    5  A    between atoms: C_14  and  N_15
REMARK                            x       y       z     vdW  Elec       q    Type
REMARK                         _______ _______ _______ _____ _____    ______ ____
ROOT
ATOM      1  C   UNL     1       0.515   9.607  20.299  0.00  0.00    +0.000 A 
ATOM      2  N   UNL     1       0.887   8.380  20.615  0.00  0.00    +0.000 NA
ATOM      3  C   UNL     1       1.726   7.873  19.638  0.00  0.00    +0.000 A 
ATOM      4  C   UNL     1       1.958   8.711  18.568  0.00  0.00    +0.000 A 
ATOM      5  S   UNL     1       1.111  10.176  18.782  0.00  0.00    +0.000 S 
ENDROOT
BRANCH   1   9
ATOM      6  C   UNL     1      -2.106  12.075  22.647  0.00  0.00    +0.000 A 
ATOM      7  C   UNL     1      -1.394  11.041  23.263  0.00  0.00    +0.000 A 
ATOM      8  C   UNL     1      -0.536  10.232  22.511  0.00  0.00    +0.000 A 
ATOM      9  C   UNL     1      -0.365  10.447  21.133  0.00  0.00    +0.000 A 
ATOM     10  C   UNL     1      -1.078  11.498  20.531  0.00  0.00    +0.000 A 
ATOM     11  C   UNL     1      -1.934  12.316  21.281  0.00  0.00    +0.000 A 
BRANCH   6  13
ATOM     12  O   UNL     1      -2.831  14.094  23.666  0.00  0.00    +0.000 OA
ATOM     13  C   UNL     1      -3.003  12.902  23.489  0.00  0.00    +0.000 C 
BRANCH  13  14
ATOM     14  O   UNL     1      -3.992  12.199  24.081  0.00  0.00    +0.000 OA
ATOM     15  H   UNL     1      -4.363  11.476  23.544  0.00  0.00    +0.000 HD
ENDBRANCH  13  14
ENDBRANCH   6  13
ENDBRANCH   1   9
BRANCH   3  16
ATOM     16  C   UNL     1       2.317   6.540  19.802  0.00  0.00    +0.000 A 
ATOM     17  C   UNL     1       1.768   5.463  20.459  0.00  0.00    +0.000 A 
ATOM     18  S   UNL     1       2.860   4.141  20.410  0.00  0.00    +0.000 S 
ATOM     19  C   UNL     1       4.005   5.107  19.539  0.00  0.00    +0.000 A 
ATOM     20  N   UNL     1       3.573   6.328  19.271  0.00  0.00    +0.000 NA
BRANCH  19  21
ATOM     21  N   UNL     1       5.230   4.581  19.274  0.00  0.00    +0.000 NA
ATOM     22  C   UNL     1       5.581   4.441  18.031  0.00  0.00    +0.000 C 
ATOM     23  N   UNL     1       4.823   4.645  16.908  0.00  0.00    +0.000 N 
ATOM     24  C   UNL     1       5.374   5.291  15.739  0.00  0.00    +0.000 C 
ATOM     25  C   UNL     1       6.701   4.652  15.384  0.00  0.00    +0.000 C 
ATOM     26  C   UNL     1       7.579   4.622  16.624  0.00  0.00    +0.000 C 
ATOM     27  N   UNL     1       6.857   4.043  17.741  0.00  0.00    +0.000 N 
ATOM     28  H   UNL     1       3.891   4.983  17.153  0.00  0.00    +0.000 HD
ATOM     29  H   UNL     1       7.411   3.955  18.587  0.00  0.00    +0.000 HD
ENDBRANCH  19  21
ENDBRANCH   3  16
TORSDOF 5
ENDMDL
MODEL 5
REMARK VINA RESULT:      -7.6      5.361      9.651
REMARK  Name = 
REMARK  5 active torsions:
REMARK  status: ('A' for Active; 'I' for Inactive)
REMARK    1  A    between atoms: C_2  and  O_3
REMARK    2  A    between atoms: C_2  and  C_4
REMARK    3  A    between atoms: C_7  and  C_8
REMARK    4  A    between atoms: C_10  and  C_11
REMARK    5  A    between atoms: C_14  and  N_15
REMARK                            x       y       z     vdW  Elec       q    Type
REMARK                         _______ _______ _______ _____ _____    ______ ____
ROOT
ATOM      1  C   UNL     1       0.636   9.553  20.153  0.00  0.00    +0.000 A 
ATOM      2  N   UNL     1       1.018   8.325  20.451  0.00  0.00    +0.000 NA
ATOM      3  C   UNL     1       1.868   7.843  19.470  0.00  0.00    +0.000 A 
ATOM      4  C   UNL     1       2.098   8.701  18.415  0.00  0.00    +0.000 A 
ATOM      5  S   UNL     1       1.234  10.154  18.649  0.00  0.00    +0.000 S 
ENDROOT
BRANCH   1   9
ATOM      6  C   UNL     1      -1.909  11.912  22.690  0.00  0.00    +0.000 A 
ATOM      7  C   UNL     1      -1.813  12.219  21.329  0.00  0.00    +0.000 A 
ATOM      8  C   UNL     1      -0.990  11.458  20.492  0.00  0.00    +0.000 A 
ATOM      9  C   UNL     1      -0.258  10.371  20.996  0.00  0.00    +0.000 A 
ATOM     10  C   UNL     1      -0.374  10.066  22.363  0.00  0.00    +0.000 A 
ATOM     11  C   UNL     1      -1.203  10.822  23.204  0.00  0.00    +0.000 A 
BRANCH   6  13
ATOM     12  O   UNL     1      -2.493  13.873  23.896  0.00  0.00    +0.000 OA
ATOM     13  C   UNL     1      -2.794  12.751  23.533  0.00  0.00    +0.000 C 
BRANCH  13  14
ATOM     14  O   UNL     1      -3.937  12.134  23.900  0.00  0.00    +0.000 OA
ATOM     15  H   UNL     1      -3.894  11.161  23.916  0.00  0.00    +0.000 HD
ENDBRANCH  13  14
ENDBRANCH   6  13
ENDBRANCH   1   9
BRANCH   3  16
ATOM     16  C   UNL     1       2.472   6.513  19.615  0.00  0.00    +0.000 A 
ATOM     17  C   UNL     1       1.999   5.465  20.369  0.00  0.00    +0.000 A 
ATOM     18  S   UNL     1       3.076   4.136  20.246  0.00  0.00    +0.000 S 
ATOM     19  C   UNL     1       4.116   5.062  19.216  0.00  0.00    +0.000 A 
ATOM     20  N   UNL     1       3.659   6.275  18.953  0.00  0.00    +0.000 NA
BRANCH  19  21
ATOM     21  N   UNL     1       5.302   4.519  18.832  0.00  0.00    +0.000 NA
ATOM     22  C   UNL     1       5.579   4.482  17.564  0.00  0.00    +0.000 C 
ATOM     23  N   UNL     1       4.769   4.816  16.510  0.00  0.00    +0.000 N 
ATOM     24  C   UNL     1       5.281   5.548  15.375  0.00  0.00    +0.000 C 
ATOM     25  C   UNL     1       6.560   4.897  14.886  0.00  0.00    +0.000 C 
ATOM     26  C   UNL     1       7.502   4.722  16.064  0.00  0.00    +0.000 C 
ATOM     27  N   UNL     1       6.820   4.068  17.165  0.00  0.00    +0.000 N 
ATOM     28  H   UNL     1       3.866   5.164  16.838  0.00  0.00    +0.000 HD
ATOM     29  H   UNL     1       7.415   3.883  17.966  0.00  0.00    +0.000 HD
ENDBRANCH  19  21
ENDBRANCH   3  16
TORSDOF 5
ENDMDL
MODEL 6
REMARK VINA RESULT:      -7.6      1.521      2.162
REMARK  Name = 
REMARK  5 active torsions:
REMARK  status: ('A' for Active; 'I' for Inactive)
REMARK    1  A    between atoms: C_2  and  O_3
REMARK    2  A    between atoms: C_2  and  C_4
REMARK    3  A    between atoms: C_7  and  C_8
REMARK    4  A    between atoms: C_10  and  C_11
REMARK    5  A    between atoms: C_14  and  N_15
REMARK                            x       y       z     vdW  Elec       q    Type
REMARK                         _______ _______ _______ _____ _____    ______ ____
ROOT
ATOM      1  C   UNL     1       3.681   5.437  18.316  0.00  0.00    +0.000 A 
ATOM      2  N   UNL     1       3.044   6.560  18.591  0.00  0.00    +0.000 NA
ATOM      3  C   UNL     1       2.377   6.443  19.799  0.00  0.00    +0.000 A 
ATOM      4  C   UNL     1       2.488   5.215  20.417  0.00  0.00    +0.000 A 
ATOM      5  S   UNL     1       3.453   4.173  19.471  0.00  0.00    +0.000 S 
ENDROOT
BRANCH   1   9
ATOM      6  C   UNL     1       6.130   4.915  14.823  0.00  0.00    +0.000 A 
ATOM      7  C   UNL     1       5.703   3.794  15.541  0.00  0.00    +0.000 A 
ATOM      8  C   UNL     1       4.903   3.950  16.678  0.00  0.00    +0.000 A 
ATOM      9  C   UNL     1       4.508   5.226  17.113  0.00  0.00    +0.000 A 
ATOM     10  C   UNL     1       4.935   6.342  16.373  0.00  0.00    +0.000 A 
ATOM     11  C   UNL     1       5.730   6.191  15.229  0.00  0.00    +0.000 A 
BRANCH   6  13
ATOM     12  O   UNL     1       6.680   3.913  12.741  0.00  0.00    +0.000 OA
ATOM     13  C   UNL     1       6.977   4.695  13.626  0.00  0.00    +0.000 C 
BRANCH  13  14
ATOM     14  O   UNL     1       8.127   5.400  13.638  0.00  0.00    +0.000 OA
ATOM     15  H   UNL     1       8.399   5.732  14.512  0.00  0.00    +0.000 HD
ENDBRANCH  13  14
ENDBRANCH   6  13
ENDBRANCH   1   9
BRANCH   3  16
ATOM     16  C   UNL     1       1.644   7.591  20.344  0.00  0.00    +0.000 A 
ATOM     17  C   UNL     1       0.985   7.659  21.550  0.00  0.00    +0.000 A 
ATOM     18  S   UNL     1       0.249   9.199  21.718  0.00  0.00    +0.000 S 
ATOM     19  C   UNL     1       0.836   9.660  20.154  0.00  0.00    +0.000 A 
ATOM     20  N   UNL     1       1.570   8.729  19.568  0.00  0.00    +0.000 NA
BRANCH  19  21
ATOM     21  N   UNL     1       0.455  10.862  19.646  0.00  0.00    +0.000 NA
ATOM     22  C   UNL     1      -0.256  10.871  18.560  0.00  0.00    +0.000 C 
ATOM     23  N   UNL     1      -0.592   9.811  17.758  0.00  0.00    +0.000 N 
ATOM     24  C   UNL     1      -1.915   9.689  17.193  0.00  0.00    +0.000 C 
ATOM     25  C   UNL     1      -2.315  11.001  16.546  0.00  0.00    +0.000 C 
ATOM     26  C   UNL     1      -2.102  12.126  17.546  0.00  0.00    +0.000 C 
ATOM     27  N   UNL     1      -0.765  12.057  18.107  0.00  0.00    +0.000 N 
ATOM     28  H   UNL     1      -0.237   8.935  18.143  0.00  0.00    +0.000 HD
ATOM     29  H   UNL     1      -0.550  12.813  18.749  0.00  0.00    +0.000 HD
ENDBRANCH  19  21
ENDBRANCH   3  16
TORSDOF 5
ENDMDL
MODEL 7
REMARK VINA RESULT:      -7.6      2.566      3.222
REMARK  Name = 
REMARK  5 active torsions:
REMARK  status: ('A' for Active; 'I' for Inactive)
REMARK    1  A    between atoms: C_2  and  O_3
REMARK    2  A    between atoms: C_2  and  C_4
REMARK    3  A    between atoms: C_7  and  C_8
REMARK    4  A    between atoms: C_10  and  C_11
REMARK    5  A    between atoms: C_14  and  N_15
REMARK                            x       y       z     vdW  Elec       q    Type
REMARK                         _______ _______ _______ _____ _____    ______ ____
ROOT
ATOM      1  C   UNL     1       2.212   7.505  19.279  0.00  0.00    +0.000 A 
ATOM      2  N   UNL     1       1.512   8.110  20.222  0.00  0.00    +0.000 NA
ATOM      3  C   UNL     1       1.096   9.354  19.779  0.00  0.00    +0.000 A 
ATOM      4  C   UNL     1       1.512   9.697  18.509  0.00  0.00    +0.000 A 
ATOM      5  S   UNL     1       2.448   8.435  17.843  0.00  0.00    +0.000 S 
ENDROOT
BRANCH   1   9
ATOM      6  C   UNL     1       3.803   3.533  19.684  0.00  0.00    +0.000 A 
ATOM      7  C   UNL     1       4.499   4.483  18.930  0.00  0.00    +0.000 A 
ATOM      8  C   UNL     1       3.993   5.780  18.792  0.00  0.00    +0.000 A 
ATOM      9  C   UNL     1       2.790   6.155  19.413  0.00  0.00    +0.000 A 
ATOM     10  C   UNL     1       2.108   5.192  20.178  0.00  0.00    +0.000 A 
ATOM     11  C   UNL     1       2.614   3.894  20.325  0.00  0.00    +0.000 A 
BRANCH   6  13
ATOM     12  O   UNL     1       5.085   1.829  20.730  0.00  0.00    +0.000 OA
ATOM     13  C   UNL     1       4.382   2.173  19.797  0.00  0.00    +0.000 C 
BRANCH  13  14
ATOM     14  O   UNL     1       4.100   1.375  18.747  0.00  0.00    +0.000 OA
ATOM     15  H   UNL     1       3.201   1.001  18.741  0.00  0.00    +0.000 HD
ENDBRANCH  13  14
ENDBRANCH   6  13
ENDBRANCH   1   9
BRANCH   3  16
ATOM     16  C   UNL     1       0.248  10.190  20.636  0.00  0.00    +0.000 A 
ATOM     17  C   UNL     1       0.243  10.230  22.012  0.00  0.00    +0.000 A 
ATOM     18  S   UNL     1      -0.952  11.336  22.550  0.00  0.00    +0.000 S 
ATOM     19  C   UNL     1      -1.401  11.664  20.909  0.00  0.00    +0.000 A 
ATOM     20  N   UNL     1      -0.670  11.014  20.020  0.00  0.00    +0.000 NA
BRANCH  19  21
ATOM     21  N   UNL     1      -2.468  12.475  20.677  0.00  0.00    +0.000 NA
ATOM     22  C   UNL     1      -3.139  12.306  19.579  0.00  0.00    +0.000 C 
ATOM     23  N   UNL     1      -2.848  11.477  18.526  0.00  0.00    +0.000 N 
ATOM     24  C   UNL     1      -3.883  10.721  17.860  0.00  0.00    +0.000 C 
ATOM     25  C   UNL     1      -5.041  11.637  17.519  0.00  0.00    +0.000 C 
ATOM     26  C   UNL     1      -5.451  12.396  18.770  0.00  0.00    +0.000 C 
ATOM     27  N   UNL     1      -4.293  13.015  19.388  0.00  0.00    +0.000 N 
ATOM     28  H   UNL     1      -2.007  10.929  18.715  0.00  0.00    +0.000 HD
ATOM     29  H   UNL     1      -4.514  13.575  20.205  0.00  0.00    +0.000 HD
ENDBRANCH  19  21
ENDBRANCH   3  16
TORSDOF 5
ENDMDL
MODEL 8
REMARK VINA RESULT:      -7.6      0.947      1.598
REMARK  Name = 
REMARK  5 active torsions:
REMARK  status: ('A' for Active; 'I' for Inactive)
REMARK    1  A    between atoms: C_2  and  O_3
REMARK    2  A    between atoms: C_2  and  C_4
REMARK    3  A    between atoms: C_7  and  C_8
REMARK    4  A    between atoms: C_10  and  C_11
REMARK    5  A    between atoms: C_14  and  N_15
REMARK                            x       y       z     vdW  Elec       q    Type
REMARK                         _______ _______ _______ _____ _____    ______ ____
ROOT
ATOM      1  C   UNL     1       2.848   7.257  18.573  0.00  0.00    +0.000 A 
ATOM      2  N   UNL     1       2.358   8.451  18.293  0.00  0.00    +0.000 NA
ATOM      3  C   UNL     1       1.502   8.861  19.301  0.00  0.00    +0.000 A 
ATOM      4  C   UNL     1       1.323   7.956  20.326  0.00  0.00    +0.000 A 
ATOM      5  S   UNL     1       2.248   6.553  20.032  0.00  0.00    +0.000 S 
ENDROOT
BRANCH   1   9
ATOM      6  C   UNL     1       5.573   5.078  16.065  0.00  0.00    +0.000 A 
ATOM      7  C   UNL     1       5.736   6.457  16.228  0.00  0.00    +0.000 A 
ATOM      8  C   UNL     1       4.858   7.178  17.043  0.00  0.00    +0.000 A 
ATOM      9  C   UNL     1       3.808   6.533  17.719  0.00  0.00    +0.000 A 
ATOM     10  C   UNL     1       3.664   5.145  17.555  0.00  0.00    +0.000 A 
ATOM     11  C   UNL     1       4.546   4.417  16.745  0.00  0.00    +0.000 A 
BRANCH   6  13
ATOM     12  O   UNL     1       7.646   4.786  14.942  0.00  0.00    +0.000 OA
ATOM     13  C   UNL     1       6.531   4.362  15.189  0.00  0.00    +0.000 C 
BRANCH  13  14
ATOM     14  O   UNL     1       6.033   3.229  14.652  0.00  0.00    +0.000 OA
ATOM     15  H   UNL     1       6.614   2.786  14.007  0.00  0.00    +0.000 HD
ENDBRANCH  13  14
ENDBRANCH   6  13
ENDBRANCH   1   9
BRANCH   3  16
ATOM     16  C   UNL     1       0.882  10.189  19.238  0.00  0.00    +0.000 A 
ATOM     17  C   UNL     1       1.503  11.383  18.953  0.00  0.00    +0.000 A 
ATOM     18  S   UNL     1       0.362  12.661  19.040  0.00  0.00    +0.000 S 
ATOM     19  C   UNL     1      -0.879  11.535  19.480  0.00  0.00    +0.000 A 
ATOM     20  N   UNL     1      -0.466  10.279  19.519  0.00  0.00    +0.000 NA
BRANCH  19  21
ATOM     21  N   UNL     1      -2.108  12.017  19.806  0.00  0.00    +0.000 NA
ATOM     22  C   UNL     1      -3.002  12.101  18.868  0.00  0.00    +0.000 C 
ATOM     23  N   UNL     1      -2.846  11.877  17.525  0.00  0.00    +0.000 N 
ATOM     24  C   UNL     1      -3.849  11.173  16.761  0.00  0.00    +0.000 C 
ATOM     25  C   UNL     1      -5.215  11.762  17.054  0.00  0.00    +0.000 C 
ATOM     26  C   UNL     1      -5.416  11.813  18.559  0.00  0.00    +0.000 C 
ATOM     27  N   UNL     1      -4.282  12.452  19.199  0.00  0.00    +0.000 N 
ATOM     28  H   UNL     1      -1.894  11.574  17.314  0.00  0.00    +0.000 HD
ATOM     29  H   UNL     1      -4.382  12.556  20.204  0.00  0.00    +0.000 HD
ENDBRANCH  19  21
ENDBRANCH   3  16
TORSDOF 5
ENDMDL
MODEL 9
REMARK VINA RESULT:      -7.6      0.928      1.121
REMARK  Name = 
REMARK  5 active torsions:
REMARK  status: ('A' for Active; 'I' for Inactive)
REMARK    1  A    between atoms: C_2  and  O_3
REMARK    2  A    between atoms: C_2  and  C_4
REMARK    3  A    between atoms: C_7  and  C_8
REMARK    4  A    between atoms: C_10  and  C_11
REMARK    5  A    between atoms: C_14  and  N_15
REMARK                            x       y       z     vdW  Elec       q    Type
REMARK                         _______ _______ _______ _____ _____    ______ ____
ROOT
ATOM      1  C   UNL     1       2.751   7.270  18.566  0.00  0.00    +0.000 A 
ATOM      2  N   UNL     1       2.242   8.458  18.295  0.00  0.00    +0.000 NA
ATOM      3  C   UNL     1       1.460   8.890  19.351  0.00  0.00    +0.000 A 
ATOM      4  C   UNL     1       1.354   8.008  20.406  0.00  0.00    +0.000 A 
ATOM      5  S   UNL     1       2.257   6.598  20.078  0.00  0.00    +0.000 S 
ENDROOT
BRANCH   1   9
ATOM      6  C   UNL     1       5.425   5.188  15.923  0.00  0.00    +0.000 A 
ATOM      7  C   UNL     1       4.684   4.467  16.864  0.00  0.00    +0.000 A 
ATOM      8  C   UNL     1       3.808   5.132  17.728  0.00  0.00    +0.000 A 
ATOM      9  C   UNL     1       3.649   6.526  17.661  0.00  0.00    +0.000 A 
ATOM     10  C   UNL     1       4.392   7.235  16.702  0.00  0.00    +0.000 A 
ATOM     11  C   UNL     1       5.265   6.572  15.829  0.00  0.00    +0.000 A 
BRANCH   6  13
ATOM     12  O   UNL     1       5.945   3.638  14.199  0.00  0.00    +0.000 OA
ATOM     13  C   UNL     1       6.340   4.434  15.031  0.00  0.00    +0.000 C 
BRANCH  13  14
ATOM     14  O   UNL     1       7.646   4.674  15.267  0.00  0.00    +0.000 OA
ATOM     15  H   UNL     1       8.194   4.798  14.470  0.00  0.00    +0.000 HD
ENDBRANCH  13  14
ENDBRANCH   6  13
ENDBRANCH   1   9
BRANCH   3  16
ATOM     16  C   UNL     1       0.835  10.217  19.304  0.00  0.00    +0.000 A 
ATOM     17  C   UNL     1       1.458  11.419  19.059  0.00  0.00    +0.000 A 
ATOM     18  S   UNL     1       0.310  12.690  19.147  0.00  0.00    +0.000 S 
ATOM     19  C   UNL     1      -0.936  11.551  19.536  0.00  0.00    +0.000 A 
ATOM     20  N   UNL     1      -0.519  10.296  19.556  0.00  0.00    +0.000 NA
BRANCH  19  21
ATOM     21  N   UNL     1      -2.173  12.021  19.844  0.00  0.00    +0.000 NA
ATOM     22  C   UNL     1      -3.050  12.114  18.891  0.00  0.00    +0.000 C 
ATOM     23  N   UNL     1      -2.867  11.910  17.548  0.00  0.00    +0.000 N 
ATOM     24  C   UNL     1      -3.851  11.211  16.755  0.00  0.00    +0.000 C 
ATOM     25  C   UNL     1      -5.226  11.788  17.029  0.00  0.00    +0.000 C 
ATOM     26  C   UNL     1      -5.456  11.817  18.530  0.00  0.00    +0.000 C 
ATOM     27  N   UNL     1      -4.338  12.453  19.202  0.00  0.00    +0.000 N 
ATOM     28  H   UNL     1      -1.909  11.615  17.351  0.00  0.00    +0.000 HD
ATOM     29  H   UNL     1      -4.458  12.542  20.205  0.00  0.00    +0.000 HD
ENDBRANCH  19  21
ENDBRANCH   3  16
TORSDOF 5
ENDMDL
