MODEL 1
REMARK VINA RESULT:      -8.4      0.000      0.000
REMARK  Name = 
REMARK  4 active torsions:
REMARK  status: ('A' for Active; 'I' for Inactive)
REMARK    1  A    between atoms: C_1  and  C_2
REMARK    2  A    between atoms: C_5  and  C_6
REMARK    3  A    between atoms: C_12  and  C_13
REMARK    4  A    between atoms: C_13  and  N_14
REMARK                            x       y       z     vdW  Elec       q    Type
REMARK                         _______ _______ _______ _____ _____    ______ ____
ROOT
ATOM      1  C   UNL     1       6.354   4.757  15.487  0.00  0.00    +0.000 A 
ATOM      2  N   UNL     1       7.322   4.598  16.410  0.00  0.00    +0.000 NA
ATOM      3  C   UNL     1       7.024   4.813  17.702  0.00  0.00    +0.000 A 
ATOM      4  N   UNL     1       8.040   4.623  18.627  0.00  0.00    +0.000 N 
ATOM      5  C   UNL     1       5.722   5.207  18.056  0.00  0.00    +0.000 A 
ATOM      6  C   UNL     1       5.077   5.500  19.305  0.00  0.00    +0.000 A 
ATOM      7  C   UNL     1       3.741   5.827  19.159  0.00  0.00    +0.000 A 
ATOM      8  S   UNL     1       3.270   5.794  17.513  0.00  0.00    +0.000 S 
ATOM      9  C   UNL     1       4.827   5.338  17.008  0.00  0.00    +0.000 A 
ATOM     10  N   UNL     1       5.083   5.134  15.705  0.00  0.00    +0.000 NA
ATOM     11  H   UNL     1       8.947   4.611  18.172  0.00  0.00    +0.000 HD
ATOM     12  H   UNL     1       7.968   5.155  19.482  0.00  0.00    +0.000 HD
ENDROOT
BRANCH   1  17
ATOM     13  C   UNL     1       5.897   2.313  11.351  0.00  0.00    +0.000 C 
ATOM     14  C   UNL     1       6.471   3.377  12.198  0.00  0.00    +0.000 A 
ATOM     15  C   UNL     1       7.379   4.384  11.961  0.00  0.00    +0.000 A 
ATOM     16  C   UNL     1       7.510   5.090  13.179  0.00  0.00    +0.000 A 
ATOM     17  C   UNL     1       6.674   4.476  14.094  0.00  0.00    +0.000 A 
ATOM     18  O   UNL     1       6.043   3.420  13.491  0.00  0.00    +0.000 OA
ENDBRANCH   1  17
BRANCH   7  19
ATOM     19  C   UNL     1       2.726   6.136  20.223  0.00  0.00    +0.000 C 
BRANCH  19  20
ATOM     20  N   UNL     1       1.804   5.012  20.517  0.00  0.00    +0.000 NA
ATOM     21  C   UNL     1       1.430   4.315  19.272  0.00  0.00    +0.000 C 
ATOM     22  C   UNL     1       0.713   2.981  19.492  0.00  0.00    +0.000 C 
ATOM     23  C   UNL     1       1.519   2.073  20.406  0.00  0.00    +0.000 C 
ATOM     24  C   UNL     1       1.757   2.792  21.725  0.00  0.00    +0.000 C 
ATOM     25  C   UNL     1       2.466   4.125  21.494  0.00  0.00    +0.000 C 
ENDBRANCH  19  20
ENDBRANCH   7  19
TORSDOF 3
ENDMDL
MODEL 2
REMARK VINA RESULT:      -8.0      4.211      5.754
REMARK  Name = 
REMARK  4 active torsions:
REMARK  status: ('A' for Active; 'I' for Inactive)
REMARK    1  A    between atoms: C_1  and  C_2
REMARK    2  A    between atoms: C_5  and  C_6
REMARK    3  A    between atoms: C_12  and  C_13
REMARK    4  A    between atoms: C_13  and  N_14
REMARK                            x       y       z     vdW  Elec       q    Type
REMARK                         _______ _______ _______ _____ _____    ______ ____
ROOT
ATOM      1  C   UNL     1       8.030   8.278  18.297  0.00  0.00    +0.000 A 
ATOM      2  N   UNL     1       8.507   7.352  19.151  0.00  0.00    +0.000 NA
ATOM      3  C   UNL     1       7.992   6.111  19.111  0.00  0.00    +0.000 A 
ATOM      4  N   UNL     1       8.519   5.179  19.993  0.00  0.00    +0.000 N 
ATOM      5  C   UNL     1       6.969   5.815  18.194  0.00  0.00    +0.000 A 
ATOM      6  C   UNL     1       6.224   4.628  17.885  0.00  0.00    +0.000 A 
ATOM      7  C   UNL     1       5.314   4.812  16.860  0.00  0.00    +0.000 A 
ATOM      8  S   UNL     1       5.348   6.424  16.283  0.00  0.00    +0.000 S 
ATOM      9  C   UNL     1       6.570   6.861  17.380  0.00  0.00    +0.000 A 
ATOM     10  N   UNL     1       7.056   8.114  17.387  0.00  0.00    +0.000 NA
ATOM     11  H   UNL     1       9.034   5.634  20.738  0.00  0.00    +0.000 HD
ATOM     12  H   UNL     1       7.903   4.424  20.262  0.00  0.00    +0.000 HD
ENDROOT
BRANCH   1  17
ATOM     13  C   UNL     1      10.977  11.673  20.051  0.00  0.00    +0.000 C 
ATOM     14  C   UNL     1       9.972  11.164  19.099  0.00  0.00    +0.000 A 
ATOM     15  C   UNL     1       9.356  11.710  17.995  0.00  0.00    +0.000 A 
ATOM     16  C   UNL     1       8.491  10.710  17.492  0.00  0.00    +0.000 A 
ATOM     17  C   UNL     1       8.626   9.607  18.316  0.00  0.00    +0.000 A 
ATOM     18  O   UNL     1       9.530   9.891  19.306  0.00  0.00    +0.000 OA
ENDBRANCH   1  17
BRANCH   7  19
ATOM     19  C   UNL     1       4.402   3.805  16.218  0.00  0.00    +0.000 C 
BRANCH  19  20
ATOM     20  N   UNL     1       3.213   3.466  17.037  0.00  0.00    +0.000 NA
ATOM     21  C   UNL     1       3.496   2.300  17.894  0.00  0.00    +0.000 C 
ATOM     22  C   UNL     1       2.440   2.044  18.972  0.00  0.00    +0.000 C 
ATOM     23  C   UNL     1       2.197   3.292  19.806  0.00  0.00    +0.000 C 
ATOM     24  C   UNL     1       1.776   4.424  18.882  0.00  0.00    +0.000 C 
ATOM     25  C   UNL     1       2.833   4.667  17.806  0.00  0.00    +0.000 C 
ENDBRANCH  19  20
ENDBRANCH   7  19
TORSDOF 3
ENDMDL
MODEL 3
REMARK VINA RESULT:      -7.9      4.676      8.911
REMARK  Name = 
REMARK  4 active torsions:
REMARK  status: ('A' for Active; 'I' for Inactive)
REMARK    1  A    between atoms: C_1  and  C_2
REMARK    2  A    between atoms: C_5  and  C_6
REMARK    3  A    between atoms: C_12  and  C_13
REMARK    4  A    between atoms: C_13  and  N_14
REMARK                            x       y       z     vdW  Elec       q    Type
REMARK                         _______ _______ _______ _____ _____    ______ ____
ROOT
ATOM      1  C   UNL     1       0.840   9.133  20.623  0.00  0.00    +0.000 A 
ATOM      2  N   UNL     1       1.130   9.775  19.475  0.00  0.00    +0.000 NA
ATOM      3  C   UNL     1       1.842   9.128  18.537  0.00  0.00    +0.000 A 
ATOM      4  N   UNL     1       2.108   9.813  17.360  0.00  0.00    +0.000 N 
ATOM      5  C   UNL     1       2.274   7.812  18.779  0.00  0.00    +0.000 A 
ATOM      6  C   UNL     1       3.020   6.854  18.014  0.00  0.00    +0.000 A 
ATOM      7  C   UNL     1       3.182   5.647  18.669  0.00  0.00    +0.000 A 
ATOM      8  S   UNL     1       2.446   5.677  20.216  0.00  0.00    +0.000 S 
ATOM      9  C   UNL     1       1.910   7.276  20.002  0.00  0.00    +0.000 A 
ATOM     10  N   UNL     1       1.200   7.885  20.967  0.00  0.00    +0.000 NA
ATOM     11  H   UNL     1       1.961  10.809  17.479  0.00  0.00    +0.000 HD
ATOM     12  H   UNL     1       2.941   9.533  16.862  0.00  0.00    +0.000 HD
ENDROOT
BRANCH   1  17
ATOM     13  C   UNL     1      -1.922  12.773  22.176  0.00  0.00    +0.000 C 
ATOM     14  C   UNL     1      -1.241  11.473  22.336  0.00  0.00    +0.000 A 
ATOM     15  C   UNL     1      -1.189  10.555  23.360  0.00  0.00    +0.000 A 
ATOM     16  C   UNL     1      -0.374   9.496  22.897  0.00  0.00    +0.000 A 
ATOM     17  C   UNL     1       0.027   9.825  21.615  0.00  0.00    +0.000 A 
ATOM     18  O   UNL     1      -0.501  11.043  21.275  0.00  0.00    +0.000 OA
ENDBRANCH   1  17
BRANCH   7  19
ATOM     19  C   UNL     1       3.845   4.391  18.179  0.00  0.00    +0.000 C 
BRANCH  19  20
ATOM     20  N   UNL     1       5.313   4.517  18.005  0.00  0.00    +0.000 NA
ATOM     21  C   UNL     1       5.622   5.180  16.724  0.00  0.00    +0.000 C 
ATOM     22  C   UNL     1       7.084   5.608  16.577  0.00  0.00    +0.000 C 
ATOM     23  C   UNL     1       7.524   6.461  17.755  0.00  0.00    +0.000 C 
ATOM     24  C   UNL     1       7.309   5.674  19.038  0.00  0.00    +0.000 C 
ATOM     25  C   UNL     1       5.848   5.245  19.172  0.00  0.00    +0.000 C 
ENDBRANCH  19  20
ENDBRANCH   7  19
TORSDOF 3
ENDMDL
MODEL 4
REMARK VINA RESULT:      -7.9      3.145      8.151
REMARK  Name = 
REMARK  4 active torsions:
REMARK  status: ('A' for Active; 'I' for Inactive)
REMARK    1  A    between atoms: C_1  and  C_2
REMARK    2  A    between atoms: C_5  and  C_6
REMARK    3  A    between atoms: C_12  and  C_13
REMARK    4  A    between atoms: C_13  and  N_14
REMARK                            x       y       z     vdW  Elec       q    Type
REMARK                         _______ _______ _______ _____ _____    ______ ____
ROOT
ATOM      1  C   UNL     1       2.320   7.071  19.563  0.00  0.00    +0.000 A 
ATOM      2  N   UNL     1       2.213   5.881  20.184  0.00  0.00    +0.000 NA
ATOM      3  C   UNL     1       2.969   4.857  19.752  0.00  0.00    +0.000 A 
ATOM      4  N   UNL     1       2.846   3.651  20.426  0.00  0.00    +0.000 N 
ATOM      5  C   UNL     1       3.837   5.048  18.662  0.00  0.00    +0.000 A 
ATOM      6  C   UNL     1       4.765   4.201  17.971  0.00  0.00    +0.000 A 
ATOM      7  C   UNL     1       5.436   4.852  16.951  0.00  0.00    +0.000 A 
ATOM      8  S   UNL     1       4.930   6.483  16.819  0.00  0.00    +0.000 S 
ATOM      9  C   UNL     1       3.842   6.320  18.115  0.00  0.00    +0.000 A 
ATOM     10  N   UNL     1       3.105   7.370  18.515  0.00  0.00    +0.000 NA
ATOM     11  H   UNL     1       1.998   3.631  20.983  0.00  0.00    +0.000 HD
ATOM     12  H   UNL     1       3.058   2.820  19.892  0.00  0.00    +0.000 HD
ENDROOT
BRANCH   1  17
ATOM     13  C   UNL     1      -0.003   9.514  23.017  0.00  0.00    +0.000 C 
ATOM     14  C   UNL     1       0.476   9.318  21.634  0.00  0.00    +0.000 A 
ATOM     15  C   UNL     1       0.381  10.073  20.487  0.00  0.00    +0.000 A 
ATOM     16  C   UNL     1       1.059   9.347  19.481  0.00  0.00    +0.000 A 
ATOM     17  C   UNL     1       1.532   8.187  20.068  0.00  0.00    +0.000 A 
ATOM     18  O   UNL     1       1.166   8.169  21.389  0.00  0.00    +0.000 OA
ENDBRANCH   1  17
BRANCH   7  19
ATOM     19  C   UNL     1       6.515   4.326  16.048  0.00  0.00    +0.000 C 
BRANCH  19  20
ATOM     20  N   UNL     1       6.308   4.651  14.615  0.00  0.00    +0.000 NA
ATOM     21  C   UNL     1       7.569   5.118  14.008  0.00  0.00    +0.000 C 
ATOM     22  C   UNL     1       7.532   5.210  12.481  0.00  0.00    +0.000 C 
ATOM     23  C   UNL     1       7.081   3.896  11.865  0.00  0.00    +0.000 C 
ATOM     24  C   UNL     1       5.715   3.535  12.426  0.00  0.00    +0.000 C 
ATOM     25  C   UNL     1       5.760   3.452  13.952  0.00  0.00    +0.000 C 
ENDBRANCH  19  20
ENDBRANCH   7  19
TORSDOF 3
ENDMDL
MODEL 5
REMARK VINA RESULT:      -7.9      4.417      5.951
REMARK  Name = 
REMARK  4 active torsions:
REMARK  status: ('A' for Active; 'I' for Inactive)
REMARK    1  A    between atoms: C_1  and  C_2
REMARK    2  A    between atoms: C_5  and  C_6
REMARK    3  A    between atoms: C_12  and  C_13
REMARK    4  A    between atoms: C_13  and  N_14
REMARK                            x       y       z     vdW  Elec       q    Type
REMARK                         _______ _______ _______ _____ _____    ______ ____
ROOT
ATOM      1  C   UNL     1       4.019   6.235  18.084  0.00  0.00    +0.000 A 
ATOM      2  N   UNL     1       3.511   5.665  19.193  0.00  0.00    +0.000 NA
ATOM      3  C   UNL     1       2.556   6.320  19.875  0.00  0.00    +0.000 A 
ATOM      4  N   UNL     1       2.043   5.696  21.003  0.00  0.00    +0.000 N 
ATOM      5  C   UNL     1       2.123   7.580  19.425  0.00  0.00    +0.000 A 
ATOM      6  C   UNL     1       1.145   8.520  19.893  0.00  0.00    +0.000 A 
ATOM      7  C   UNL     1       1.045   9.641  19.089  0.00  0.00    +0.000 A 
ATOM      8  S   UNL     1       2.146   9.564  17.779  0.00  0.00    +0.000 S 
ATOM      9  C   UNL     1       2.734   8.050  18.275  0.00  0.00    +0.000 A 
ATOM     10  N   UNL     1       3.690   7.429  17.563  0.00  0.00    +0.000 NA
ATOM     11  H   UNL     1       2.654   4.949  21.314  0.00  0.00    +0.000 HD
ATOM     12  H   UNL     1       1.671   6.306  21.718  0.00  0.00    +0.000 HD
ENDROOT
BRANCH   1  17
ATOM     13  C   UNL     1       5.750   4.154  14.089  0.00  0.00    +0.000 C 
ATOM     14  C   UNL     1       5.827   4.550  15.508  0.00  0.00    +0.000 A 
ATOM     15  C   UNL     1       6.793   4.404  16.478  0.00  0.00    +0.000 A 
ATOM     16  C   UNL     1       6.274   5.012  17.645  0.00  0.00    +0.000 A 
ATOM     17  C   UNL     1       5.019   5.497  17.324  0.00  0.00    +0.000 A 
ATOM     18  O   UNL     1       4.744   5.205  16.014  0.00  0.00    +0.000 OA
ENDBRANCH   1  17
BRANCH   7  19
ATOM     19  C   UNL     1       0.106  10.807  19.212  0.00  0.00    +0.000 C 
BRANCH  19  20
ATOM     20  N   UNL     1      -1.299  10.486  18.861  0.00  0.00    +0.000 NA
ATOM     21  C   UNL     1      -2.162  11.664  19.069  0.00  0.00    +0.000 C 
ATOM     22  C   UNL     1      -3.565  11.524  18.475  0.00  0.00    +0.000 C 
ATOM     23  C   UNL     1      -3.501  11.145  17.005  0.00  0.00    +0.000 C 
ATOM     24  C   UNL     1      -2.716   9.850  16.867  0.00  0.00    +0.000 C 
ATOM     25  C   UNL     1      -1.318   9.998  17.468  0.00  0.00    +0.000 C 
ENDBRANCH  19  20
ENDBRANCH   7  19
TORSDOF 3
ENDMDL
MODEL 6
REMARK VINA RESULT:      -7.8      4.133      5.569
REMARK  Name = 
REMARK  4 active torsions:
REMARK  status: ('A' for Active; 'I' for Inactive)
REMARK    1  A    between atoms: C_1  and  C_2
REMARK    2  A    between atoms: C_5  and  C_6
REMARK    3  A    between atoms: C_12  and  C_13
REMARK    4  A    between atoms: C_13  and  N_14
REMARK                            x       y       z     vdW  Elec       q    Type
REMARK                         _______ _______ _______ _____ _____    ______ ____
ROOT
ATOM      1  C   UNL     1       8.008   8.303  18.238  0.00  0.00    +0.000 A 
ATOM      2  N   UNL     1       8.494   7.396  19.107  0.00  0.00    +0.000 NA
ATOM      3  C   UNL     1       7.994   6.148  19.084  0.00  0.00    +0.000 A 
ATOM      4  N   UNL     1       8.530   5.236  19.982  0.00  0.00    +0.000 N 
ATOM      5  C   UNL     1       6.977   5.826  18.169  0.00  0.00    +0.000 A 
ATOM      6  C   UNL     1       6.249   4.625  17.876  0.00  0.00    +0.000 A 
ATOM      7  C   UNL     1       5.339   4.782  16.846  0.00  0.00    +0.000 A 
ATOM      8  S   UNL     1       5.354   6.386  16.245  0.00  0.00    +0.000 S 
ATOM      9  C   UNL     1       6.568   6.855  17.338  0.00  0.00    +0.000 A 
ATOM     10  N   UNL     1       7.039   8.113  17.327  0.00  0.00    +0.000 NA
ATOM     11  H   UNL     1       9.038   5.709  20.721  0.00  0.00    +0.000 HD
ATOM     12  H   UNL     1       7.923   4.478  20.260  0.00  0.00    +0.000 HD
ENDROOT
BRANCH   1  17
ATOM     13  C   UNL     1       8.014  13.015  17.198  0.00  0.00    +0.000 C 
ATOM     14  C   UNL     1       8.602  11.792  17.779  0.00  0.00    +0.000 A 
ATOM     15  C   UNL     1       9.760  11.543  18.481  0.00  0.00    +0.000 A 
ATOM     16  C   UNL     1       9.751  10.160  18.776  0.00  0.00    +0.000 A 
ATOM     17  C   UNL     1       8.587   9.639  18.238  0.00  0.00    +0.000 A 
ATOM     18  O   UNL     1       7.888  10.643  17.620  0.00  0.00    +0.000 OA
ENDBRANCH   1  17
BRANCH   7  19
ATOM     19  C   UNL     1       4.442   3.755  16.217  0.00  0.00    +0.000 C 
BRANCH  19  20
ATOM     20  N   UNL     1       3.238   3.435  17.023  0.00  0.00    +0.000 NA
ATOM     21  C   UNL     1       3.500   2.278  17.900  0.00  0.00    +0.000 C 
ATOM     22  C   UNL     1       2.427   2.045  18.966  0.00  0.00    +0.000 C 
ATOM     23  C   UNL     1       2.183   3.305  19.780  0.00  0.00    +0.000 C 
ATOM     24  C   UNL     1       1.784   4.428  18.837  0.00  0.00    +0.000 C 
ATOM     25  C   UNL     1       2.858   4.649  17.772  0.00  0.00    +0.000 C 
ENDBRANCH  19  20
ENDBRANCH   7  19
TORSDOF 3
ENDMDL
MODEL 7
REMARK VINA RESULT:      -7.8      3.037      7.989
REMARK  Name = 
REMARK  4 active torsions:
REMARK  status: ('A' for Active; 'I' for Inactive)
REMARK    1  A    between atoms: C_1  and  C_2
REMARK    2  A    between atoms: C_5  and  C_6
REMARK    3  A    between atoms: C_12  and  C_13
REMARK    4  A    between atoms: C_13  and  N_14
REMARK                            x       y       z     vdW  Elec       q    Type
REMARK                         _______ _______ _______ _____ _____    ______ ____
ROOT
ATOM      1  C   UNL     1       2.391   7.052  19.539  0.00  0.00    +0.000 A 
ATOM      2  N   UNL     1       2.303   5.857  20.154  0.00  0.00    +0.000 NA
ATOM      3  C   UNL     1       3.072   4.846  19.713  0.00  0.00    +0.000 A 
ATOM      4  N   UNL     1       2.969   3.635  20.380  0.00  0.00    +0.000 N 
ATOM      5  C   UNL     1       3.934   5.056  18.622  0.00  0.00    +0.000 A 
ATOM      6  C   UNL     1       4.872   4.226  17.923  0.00  0.00    +0.000 A 
ATOM      7  C   UNL     1       5.530   4.893  16.905  0.00  0.00    +0.000 A 
ATOM      8  S   UNL     1       5.000   6.517  16.784  0.00  0.00    +0.000 S 
ATOM      9  C   UNL     1       3.919   6.331  18.082  0.00  0.00    +0.000 A 
ATOM     10  N   UNL     1       3.169   7.368  18.491  0.00  0.00    +0.000 NA
ATOM     11  H   UNL     1       2.123   3.599  20.939  0.00  0.00    +0.000 HD
ATOM     12  H   UNL     1       3.191   2.810  19.841  0.00  0.00    +0.000 HD
ENDROOT
BRANCH   1  17
ATOM     13  C   UNL     1      -0.163  11.121  19.090  0.00  0.00    +0.000 C 
ATOM     14  C   UNL     1       0.413  10.005  19.864  0.00  0.00    +0.000 A 
ATOM     15  C   UNL     1       0.353   9.648  21.193  0.00  0.00    +0.000 A 
ATOM     16  C   UNL     1       1.109   8.459  21.315  0.00  0.00    +0.000 A 
ATOM     17  C   UNL     1       1.589   8.153  20.053  0.00  0.00    +0.000 A 
ATOM     18  O   UNL     1       1.166   9.109  19.166  0.00  0.00    +0.000 OA
ENDBRANCH   1  17
BRANCH   7  19
ATOM     19  C   UNL     1       6.614   4.388  15.995  0.00  0.00    +0.000 C 
BRANCH  19  20
ATOM     20  N   UNL     1       6.380   4.686  14.561  0.00  0.00    +0.000 NA
ATOM     21  C   UNL     1       7.627   5.145  13.922  0.00  0.00    +0.000 C 
ATOM     22  C   UNL     1       7.562   5.209  12.394  0.00  0.00    +0.000 C 
ATOM     23  C   UNL     1       7.103   3.882  11.812  0.00  0.00    +0.000 C 
ATOM     24  C   UNL     1       5.749   3.529  12.405  0.00  0.00    +0.000 C 
ATOM     25  C   UNL     1       5.823   3.474  13.930  0.00  0.00    +0.000 C 
ENDBRANCH  19  20
ENDBRANCH   7  19
TORSDOF 3
ENDMDL
MODEL 8
REMARK VINA RESULT:      -7.7      3.878      5.380
REMARK  Name = 
REMARK  4 active torsions:
REMARK  status: ('A' for Active; 'I' for Inactive)
REMARK    1  A    between atoms: C_1  and  C_2
REMARK    2  A    between atoms: C_5  and  C_6
REMARK    3  A    between atoms: C_12  and  C_13
REMARK    4  A    between atoms: C_13  and  N_14
REMARK                            x       y       z     vdW  Elec       q    Type
REMARK                         _______ _______ _______ _____ _____    ______ ____
ROOT
ATOM      1  C   UNL     1       4.410   6.071  17.768  0.00  0.00    +0.000 A 
ATOM      2  N   UNL     1       4.058   5.392  18.877  0.00  0.00    +0.000 NA
ATOM      3  C   UNL     1       3.103   5.904  19.671  0.00  0.00    +0.000 A 
ATOM      4  N   UNL     1       2.753   5.170  20.795  0.00  0.00    +0.000 N 
ATOM      5  C   UNL     1       2.508   7.133  19.335  0.00  0.00    +0.000 A 
ATOM      6  C   UNL     1       1.482   7.937  19.935  0.00  0.00    +0.000 A 
ATOM      7  C   UNL     1       1.200   9.082  19.212  0.00  0.00    +0.000 A 
ATOM      8  S   UNL     1       2.189   9.193  17.817  0.00  0.00    +0.000 S 
ATOM      9  C   UNL     1       2.968   7.725  18.172  0.00  0.00    +0.000 A 
ATOM     10  N   UNL     1       3.919   7.249  17.350  0.00  0.00    +0.000 NA
ATOM     11  H   UNL     1       3.462   4.476  21.010  0.00  0.00    +0.000 HD
ATOM     12  H   UNL     1       2.383   5.698  21.573  0.00  0.00    +0.000 HD
ENDROOT
BRANCH   1  17
ATOM     13  C   UNL     1       5.864   3.867  13.728  0.00  0.00    +0.000 C 
ATOM     14  C   UNL     1       6.093   4.488  15.048  0.00  0.00    +0.000 A 
ATOM     15  C   UNL     1       7.226   4.732  15.791  0.00  0.00    +0.000 A 
ATOM     16  C   UNL     1       6.789   5.372  16.974  0.00  0.00    +0.000 A 
ATOM     17  C   UNL     1       5.413   5.485  16.889  0.00  0.00    +0.000 A 
ATOM     18  O   UNL     1       4.988   4.934  15.708  0.00  0.00    +0.000 OA
ENDBRANCH   1  17
BRANCH   7  19
ATOM     19  C   UNL     1       0.162  10.134  19.480  0.00  0.00    +0.000 C 
BRANCH  19  20
ATOM     20  N   UNL     1       0.200  10.676  20.861  0.00  0.00    +0.000 NA
ATOM     21  C   UNL     1      -0.407  12.019  20.902  0.00  0.00    +0.000 C 
ATOM     22  C   UNL     1      -0.669  12.545  22.315  0.00  0.00    +0.000 C 
ATOM     23  C   UNL     1      -1.484  11.551  23.125  0.00  0.00    +0.000 C 
ATOM     24  C   UNL     1      -0.742  10.224  23.162  0.00  0.00    +0.000 C 
ATOM     25  C   UNL     1      -0.479   9.711  21.747  0.00  0.00    +0.000 C 
ENDBRANCH  19  20
ENDBRANCH   7  19
TORSDOF 3
ENDMDL
MODEL 9
REMARK VINA RESULT:      -7.6      3.761      5.144
REMARK  Name = 
REMARK  4 active torsions:
REMARK  status: ('A' for Active; 'I' for Inactive)
REMARK    1  A    between atoms: C_1  and  C_2
REMARK    2  A    between atoms: C_5  and  C_6
REMARK    3  A    between atoms: C_12  and  C_13
REMARK    4  A    between atoms: C_13  and  N_14
REMARK                            x       y       z     vdW  Elec       q    Type
REMARK                         _______ _______ _______ _____ _____    ______ ____
ROOT
ATOM      1  C   UNL     1       4.704   5.533  17.068  0.00  0.00    +0.000 A 
ATOM      2  N   UNL     1       4.469   4.678  18.082  0.00  0.00    +0.000 NA
ATOM      3  C   UNL     1       3.631   5.055  19.063  0.00  0.00    +0.000 A 
ATOM      4  N   UNL     1       3.399   4.144  20.082  0.00  0.00    +0.000 N 
ATOM      5  C   UNL     1       3.034   6.327  19.013  0.00  0.00    +0.000 A 
ATOM      6  C   UNL     1       2.111   7.025  19.861  0.00  0.00    +0.000 A 
ATOM      7  C   UNL     1       1.777   8.279  19.381  0.00  0.00    +0.000 A 
ATOM      8  S   UNL     1       2.593   8.618  17.914  0.00  0.00    +0.000 S 
ATOM      9  C   UNL     1       3.368   7.105  17.918  0.00  0.00    +0.000 A 
ATOM     10  N   UNL     1       4.199   6.768  16.917  0.00  0.00    +0.000 NA
ATOM     11  H   UNL     1       4.108   3.418  20.089  0.00  0.00    +0.000 HD
ATOM     12  H   UNL     1       3.140   4.534  20.977  0.00  0.00    +0.000 HD
ENDROOT
BRANCH   1  17
ATOM     13  C   UNL     1       5.601   3.468  12.799  0.00  0.00    +0.000 C 
ATOM     14  C   UNL     1       6.001   4.166  14.036  0.00  0.00    +0.000 A 
ATOM     15  C   UNL     1       7.208   4.630  14.510  0.00  0.00    +0.000 A 
ATOM     16  C   UNL     1       6.935   5.228  15.762  0.00  0.00    +0.000 A 
ATOM     17  C   UNL     1       5.576   5.098  15.986  0.00  0.00    +0.000 A 
ATOM     18  O   UNL     1       5.006   4.438  14.927  0.00  0.00    +0.000 OA
ENDBRANCH   1  17
BRANCH   7  19
ATOM     19  C   UNL     1       0.808   9.277  19.948  0.00  0.00    +0.000 C 
BRANCH  19  20
ATOM     20  N   UNL     1       0.454  10.369  19.008  0.00  0.00    +0.000 NA
ATOM     21  C   UNL     1      -1.007  10.426  18.815  0.00  0.00    +0.000 C 
ATOM     22  C   UNL     1      -1.495  11.683  18.091  0.00  0.00    +0.000 C 
ATOM     23  C   UNL     1      -0.984  12.939  18.776  0.00  0.00    +0.000 C 
ATOM     24  C   UNL     1       0.535  12.888  18.824  0.00  0.00    +0.000 C 
ATOM     25  C   UNL     1       1.012  11.627  19.542  0.00  0.00    +0.000 C 
ENDBRANCH  19  20
ENDBRANCH   7  19
TORSDOF 3
ENDMDL
