MODEL 1
REMARK VINA RESULT:      -7.3      0.000      0.000
REMARK  Name = 
REMARK  9 active torsions:
REMARK  status: ('A' for Active; 'I' for Inactive)
REMARK    1  A    between atoms: C_1  and  N_2
REMARK    2  A    between atoms: N_2  and  C_3
REMARK    3  A    between atoms: C_3  and  C_4
REMARK    4  A    between atoms: C_4  and  C_5
REMARK    5  A    between atoms: C_4  and  O_24
REMARK    6  A    between atoms: C_5  and  C_6
REMARK    7  A    between atoms: C_6  and  N_7
REMARK    8  A    between atoms: N_14  and  C_15
REMARK    9  A    between atoms: O_24  and  C_25
REMARK                            x       y       z     vdW  Elec       q    Type
REMARK                         _______ _______ _______ _____ _____    ______ ____
ROOT
ATOM      1  N   UNL     1       5.343   4.630  17.451  0.00  0.00    +0.000 N 
ATOM      2  C   UNL     1       4.049   4.000  17.559  0.00  0.00    +0.000 A 
ATOM      3  C   UNL     1       3.783   2.645  17.418  0.00  0.00    +0.000 A 
ATOM      4  C   UNL     1       2.508   2.171  17.742  0.00  0.00    +0.000 A 
ATOM      5  C   UNL     1       1.526   3.040  18.239  0.00  0.00    +0.000 A 
ATOM      6  C   UNL     1       1.812   4.393  18.435  0.00  0.00    +0.000 A 
ATOM      7  C   UNL     1       3.067   4.866  18.077  0.00  0.00    +0.000 A 
ATOM      8  N   UNL     1       3.607   6.152  18.412  0.00  0.00    +0.000 N 
ATOM      9  S   UNL     1       5.016   6.323  17.459  0.00  0.00    +0.000 S 
ATOM     10  O   UNL     1       4.644   6.716  16.116  0.00  0.00    +0.000 OA
ATOM     11  O   UNL     1       6.048   7.015  18.197  0.00  0.00    +0.000 OA
ENDROOT
BRANCH   8  12
ATOM     12  C   UNL     1       2.782   7.298  18.563  0.00  0.00    +0.000 A 
ATOM     13  C   UNL     1       2.612   8.255  17.557  0.00  0.00    +0.000 A 
ATOM     14  C   UNL     1       1.791   9.360  17.783  0.00  0.00    +0.000 A 
ATOM     15  C   UNL     1       1.166   9.530  19.022  0.00  0.00    +0.000 A 
ATOM     16  C   UNL     1       1.376   8.601  20.044  0.00  0.00    +0.000 A 
ATOM     17  C   UNL     1       2.191   7.494  19.816  0.00  0.00    +0.000 A 
ENDBRANCH   8  12
BRANCH   1  18
ATOM     18  C   UNL     1       6.338   4.167  16.461  0.00  0.00    +0.000 C 
BRANCH  18  19
ATOM     19  C   UNL     1       5.641   3.941  15.120  0.00  0.00    +0.000 C 
BRANCH  19  20
ATOM     20  C   UNL     1       6.552   4.055  13.889  0.00  0.00    +0.000 C 
BRANCH  20  21
ATOM     21  O   UNL     1       7.134   5.355  13.733  0.00  0.00    +0.000 OA
ATOM     22  C   UNL     1       8.185   5.432  12.780  0.00  0.00    +0.000 C 
ENDBRANCH  20  21
BRANCH  20  23
ATOM     23  C   UNL     1       5.842   3.644  12.566  0.00  0.00    +0.000 C 
BRANCH  23  25
ATOM     24  C   UNL     1       7.190   2.142  11.193  0.00  0.00    +0.000 C 
ATOM     25  N   UNL     1       6.024   2.270  12.064  0.00  0.00    +0.000 NA
ATOM     26  H   UNL     1       6.166   1.656  12.868  0.00  0.00    +0.000 HD
ENDBRANCH  23  25
ENDBRANCH  20  23
ENDBRANCH  19  20
ENDBRANCH  18  19
ENDBRANCH   1  18
TORSDOF 7
ENDMDL
MODEL 2
REMARK VINA RESULT:      -7.0      2.858      3.990
REMARK  Name = 
REMARK  9 active torsions:
REMARK  status: ('A' for Active; 'I' for Inactive)
REMARK    1  A    between atoms: C_1  and  N_2
REMARK    2  A    between atoms: N_2  and  C_3
REMARK    3  A    between atoms: C_3  and  C_4
REMARK    4  A    between atoms: C_4  and  C_5
REMARK    5  A    between atoms: C_4  and  O_24
REMARK    6  A    between atoms: C_5  and  C_6
REMARK    7  A    between atoms: C_6  and  N_7
REMARK    8  A    between atoms: N_14  and  C_15
REMARK    9  A    between atoms: O_24  and  C_25
REMARK                            x       y       z     vdW  Elec       q    Type
REMARK                         _______ _______ _______ _____ _____    ______ ____
ROOT
ATOM      1  N   UNL     1       5.089   4.046  16.245  0.00  0.00    +0.000 N 
ATOM      2  C   UNL     1       5.935   4.494  17.324  0.00  0.00    +0.000 A 
ATOM      3  C   UNL     1       7.208   5.033  17.197  0.00  0.00    +0.000 A 
ATOM      4  C   UNL     1       7.818   5.594  18.323  0.00  0.00    +0.000 A 
ATOM      5  C   UNL     1       7.143   5.651  19.550  0.00  0.00    +0.000 A 
ATOM      6  C   UNL     1       5.840   5.161  19.664  0.00  0.00    +0.000 A 
ATOM      7  C   UNL     1       5.252   4.571  18.553  0.00  0.00    +0.000 A 
ATOM      8  N   UNL     1       3.866   4.224  18.419  0.00  0.00    +0.000 N 
ATOM      9  S   UNL     1       3.766   3.253  17.017  0.00  0.00    +0.000 S 
ATOM     10  O   UNL     1       4.177   1.902  17.337  0.00  0.00    +0.000 OA
ATOM     11  O   UNL     1       2.545   3.526  16.295  0.00  0.00    +0.000 OA
ENDROOT
BRANCH   8  12
ATOM     12  C   UNL     1       3.077   3.839  19.535  0.00  0.00    +0.000 A 
ATOM     13  C   UNL     1       3.485   2.875  20.463  0.00  0.00    +0.000 A 
ATOM     14  C   UNL     1       2.650   2.542  21.530  0.00  0.00    +0.000 A 
ATOM     15  C   UNL     1       1.394   3.145  21.654  0.00  0.00    +0.000 A 
ATOM     16  C   UNL     1       0.965   4.070  20.700  0.00  0.00    +0.000 A 
ATOM     17  C   UNL     1       1.802   4.407  19.638  0.00  0.00    +0.000 A 
ENDBRANCH   8  12
BRANCH   1  18
ATOM     18  C   UNL     1       5.653   3.362  15.064  0.00  0.00    +0.000 C 
BRANCH  18  19
ATOM     19  C   UNL     1       5.971   4.401  13.989  0.00  0.00    +0.000 C 
BRANCH  19  20
ATOM     20  C   UNL     1       6.687   3.850  12.747  0.00  0.00    +0.000 C 
BRANCH  20  21
ATOM     21  O   UNL     1       7.451   4.840  12.048  0.00  0.00    +0.000 OA
ATOM     22  C   UNL     1       8.298   5.634  12.868  0.00  0.00    +0.000 C 
ENDBRANCH  20  21
BRANCH  20  23
ATOM     23  C   UNL     1       5.721   3.144  11.752  0.00  0.00    +0.000 C 
BRANCH  23  25
ATOM     24  C   UNL     1       6.791   1.104  10.944  0.00  0.00    +0.000 C 
ATOM     25  N   UNL     1       5.692   1.671  11.722  0.00  0.00    +0.000 NA
ATOM     26  H   UNL     1       5.781   1.333  12.681  0.00  0.00    +0.000 HD
ENDBRANCH  23  25
ENDBRANCH  20  23
ENDBRANCH  19  20
ENDBRANCH  18  19
ENDBRANCH   1  18
TORSDOF 7
ENDMDL
MODEL 3
REMARK VINA RESULT:      -7.0      0.652      1.231
REMARK  Name = 
REMARK  9 active torsions:
REMARK  status: ('A' for Active; 'I' for Inactive)
REMARK    1  A    between atoms: C_1  and  N_2
REMARK    2  A    between atoms: N_2  and  C_3
REMARK    3  A    between atoms: C_3  and  C_4
REMARK    4  A    between atoms: C_4  and  C_5
REMARK    5  A    between atoms: C_4  and  O_24
REMARK    6  A    between atoms: C_5  and  C_6
REMARK    7  A    between atoms: C_6  and  N_7
REMARK    8  A    between atoms: N_14  and  C_15
REMARK    9  A    between atoms: O_24  and  C_25
REMARK                            x       y       z     vdW  Elec       q    Type
REMARK                         _______ _______ _______ _____ _____    ______ ____
ROOT
ATOM      1  N   UNL     1       5.252   4.493  17.618  0.00  0.00    +0.000 N 
ATOM      2  C   UNL     1       3.936   3.908  17.693  0.00  0.00    +0.000 A 
ATOM      3  C   UNL     1       3.624   2.567  17.514  0.00  0.00    +0.000 A 
ATOM      4  C   UNL     1       2.328   2.131  17.809  0.00  0.00    +0.000 A 
ATOM      5  C   UNL     1       1.371   3.021  18.316  0.00  0.00    +0.000 A 
ATOM      6  C   UNL     1       1.702   4.357  18.551  0.00  0.00    +0.000 A 
ATOM      7  C   UNL     1       2.978   4.795  18.222  0.00  0.00    +0.000 A 
ATOM      8  N   UNL     1       3.559   6.051  18.597  0.00  0.00    +0.000 N 
ATOM      9  S   UNL     1       4.986   6.196  17.667  0.00  0.00    +0.000 S 
ATOM     10  O   UNL     1       4.647   6.637  16.330  0.00  0.00    +0.000 OA
ATOM     11  O   UNL     1       6.031   6.831  18.436  0.00  0.00    +0.000 OA
ENDROOT
BRANCH   8  12
ATOM     12  C   UNL     1       2.773   7.222  18.768  0.00  0.00    +0.000 A 
ATOM     13  C   UNL     1       2.096   7.520  19.955  0.00  0.00    +0.000 A 
ATOM     14  C   UNL     1       1.336   8.686  20.045  0.00  0.00    +0.000 A 
ATOM     15  C   UNL     1       1.222   9.538  18.943  0.00  0.00    +0.000 A 
ATOM     16  C   UNL     1       1.858   9.216  17.741  0.00  0.00    +0.000 A 
ATOM     17  C   UNL     1       2.623   8.054  17.653  0.00  0.00    +0.000 A 
ENDBRANCH   8  12
BRANCH   1  18
ATOM     18  C   UNL     1       6.243   4.021  16.629  0.00  0.00    +0.000 C 
BRANCH  18  19
ATOM     19  C   UNL     1       5.624   4.079  15.233  0.00  0.00    +0.000 C 
BRANCH  19  20
ATOM     20  C   UNL     1       6.634   4.080  14.076  0.00  0.00    +0.000 C 
BRANCH  20  21
ATOM     21  O   UNL     1       7.165   5.379  13.789  0.00  0.00    +0.000 OA
ATOM     22  C   UNL     1       8.021   5.442  12.656  0.00  0.00    +0.000 C 
ENDBRANCH  20  21
BRANCH  20  23
ATOM     23  C   UNL     1       6.063   3.455  12.770  0.00  0.00    +0.000 C 
BRANCH  23  25
ATOM     24  C   UNL     1       4.249   3.043  11.190  0.00  0.00    +0.000 C 
ATOM     25  N   UNL     1       4.669   3.751  12.397  0.00  0.00    +0.000 NA
ATOM     26  H   UNL     1       4.065   3.448  13.162  0.00  0.00    +0.000 HD
ENDBRANCH  23  25
ENDBRANCH  20  23
ENDBRANCH  19  20
ENDBRANCH  18  19
ENDBRANCH   1  18
TORSDOF 7
ENDMDL
MODEL 4
REMARK VINA RESULT:      -7.0      2.542      7.597
REMARK  Name = 
REMARK  9 active torsions:
REMARK  status: ('A' for Active; 'I' for Inactive)
REMARK    1  A    between atoms: C_1  and  N_2
REMARK    2  A    between atoms: N_2  and  C_3
REMARK    3  A    between atoms: C_3  and  C_4
REMARK    4  A    between atoms: C_4  and  C_5
REMARK    5  A    between atoms: C_4  and  O_24
REMARK    6  A    between atoms: C_5  and  C_6
REMARK    7  A    between atoms: C_6  and  N_7
REMARK    8  A    between atoms: N_14  and  C_15
REMARK    9  A    between atoms: O_24  and  C_25
REMARK                            x       y       z     vdW  Elec       q    Type
REMARK                         _______ _______ _______ _____ _____    ______ ____
ROOT
ATOM      1  N   UNL     1       2.085   5.983  19.188  0.00  0.00    +0.000 N 
ATOM      2  C   UNL     1       2.024   4.548  19.061  0.00  0.00    +0.000 A 
ATOM      3  C   UNL     1       1.077   3.712  19.638  0.00  0.00    +0.000 A 
ATOM      4  C   UNL     1       1.046   2.366  19.261  0.00  0.00    +0.000 A 
ATOM      5  C   UNL     1       1.926   1.875  18.287  0.00  0.00    +0.000 A 
ATOM      6  C   UNL     1       2.840   2.728  17.664  0.00  0.00    +0.000 A 
ATOM      7  C   UNL     1       2.893   4.055  18.068  0.00  0.00    +0.000 A 
ATOM      8  N   UNL     1       3.595   5.111  17.396  0.00  0.00    +0.000 N 
ATOM      9  S   UNL     1       3.593   6.430  18.483  0.00  0.00    +0.000 S 
ATOM     10  O   UNL     1       4.629   6.236  19.476  0.00  0.00    +0.000 OA
ATOM     11  O   UNL     1       3.447   7.677  17.768  0.00  0.00    +0.000 OA
ENDROOT
BRANCH   8  12
ATOM     12  C   UNL     1       4.788   4.873  16.664  0.00  0.00    +0.000 A 
ATOM     13  C   UNL     1       4.815   4.736  15.271  0.00  0.00    +0.000 A 
ATOM     14  C   UNL     1       6.026   4.495  14.622  0.00  0.00    +0.000 A 
ATOM     15  C   UNL     1       7.204   4.357  15.361  0.00  0.00    +0.000 A 
ATOM     16  C   UNL     1       7.170   4.445  16.755  0.00  0.00    +0.000 A 
ATOM     17  C   UNL     1       5.962   4.692  17.403  0.00  0.00    +0.000 A 
ENDBRANCH   8  12
BRANCH   1  18
ATOM     18  C   UNL     1       1.741   6.653  20.460  0.00  0.00    +0.000 C 
BRANCH  18  19
ATOM     19  C   UNL     1       1.790   8.167  20.257  0.00  0.00    +0.000 C 
BRANCH  19  20
ATOM     20  C   UNL     1       0.601   8.938  20.851  0.00  0.00    +0.000 C 
BRANCH  20  21
ATOM     21  O   UNL     1       0.354  10.188  20.197  0.00  0.00    +0.000 OA
ATOM     22  C   UNL     1      -0.757  10.193  19.312  0.00  0.00    +0.000 C 
ENDBRANCH  20  21
BRANCH  20  23
ATOM     23  C   UNL     1       0.735   9.173  22.384  0.00  0.00    +0.000 C 
BRANCH  23  25
ATOM     24  C   UNL     1      -1.064  10.626  23.163  0.00  0.00    +0.000 C 
ATOM     25  N   UNL     1      -0.493   9.282  23.191  0.00  0.00    +0.000 NA
ATOM     26  H   UNL     1      -1.185   8.640  22.803  0.00  0.00    +0.000 HD
ENDBRANCH  23  25
ENDBRANCH  20  23
ENDBRANCH  19  20
ENDBRANCH  18  19
ENDBRANCH   1  18
TORSDOF 7
ENDMDL
MODEL 5
REMARK VINA RESULT:      -6.9      2.557      7.519
REMARK  Name = 
REMARK  9 active torsions:
REMARK  status: ('A' for Active; 'I' for Inactive)
REMARK    1  A    between atoms: C_1  and  N_2
REMARK    2  A    between atoms: N_2  and  C_3
REMARK    3  A    between atoms: C_3  and  C_4
REMARK    4  A    between atoms: C_4  and  C_5
REMARK    5  A    between atoms: C_4  and  O_24
REMARK    6  A    between atoms: C_5  and  C_6
REMARK    7  A    between atoms: C_6  and  N_7
REMARK    8  A    between atoms: N_14  and  C_15
REMARK    9  A    between atoms: O_24  and  C_25
REMARK                            x       y       z     vdW  Elec       q    Type
REMARK                         _______ _______ _______ _____ _____    ______ ____
ROOT
ATOM      1  N   UNL     1       2.040   5.856  19.230  0.00  0.00    +0.000 N 
ATOM      2  C   UNL     1       2.007   4.427  19.033  0.00  0.00    +0.000 A 
ATOM      3  C   UNL     1       1.051   3.553  19.532  0.00  0.00    +0.000 A 
ATOM      4  C   UNL     1       1.056   2.226  19.091  0.00  0.00    +0.000 A 
ATOM      5  C   UNL     1       1.983   1.793  18.132  0.00  0.00    +0.000 A 
ATOM      6  C   UNL     1       2.908   2.687  17.588  0.00  0.00    +0.000 A 
ATOM      7  C   UNL     1       2.924   3.994  18.055  0.00  0.00    +0.000 A 
ATOM      8  N   UNL     1       3.636   5.090  17.464  0.00  0.00    +0.000 N 
ATOM      9  S   UNL     1       3.569   6.356  18.610  0.00  0.00    +0.000 S 
ATOM     10  O   UNL     1       4.566   6.131  19.635  0.00  0.00    +0.000 OA
ATOM     11  O   UNL     1       3.433   7.633  17.948  0.00  0.00    +0.000 OA
ENDROOT
BRANCH   8  12
ATOM     12  C   UNL     1       4.861   4.904  16.771  0.00  0.00    +0.000 A 
ATOM     13  C   UNL     1       6.068   4.615  17.417  0.00  0.00    +0.000 A 
ATOM     14  C   UNL     1       7.234   4.454  16.669  0.00  0.00    +0.000 A 
ATOM     15  C   UNL     1       7.206   4.614  15.280  0.00  0.00    +0.000 A 
ATOM     16  C   UNL     1       6.011   4.951  14.639  0.00  0.00    +0.000 A 
ATOM     17  C   UNL     1       4.845   5.106  15.386  0.00  0.00    +0.000 A 
ENDBRANCH   8  12
BRANCH   1  18
ATOM     18  C   UNL     1       1.634   6.460  20.516  0.00  0.00    +0.000 C 
BRANCH  18  19
ATOM     19  C   UNL     1       1.835   7.973  20.444  0.00  0.00    +0.000 C 
BRANCH  19  20
ATOM     20  C   UNL     1       0.556   8.805  20.622  0.00  0.00    +0.000 C 
BRANCH  20  21
ATOM     21  O   UNL     1       0.625  10.090  19.993  0.00  0.00    +0.000 OA
ATOM     22  C   UNL     1       0.311  10.098  18.607  0.00  0.00    +0.000 C 
ENDBRANCH  20  21
BRANCH  20  23
ATOM     23  C   UNL     1       0.148   8.980  22.113  0.00  0.00    +0.000 C 
BRANCH  23  25
ATOM     24  C   UNL     1      -1.069  10.878  23.048  0.00  0.00    +0.000 C 
ATOM     25  N   UNL     1       0.240  10.320  22.718  0.00  0.00    +0.000 NA
ATOM     26  H   UNL     1       0.773  10.239  23.586  0.00  0.00    +0.000 HD
ENDBRANCH  23  25
ENDBRANCH  20  23
ENDBRANCH  19  20
ENDBRANCH  18  19
ENDBRANCH   1  18
TORSDOF 7
ENDMDL
MODEL 6
REMARK VINA RESULT:      -6.8      1.416      1.817
REMARK  Name = 
REMARK  9 active torsions:
REMARK  status: ('A' for Active; 'I' for Inactive)
REMARK    1  A    between atoms: C_1  and  N_2
REMARK    2  A    between atoms: N_2  and  C_3
REMARK    3  A    between atoms: C_3  and  C_4
REMARK    4  A    between atoms: C_4  and  C_5
REMARK    5  A    between atoms: C_4  and  O_24
REMARK    6  A    between atoms: C_5  and  C_6
REMARK    7  A    between atoms: C_6  and  N_7
REMARK    8  A    between atoms: N_14  and  C_15
REMARK    9  A    between atoms: O_24  and  C_25
REMARK                            x       y       z     vdW  Elec       q    Type
REMARK                         _______ _______ _______ _____ _____    ______ ____
ROOT
ATOM      1  N   UNL     1       4.520   4.078  18.384  0.00  0.00    +0.000 N 
ATOM      2  C   UNL     1       3.199   3.552  18.625  0.00  0.00    +0.000 A 
ATOM      3  C   UNL     1       2.819   2.219  18.543  0.00  0.00    +0.000 A 
ATOM      4  C   UNL     1       1.547   1.852  18.993  0.00  0.00    +0.000 A 
ATOM      5  C   UNL     1       0.684   2.803  19.556  0.00  0.00    +0.000 A 
ATOM      6  C   UNL     1       1.088   4.133  19.692  0.00  0.00    +0.000 A 
ATOM      7  C   UNL     1       2.336   4.501  19.209  0.00  0.00    +0.000 A 
ATOM      8  N   UNL     1       3.002   5.747  19.461  0.00  0.00    +0.000 N 
ATOM      9  S   UNL     1       4.325   5.791  18.380  0.00  0.00    +0.000 S 
ATOM     10  O   UNL     1       3.861   6.188  17.067  0.00  0.00    +0.000 OA
ATOM     11  O   UNL     1       5.470   6.414  19.003  0.00  0.00    +0.000 OA
ENDROOT
BRANCH   8  12
ATOM     12  C   UNL     1       2.283   6.956  19.658  0.00  0.00    +0.000 A 
ATOM     13  C   UNL     1       2.175   7.949  18.679  0.00  0.00    +0.000 A 
ATOM     14  C   UNL     1       1.459   9.115  18.950  0.00  0.00    +0.000 A 
ATOM     15  C   UNL     1       0.879   9.307  20.207  0.00  0.00    +0.000 A 
ATOM     16  C   UNL     1       1.028   8.338  21.202  0.00  0.00    +0.000 A 
ATOM     17  C   UNL     1       1.738   7.170  20.929  0.00  0.00    +0.000 A 
ENDBRANCH   8  12
BRANCH   1  18
ATOM     18  C   UNL     1       5.381   3.522  17.319  0.00  0.00    +0.000 C 
BRANCH  18  19
ATOM     19  C   UNL     1       6.671   4.338  17.242  0.00  0.00    +0.000 C 
BRANCH  19  20
ATOM     20  C   UNL     1       7.133   4.686  15.819  0.00  0.00    +0.000 C 
BRANCH  20  21
ATOM     21  O   UNL     1       7.537   6.053  15.674  0.00  0.00    +0.000 OA
ATOM     22  C   UNL     1       7.502   6.819  16.870  0.00  0.00    +0.000 C 
ENDBRANCH  20  21
BRANCH  20  23
ATOM     23  C   UNL     1       6.072   4.341  14.734  0.00  0.00    +0.000 C 
BRANCH  23  25
ATOM     24  C   UNL     1       5.513   3.478  12.521  0.00  0.00    +0.000 C 
ATOM     25  N   UNL     1       6.453   3.433  13.638  0.00  0.00    +0.000 NA
ATOM     26  H   UNL     1       7.368   3.724  13.290  0.00  0.00    +0.000 HD
ENDBRANCH  23  25
ENDBRANCH  20  23
ENDBRANCH  19  20
ENDBRANCH  18  19
ENDBRANCH   1  18
TORSDOF 7
ENDMDL
MODEL 7
REMARK VINA RESULT:      -6.7      2.517      7.515
REMARK  Name = 
REMARK  9 active torsions:
REMARK  status: ('A' for Active; 'I' for Inactive)
REMARK    1  A    between atoms: C_1  and  N_2
REMARK    2  A    between atoms: N_2  and  C_3
REMARK    3  A    between atoms: C_3  and  C_4
REMARK    4  A    between atoms: C_4  and  C_5
REMARK    5  A    between atoms: C_4  and  O_24
REMARK    6  A    between atoms: C_5  and  C_6
REMARK    7  A    between atoms: C_6  and  N_7
REMARK    8  A    between atoms: N_14  and  C_15
REMARK    9  A    between atoms: O_24  and  C_25
REMARK                            x       y       z     vdW  Elec       q    Type
REMARK                         _______ _______ _______ _____ _____    ______ ____
ROOT
ATOM      1  N   UNL     1       2.132   6.108  19.214  0.00  0.00    +0.000 N 
ATOM      2  C   UNL     1       2.032   4.671  19.133  0.00  0.00    +0.000 A 
ATOM      3  C   UNL     1       1.077   3.880  19.757  0.00  0.00    +0.000 A 
ATOM      4  C   UNL     1       1.003   2.524  19.423  0.00  0.00    +0.000 A 
ATOM      5  C   UNL     1       1.847   1.979  18.445  0.00  0.00    +0.000 A 
ATOM      6  C   UNL     1       2.768   2.789  17.776  0.00  0.00    +0.000 A 
ATOM      7  C   UNL     1       2.865   4.125  18.136  0.00  0.00    +0.000 A 
ATOM      8  N   UNL     1       3.578   5.141  17.417  0.00  0.00    +0.000 N 
ATOM      9  S   UNL     1       3.635   6.493  18.462  0.00  0.00    +0.000 S 
ATOM     10  O   UNL     1       4.688   6.303  19.437  0.00  0.00    +0.000 OA
ATOM     11  O   UNL     1       3.505   7.721  17.711  0.00  0.00    +0.000 OA
ENDROOT
BRANCH   8  12
ATOM     12  C   UNL     1       4.747   4.850  16.666  0.00  0.00    +0.000 A 
ATOM     13  C   UNL     1       4.727   4.588  15.292  0.00  0.00    +0.000 A 
ATOM     14  C   UNL     1       5.917   4.301  14.623  0.00  0.00    +0.000 A 
ATOM     15  C   UNL     1       7.123   4.242  15.328  0.00  0.00    +0.000 A 
ATOM     16  C   UNL     1       7.137   4.455  16.709  0.00  0.00    +0.000 A 
ATOM     17  C   UNL     1       5.949   4.748  17.375  0.00  0.00    +0.000 A 
ENDBRANCH   8  12
BRANCH   1  18
ATOM     18  C   UNL     1       1.835   6.825  20.472  0.00  0.00    +0.000 C 
BRANCH  18  19
ATOM     19  C   UNL     1       1.390   8.249  20.141  0.00  0.00    +0.000 C 
BRANCH  19  20
ATOM     20  C   UNL     1       1.071   9.127  21.361  0.00  0.00    +0.000 C 
BRANCH  20  21
ATOM     21  O   UNL     1      -0.102   8.709  22.068  0.00  0.00    +0.000 OA
ATOM     22  C   UNL     1      -0.504   9.568  23.127  0.00  0.00    +0.000 C 
ENDBRANCH  20  21
BRANCH  20  23
ATOM     23  C   UNL     1       0.952  10.638  21.008  0.00  0.00    +0.000 C 
BRANCH  23  25
ATOM     24  C   UNL     1      -1.012  11.358  19.750  0.00  0.00    +0.000 C 
ATOM     25  N   UNL     1       0.406  11.014  19.691  0.00  0.00    +0.000 NA
ATOM     26  H   UNL     1       0.914  11.836  19.362  0.00  0.00    +0.000 HD
ENDBRANCH  23  25
ENDBRANCH  20  23
ENDBRANCH  19  20
ENDBRANCH  18  19
ENDBRANCH   1  18
TORSDOF 7
ENDMDL
MODEL 8
REMARK VINA RESULT:      -6.7      1.865      3.971
REMARK  Name = 
REMARK  9 active torsions:
REMARK  status: ('A' for Active; 'I' for Inactive)
REMARK    1  A    between atoms: C_1  and  N_2
REMARK    2  A    between atoms: N_2  and  C_3
REMARK    3  A    between atoms: C_3  and  C_4
REMARK    4  A    between atoms: C_4  and  C_5
REMARK    5  A    between atoms: C_4  and  O_24
REMARK    6  A    between atoms: C_5  and  C_6
REMARK    7  A    between atoms: C_6  and  N_7
REMARK    8  A    between atoms: N_14  and  C_15
REMARK    9  A    between atoms: O_24  and  C_25
REMARK                            x       y       z     vdW  Elec       q    Type
REMARK                         _______ _______ _______ _____ _____    ______ ____
ROOT
ATOM      1  N   UNL     1       4.221   6.208  16.887  0.00  0.00    +0.000 N 
ATOM      2  C   UNL     1       3.450   7.130  17.685  0.00  0.00    +0.000 A 
ATOM      3  C   UNL     1       3.338   8.498  17.477  0.00  0.00    +0.000 A 
ATOM      4  C   UNL     1       2.400   9.218  18.224  0.00  0.00    +0.000 A 
ATOM      5  C   UNL     1       1.558   8.567  19.137  0.00  0.00    +0.000 A 
ATOM      6  C   UNL     1       1.631   7.182  19.303  0.00  0.00    +0.000 A 
ATOM      7  C   UNL     1       2.589   6.476  18.588  0.00  0.00    +0.000 A 
ATOM      8  N   UNL     1       2.660   5.049  18.459  0.00  0.00    +0.000 N 
ATOM      9  S   UNL     1       4.187   4.723  17.763  0.00  0.00    +0.000 S 
ATOM     10  O   UNL     1       5.207   4.783  18.789  0.00  0.00    +0.000 OA
ATOM     11  O   UNL     1       4.098   3.614  16.841  0.00  0.00    +0.000 OA
ENDROOT
BRANCH   8  12
ATOM     12  C   UNL     1       2.217   4.178  19.491  0.00  0.00    +0.000 A 
ATOM     13  C   UNL     1       1.289   3.153  19.278  0.00  0.00    +0.000 A 
ATOM     14  C   UNL     1       0.895   2.343  20.344  0.00  0.00    +0.000 A 
ATOM     15  C   UNL     1       1.399   2.576  21.627  0.00  0.00    +0.000 A 
ATOM     16  C   UNL     1       2.288   3.630  21.849  0.00  0.00    +0.000 A 
ATOM     17  C   UNL     1       2.686   4.435  20.784  0.00  0.00    +0.000 A 
ENDBRANCH   8  12
BRANCH   1  18
ATOM     18  C   UNL     1       5.530   6.596  16.321  0.00  0.00    +0.000 C 
BRANCH  18  19
ATOM     19  C   UNL     1       5.668   5.994  14.923  0.00  0.00    +0.000 C 
BRANCH  19  20
ATOM     20  C   UNL     1       6.786   4.950  14.776  0.00  0.00    +0.000 C 
BRANCH  20  21
ATOM     21  O   UNL     1       8.016   5.502  14.293  0.00  0.00    +0.000 OA
ATOM     22  C   UNL     1       8.167   5.486  12.879  0.00  0.00    +0.000 C 
ENDBRANCH  20  21
BRANCH  20  23
ATOM     23  C   UNL     1       6.375   3.742  13.885  0.00  0.00    +0.000 C 
BRANCH  23  25
ATOM     24  C   UNL     1       5.115   3.197  11.866  0.00  0.00    +0.000 C 
ATOM     25  N   UNL     1       5.068   3.778  13.206  0.00  0.00    +0.000 NA
ATOM     26  H   UNL     1       4.408   3.231  13.760  0.00  0.00    +0.000 HD
ENDBRANCH  23  25
ENDBRANCH  20  23
ENDBRANCH  19  20
ENDBRANCH  18  19
ENDBRANCH   1  18
TORSDOF 7
ENDMDL
MODEL 9
REMARK VINA RESULT:      -6.7      1.842      2.586
REMARK  Name = 
REMARK  9 active torsions:
REMARK  status: ('A' for Active; 'I' for Inactive)
REMARK    1  A    between atoms: C_1  and  N_2
REMARK    2  A    between atoms: N_2  and  C_3
REMARK    3  A    between atoms: C_3  and  C_4
REMARK    4  A    between atoms: C_4  and  C_5
REMARK    5  A    between atoms: C_4  and  O_24
REMARK    6  A    between atoms: C_5  and  C_6
REMARK    7  A    between atoms: C_6  and  N_7
REMARK    8  A    between atoms: N_14  and  C_15
REMARK    9  A    between atoms: O_24  and  C_25
REMARK                            x       y       z     vdW  Elec       q    Type
REMARK                         _______ _______ _______ _____ _____    ______ ____
ROOT
ATOM      1  N   UNL     1       3.852   5.268  18.145  0.00  0.00    +0.000 N 
ATOM      2  C   UNL     1       3.062   4.560  19.122  0.00  0.00    +0.000 A 
ATOM      3  C   UNL     1       3.126   3.202  19.400  0.00  0.00    +0.000 A 
ATOM      4  C   UNL     1       2.431   2.707  20.509  0.00  0.00    +0.000 A 
ATOM      5  C   UNL     1       1.716   3.571  21.350  0.00  0.00    +0.000 A 
ATOM      6  C   UNL     1       1.700   4.946  21.104  0.00  0.00    +0.000 A 
ATOM      7  C   UNL     1       2.360   5.428  19.982  0.00  0.00    +0.000 A 
ATOM      8  N   UNL     1       2.639   6.806  19.698  0.00  0.00    +0.000 N 
ATOM      9  S   UNL     1       3.162   6.846  18.072  0.00  0.00    +0.000 S 
ATOM     10  O   UNL     1       2.012   6.794  17.194  0.00  0.00    +0.000 OA
ATOM     11  O   UNL     1       4.208   7.828  17.898  0.00  0.00    +0.000 OA
ENDROOT
BRANCH   8  12
ATOM     12  C   UNL     1       1.781   7.852  20.130  0.00  0.00    +0.000 A 
ATOM     13  C   UNL     1       1.214   7.895  21.409  0.00  0.00    +0.000 A 
ATOM     14  C   UNL     1       0.372   8.951  21.759  0.00  0.00    +0.000 A 
ATOM     15  C   UNL     1       0.068   9.946  20.825  0.00  0.00    +0.000 A 
ATOM     16  C   UNL     1       0.593   9.877  19.533  0.00  0.00    +0.000 A 
ATOM     17  C   UNL     1       1.439   8.825  19.185  0.00  0.00    +0.000 A 
ENDBRANCH   8  12
BRANCH   1  18
ATOM     18  C   UNL     1       4.194   4.650  16.846  0.00  0.00    +0.000 C 
BRANCH  18  19
ATOM     19  C   UNL     1       5.445   5.325  16.285  0.00  0.00    +0.000 C 
BRANCH  19  20
ATOM     20  C   UNL     1       6.543   4.362  15.808  0.00  0.00    +0.000 C 
BRANCH  20  21
ATOM     21  O   UNL     1       7.789   4.543  16.490  0.00  0.00    +0.000 OA
ATOM     22  C   UNL     1       7.683   4.740  17.893  0.00  0.00    +0.000 C 
ENDBRANCH  20  21
BRANCH  20  23
ATOM     23  C   UNL     1       6.779   4.424  14.271  0.00  0.00    +0.000 C 
BRANCH  23  25
ATOM     24  C   UNL     1       6.569   3.512  12.017  0.00  0.00    +0.000 C 
ATOM     25  N   UNL     1       6.303   3.305  13.439  0.00  0.00    +0.000 NA
ATOM     26  H   UNL     1       6.798   2.461  13.730  0.00  0.00    +0.000 HD
ENDBRANCH  23  25
ENDBRANCH  20  23
ENDBRANCH  19  20
ENDBRANCH  18  19
ENDBRANCH   1  18
TORSDOF 7
ENDMDL
