MODEL 1
REMARK VINA RESULT:      -7.2      0.000      0.000
REMARK  Name = 
REMARK  10 active torsions:
REMARK  status: ('A' for Active; 'I' for Inactive)
REMARK    1  A    between atoms: C_2  and  C_3
REMARK    2  A    between atoms: C_3  and  N_4
REMARK    3  A    between atoms: C_5  and  C_7
REMARK    4  A    between atoms: C_7  and  C_8
REMARK    5  A    between atoms: C_7  and  N_12
REMARK    6  A    between atoms: C_8  and  C_9
REMARK    7  A    between atoms: C_9  and  C_10
REMARK    8  A    between atoms: C_9  and  C_11
REMARK    9  A    between atoms: C_13  and  C_15
REMARK   10  A    between atoms: C_17  and  C_18
REMARK                            x       y       z     vdW  Elec       q    Type
REMARK                         _______ _______ _______ _____ _____    ______ ____
ROOT
ATOM      1  N   UNL     1       6.603   5.511  17.190  0.00  0.00    +0.000 N 
ATOM      2  C   UNL     1       6.291   6.838  16.984  0.00  0.00    +0.000 C 
ATOM      3  O   UNL     1       5.486   7.238  16.154  0.00  0.00    +0.000 OA
ATOM      4  H   UNL     1       7.448   5.348  17.728  0.00  0.00    +0.000 HD
ENDROOT
BRANCH   2   5
ATOM      5  C   UNL     1       6.938   7.792  17.916  0.00  0.00    +0.000 C 
ATOM      6  O   UNL     1       8.177   7.334  18.476  0.00  0.00    +0.000 OA
ATOM      7  C   UNL     1       8.253   8.462  17.576  0.00  0.00    +0.000 C 
BRANCH   7   8
ATOM      8  C   UNL     1       8.607   9.797  18.182  0.00  0.00    +0.000 A 
ATOM      9  C   UNL     1       9.217   9.886  19.451  0.00  0.00    +0.000 A 
ATOM     10  C   UNL     1       9.547  11.116  20.028  0.00  0.00    +0.000 A 
ATOM     11  C   UNL     1       9.286  12.298  19.341  0.00  0.00    +0.000 A 
ATOM     12  C   UNL     1       8.698  12.241  18.078  0.00  0.00    +0.000 A 
ATOM     13  C   UNL     1       8.364  11.012  17.511  0.00  0.00    +0.000 A 
ENDBRANCH   7   8
ENDBRANCH   2   5
BRANCH   1  14
ATOM     14  C   UNL     1       6.098   4.441  16.324  0.00  0.00    +0.000 C 
BRANCH  14  16
ATOM     15  N   UNL     1       5.968   3.564  13.990  0.00  0.00    +0.000 N 
ATOM     16  C   UNL     1       6.608   4.412  14.860  0.00  0.00    +0.000 C 
ATOM     17  O   UNL     1       7.463   5.202  14.452  0.00  0.00    +0.000 OA
ATOM     18  H   UNL     1       5.212   2.979  14.321  0.00  0.00    +0.000 HD
BRANCH  15  19
ATOM     19  C   UNL     1       6.307   3.568  12.587  0.00  0.00    +0.000 C 
BRANCH  19  21
ATOM     20  C   UNL     1       3.983   3.128  11.046  0.00  0.00    +0.000 C 
ATOM     21  C   UNL     1       5.056   3.331  11.758  0.00  0.00    +0.000 C 
ENDBRANCH  19  21
ENDBRANCH  15  19
ENDBRANCH  14  16
BRANCH  14  22
ATOM     22  C   UNL     1       4.555   4.311  16.374  0.00  0.00    +0.000 C 
BRANCH  22  23
ATOM     23  C   UNL     1       3.851   4.011  17.724  0.00  0.00    +0.000 C 
ATOM     24  C   UNL     1       2.438   4.575  17.888  0.00  0.00    +0.000 C 
ATOM     25  C   UNL     1       3.767   2.485  17.903  0.00  0.00    +0.000 C 
ENDBRANCH  22  23
ENDBRANCH  14  22
ENDBRANCH   1  14
TORSDOF 8
ENDMDL
MODEL 2
REMARK VINA RESULT:      -7.0      1.823      2.546
REMARK  Name = 
REMARK  10 active torsions:
REMARK  status: ('A' for Active; 'I' for Inactive)
REMARK    1  A    between atoms: C_2  and  C_3
REMARK    2  A    between atoms: C_3  and  N_4
REMARK    3  A    between atoms: C_5  and  C_7
REMARK    4  A    between atoms: C_7  and  C_8
REMARK    5  A    between atoms: C_7  and  N_12
REMARK    6  A    between atoms: C_8  and  C_9
REMARK    7  A    between atoms: C_9  and  C_10
REMARK    8  A    between atoms: C_9  and  C_11
REMARK    9  A    between atoms: C_13  and  C_15
REMARK   10  A    between atoms: C_17  and  C_18
REMARK                            x       y       z     vdW  Elec       q    Type
REMARK                         _______ _______ _______ _____ _____    ______ ____
ROOT
ATOM      1  N   UNL     1       6.866   7.436  16.835  0.00  0.00    +0.000 N 
ATOM      2  C   UNL     1       7.786   7.642  17.841  0.00  0.00    +0.000 C 
ATOM      3  O   UNL     1       8.025   6.840  18.733  0.00  0.00    +0.000 OA
ATOM      4  H   UNL     1       6.601   8.269  16.318  0.00  0.00    +0.000 HD
ENDROOT
BRANCH   2   5
ATOM      5  C   UNL     1       8.568   8.896  17.735  0.00  0.00    +0.000 C 
ATOM      6  O   UNL     1       7.777  10.091  17.662  0.00  0.00    +0.000 OA
ATOM      7  C   UNL     1       8.578   9.919  18.852  0.00  0.00    +0.000 C 
BRANCH   7   8
ATOM      8  C   UNL     1       9.755  10.848  19.023  0.00  0.00    +0.000 A 
ATOM      9  C   UNL     1      10.391  11.436  17.910  0.00  0.00    +0.000 A 
ATOM     10  C   UNL     1      11.485  12.296  18.053  0.00  0.00    +0.000 A 
ATOM     11  C   UNL     1      11.967  12.602  19.322  0.00  0.00    +0.000 A 
ATOM     12  C   UNL     1      11.348  12.048  20.442  0.00  0.00    +0.000 A 
ATOM     13  C   UNL     1      10.263  11.186  20.293  0.00  0.00    +0.000 A 
ENDBRANCH   7   8
ENDBRANCH   2   5
BRANCH   1  14
ATOM     14  C   UNL     1       5.967   6.277  16.816  0.00  0.00    +0.000 C 
BRANCH  14  16
ATOM     15  N   UNL     1       6.687   5.423  14.583  0.00  0.00    +0.000 N 
ATOM     16  C   UNL     1       6.342   5.104  15.873  0.00  0.00    +0.000 C 
ATOM     17  O   UNL     1       6.453   3.947  16.284  0.00  0.00    +0.000 OA
ATOM     18  H   UNL     1       6.669   6.389  14.280  0.00  0.00    +0.000 HD
BRANCH  15  19
ATOM     19  C   UNL     1       7.161   4.401  13.681  0.00  0.00    +0.000 C 
BRANCH  19  21
ATOM     20  C   UNL     1       4.984   3.306  12.255  0.00  0.00    +0.000 C 
ATOM     21  C   UNL     1       5.990   3.812  12.914  0.00  0.00    +0.000 C 
ENDBRANCH  19  21
ENDBRANCH  15  19
ENDBRANCH  14  16
BRANCH  14  22
ATOM     22  C   UNL     1       4.481   6.677  16.636  0.00  0.00    +0.000 C 
BRANCH  22  23
ATOM     23  C   UNL     1       3.612   6.986  17.883  0.00  0.00    +0.000 C 
ATOM     24  C   UNL     1       2.669   8.187  17.768  0.00  0.00    +0.000 C 
ATOM     25  C   UNL     1       2.752   5.749  18.198  0.00  0.00    +0.000 C 
ENDBRANCH  22  23
ENDBRANCH  14  22
ENDBRANCH   1  14
TORSDOF 8
ENDMDL
MODEL 3
REMARK VINA RESULT:      -6.9      1.658      2.259
REMARK  Name = 
REMARK  10 active torsions:
REMARK  status: ('A' for Active; 'I' for Inactive)
REMARK    1  A    between atoms: C_2  and  C_3
REMARK    2  A    between atoms: C_3  and  N_4
REMARK    3  A    between atoms: C_5  and  C_7
REMARK    4  A    between atoms: C_7  and  C_8
REMARK    5  A    between atoms: C_7  and  N_12
REMARK    6  A    between atoms: C_8  and  C_9
REMARK    7  A    between atoms: C_9  and  C_10
REMARK    8  A    between atoms: C_9  and  C_11
REMARK    9  A    between atoms: C_13  and  C_15
REMARK   10  A    between atoms: C_17  and  C_18
REMARK                            x       y       z     vdW  Elec       q    Type
REMARK                         _______ _______ _______ _____ _____    ______ ____
ROOT
ATOM      1  N   UNL     1       6.982   7.243  16.872  0.00  0.00    +0.000 N 
ATOM      2  C   UNL     1       7.861   7.551  17.888  0.00  0.00    +0.000 C 
ATOM      3  O   UNL     1       8.105   6.817  18.836  0.00  0.00    +0.000 OA
ATOM      4  H   UNL     1       6.700   8.030  16.296  0.00  0.00    +0.000 HD
ENDROOT
BRANCH   2   5
ATOM      5  C   UNL     1       8.595   8.828  17.724  0.00  0.00    +0.000 C 
ATOM      6  O   UNL     1       7.766   9.999  17.725  0.00  0.00    +0.000 OA
ATOM      7  C   UNL     1       8.669   9.847  18.842  0.00  0.00    +0.000 C 
BRANCH   7   8
ATOM      8  C   UNL     1       9.828  10.810  18.920  0.00  0.00    +0.000 A 
ATOM      9  C   UNL     1      10.388  11.182  20.160  0.00  0.00    +0.000 A 
ATOM     10  C   UNL     1      11.459  12.076  20.249  0.00  0.00    +0.000 A 
ATOM     11  C   UNL     1      12.010  12.617  19.092  0.00  0.00    +0.000 A 
ATOM     12  C   UNL     1      11.488  12.256  17.850  0.00  0.00    +0.000 A 
ATOM     13  C   UNL     1      10.415  11.370  17.768  0.00  0.00    +0.000 A 
ENDBRANCH   7   8
ENDBRANCH   2   5
BRANCH   1  14
ATOM     14  C   UNL     1       6.132   6.048  16.902  0.00  0.00    +0.000 C 
BRANCH  14  16
ATOM     15  N   UNL     1       6.809   5.383  14.592  0.00  0.00    +0.000 N 
ATOM     16  C   UNL     1       6.404   4.957  15.833  0.00  0.00    +0.000 C 
ATOM     17  O   UNL     1       6.386   3.755  16.109  0.00  0.00    +0.000 OA
ATOM     18  H   UNL     1       6.898   6.373  14.403  0.00  0.00    +0.000 HD
BRANCH  15  19
ATOM     19  C   UNL     1       7.195   4.426  13.583  0.00  0.00    +0.000 C 
BRANCH  19  21
ATOM     20  C   UNL     1       4.895   3.456  12.263  0.00  0.00    +0.000 C 
ATOM     21  C   UNL     1       5.957   3.904  12.873  0.00  0.00    +0.000 C 
ENDBRANCH  19  21
ENDBRANCH  15  19
ENDBRANCH  14  16
BRANCH  14  22
ATOM     22  C   UNL     1       4.623   6.391  16.969  0.00  0.00    +0.000 C 
BRANCH  22  23
ATOM     23  C   UNL     1       3.659   5.469  17.760  0.00  0.00    +0.000 C 
ATOM     24  C   UNL     1       4.233   4.812  19.018  0.00  0.00    +0.000 C 
ATOM     25  C   UNL     1       2.432   6.294  18.186  0.00  0.00    +0.000 C 
ENDBRANCH  22  23
ENDBRANCH  14  22
ENDBRANCH   1  14
TORSDOF 8
ENDMDL
MODEL 4
REMARK VINA RESULT:      -6.7      5.246      7.531
REMARK  Name = 
REMARK  10 active torsions:
REMARK  status: ('A' for Active; 'I' for Inactive)
REMARK    1  A    between atoms: C_2  and  C_3
REMARK    2  A    between atoms: C_3  and  N_4
REMARK    3  A    between atoms: C_5  and  C_7
REMARK    4  A    between atoms: C_7  and  C_8
REMARK    5  A    between atoms: C_7  and  N_12
REMARK    6  A    between atoms: C_8  and  C_9
REMARK    7  A    between atoms: C_9  and  C_10
REMARK    8  A    between atoms: C_9  and  C_11
REMARK    9  A    between atoms: C_13  and  C_15
REMARK   10  A    between atoms: C_17  and  C_18
REMARK                            x       y       z     vdW  Elec       q    Type
REMARK                         _______ _______ _______ _____ _____    ______ ____
ROOT
ATOM      1  N   UNL     1       2.426   7.255  18.666  0.00  0.00    +0.000 N 
ATOM      2  C   UNL     1       2.255   8.525  18.158  0.00  0.00    +0.000 C 
ATOM      3  O   UNL     1       2.478   8.839  16.997  0.00  0.00    +0.000 OA
ATOM      4  H   UNL     1       2.438   7.198  19.680  0.00  0.00    +0.000 HD
ENDROOT
BRANCH   2   5
ATOM      5  C   UNL     1       1.681   9.513  19.101  0.00  0.00    +0.000 C 
ATOM      6  O   UNL     1       0.858  10.516  18.488  0.00  0.00    +0.000 OA
ATOM      7  C   UNL     1       0.191   9.581  19.365  0.00  0.00    +0.000 C 
BRANCH   7   8
ATOM      8  C   UNL     1      -0.327  10.122  20.674  0.00  0.00    +0.000 A 
ATOM      9  C   UNL     1      -0.215   9.380  21.868  0.00  0.00    +0.000 A 
ATOM     10  C   UNL     1      -0.694   9.866  23.089  0.00  0.00    +0.000 A 
ATOM     11  C   UNL     1      -1.292  11.121  23.150  0.00  0.00    +0.000 A 
ATOM     12  C   UNL     1      -1.403  11.884  21.989  0.00  0.00    +0.000 A 
ATOM     13  C   UNL     1      -0.931  11.392  20.774  0.00  0.00    +0.000 A 
ENDBRANCH   7   8
ENDBRANCH   2   5
BRANCH   1  14
ATOM     14  C   UNL     1       3.035   6.171  17.889  0.00  0.00    +0.000 C 
BRANCH  14  16
ATOM     15  N   UNL     1       3.010   3.873  18.866  0.00  0.00    +0.000 N 
ATOM     16  C   UNL     1       2.399   4.762  18.017  0.00  0.00    +0.000 C 
ATOM     17  O   UNL     1       1.322   4.483  17.484  0.00  0.00    +0.000 OA
ATOM     18  H   UNL     1       3.851   4.144  19.360  0.00  0.00    +0.000 HD
BRANCH  15  19
ATOM     19  C   UNL     1       2.413   2.586  19.127  0.00  0.00    +0.000 C 
BRANCH  19  21
ATOM     20  C   UNL     1       1.408   2.522  21.765  0.00  0.00    +0.000 C 
ATOM     21  C   UNL     1       1.872   2.552  20.547  0.00  0.00    +0.000 C 
ENDBRANCH  19  21
ENDBRANCH  15  19
ENDBRANCH  14  16
BRANCH  14  22
ATOM     22  C   UNL     1       4.573   6.101  18.067  0.00  0.00    +0.000 C 
BRANCH  22  23
ATOM     23  C   UNL     1       5.475   5.790  16.845  0.00  0.00    +0.000 C 
ATOM     24  C   UNL     1       5.121   6.511  15.542  0.00  0.00    +0.000 C 
ATOM     25  C   UNL     1       6.926   6.159  17.201  0.00  0.00    +0.000 C 
ENDBRANCH  22  23
ENDBRANCH  14  22
ENDBRANCH   1  14
TORSDOF 8
ENDMDL
MODEL 5
REMARK VINA RESULT:      -6.7      4.165      7.499
REMARK  Name = 
REMARK  10 active torsions:
REMARK  status: ('A' for Active; 'I' for Inactive)
REMARK    1  A    between atoms: C_2  and  C_3
REMARK    2  A    between atoms: C_3  and  N_4
REMARK    3  A    between atoms: C_5  and  C_7
REMARK    4  A    between atoms: C_7  and  C_8
REMARK    5  A    between atoms: C_7  and  N_12
REMARK    6  A    between atoms: C_8  and  C_9
REMARK    7  A    between atoms: C_9  and  C_10
REMARK    8  A    between atoms: C_9  and  C_11
REMARK    9  A    between atoms: C_13  and  C_15
REMARK   10  A    between atoms: C_17  and  C_18
REMARK                            x       y       z     vdW  Elec       q    Type
REMARK                         _______ _______ _______ _____ _____    ______ ____
ROOT
ATOM      1  N   UNL     1       3.445   5.562  17.632  0.00  0.00    +0.000 N 
ATOM      2  C   UNL     1       4.780   5.629  17.965  0.00  0.00    +0.000 C 
ATOM      3  O   UNL     1       5.201   5.765  19.106  0.00  0.00    +0.000 OA
ATOM      4  H   UNL     1       3.242   5.692  16.646  0.00  0.00    +0.000 HD
ENDROOT
BRANCH   2   5
ATOM      5  C   UNL     1       5.724   5.431  16.840  0.00  0.00    +0.000 C 
ATOM      6  O   UNL     1       6.631   4.332  17.007  0.00  0.00    +0.000 OA
ATOM      7  C   UNL     1       5.652   4.206  15.953  0.00  0.00    +0.000 C 
BRANCH   7   8
ATOM      8  C   UNL     1       6.163   4.261  14.534  0.00  0.00    +0.000 A 
ATOM      9  C   UNL     1       5.582   3.477  13.516  0.00  0.00    +0.000 A 
ATOM     10  C   UNL     1       6.047   3.514  12.198  0.00  0.00    +0.000 A 
ATOM     11  C   UNL     1       7.106   4.351  11.858  0.00  0.00    +0.000 A 
ATOM     12  C   UNL     1       7.691   5.149  12.840  0.00  0.00    +0.000 A 
ATOM     13  C   UNL     1       7.228   5.103  14.154  0.00  0.00    +0.000 A 
ENDBRANCH   7   8
ENDBRANCH   2   5
BRANCH   1  14
ATOM     14  C   UNL     1       2.377   5.792  18.610  0.00  0.00    +0.000 C 
BRANCH  14  16
ATOM     15  N   UNL     1       1.808   7.353  20.474  0.00  0.00    +0.000 N 
ATOM     16  C   UNL     1       2.228   7.230  19.173  0.00  0.00    +0.000 C 
ATOM     17  O   UNL     1       2.589   8.221  18.533  0.00  0.00    +0.000 OA
ATOM     18  H   UNL     1       1.592   6.526  21.015  0.00  0.00    +0.000 HD
BRANCH  15  19
ATOM     19  C   UNL     1       1.759   8.650  21.105  0.00  0.00    +0.000 C 
BRANCH  19  21
ATOM     20  C   UNL     1      -0.709   8.969  22.438  0.00  0.00    +0.000 C 
ATOM     21  C   UNL     1       0.431   8.821  21.822  0.00  0.00    +0.000 C 
ENDBRANCH  19  21
ENDBRANCH  15  19
ENDBRANCH  14  16
BRANCH  14  22
ATOM     22  C   UNL     1       2.380   4.749  19.755  0.00  0.00    +0.000 C 
BRANCH  22  23
ATOM     23  C   UNL     1       1.261   3.677  19.823  0.00  0.00    +0.000 C 
ATOM     24  C   UNL     1       1.253   2.636  18.701  0.00  0.00    +0.000 C 
ATOM     25  C   UNL     1       1.387   2.922  21.158  0.00  0.00    +0.000 C 
ENDBRANCH  22  23
ENDBRANCH  14  22
ENDBRANCH   1  14
TORSDOF 8
ENDMDL
MODEL 6
REMARK VINA RESULT:      -6.7      4.459      6.102
REMARK  Name = 
REMARK  10 active torsions:
REMARK  status: ('A' for Active; 'I' for Inactive)
REMARK    1  A    between atoms: C_2  and  C_3
REMARK    2  A    between atoms: C_3  and  N_4
REMARK    3  A    between atoms: C_5  and  C_7
REMARK    4  A    between atoms: C_7  and  C_8
REMARK    5  A    between atoms: C_7  and  N_12
REMARK    6  A    between atoms: C_8  and  C_9
REMARK    7  A    between atoms: C_9  and  C_10
REMARK    8  A    between atoms: C_9  and  C_11
REMARK    9  A    between atoms: C_13  and  C_15
REMARK   10  A    between atoms: C_17  and  C_18
REMARK                            x       y       z     vdW  Elec       q    Type
REMARK                         _______ _______ _______ _____ _____    ______ ____
ROOT
ATOM      1  N   UNL     1       3.468   7.059  17.681  0.00  0.00    +0.000 N 
ATOM      2  C   UNL     1       2.639   7.378  18.735  0.00  0.00    +0.000 C 
ATOM      3  O   UNL     1       2.497   6.688  19.735  0.00  0.00    +0.000 OA
ATOM      4  H   UNL     1       3.303   7.587  16.830  0.00  0.00    +0.000 HD
ENDROOT
BRANCH   2   5
ATOM      5  C   UNL     1       1.968   8.695  18.636  0.00  0.00    +0.000 C 
ATOM      6  O   UNL     1       2.117   9.348  17.367  0.00  0.00    +0.000 OA
ATOM      7  C   UNL     1       0.784   8.913  17.717  0.00  0.00    +0.000 C 
BRANCH   7   8
ATOM      8  C   UNL     1      -0.228   9.989  18.021  0.00  0.00    +0.000 A 
ATOM      9  C   UNL     1       0.077  11.057  18.890  0.00  0.00    +0.000 A 
ATOM     10  C   UNL     1      -0.852  12.060  19.185  0.00  0.00    +0.000 A 
ATOM     11  C   UNL     1      -2.116  12.027  18.605  0.00  0.00    +0.000 A 
ATOM     12  C   UNL     1      -2.442  10.992  17.729  0.00  0.00    +0.000 A 
ATOM     13  C   UNL     1      -1.515   9.992  17.445  0.00  0.00    +0.000 A 
ENDBRANCH   7   8
ENDBRANCH   2   5
BRANCH   1  14
ATOM     14  C   UNL     1       4.164   5.771  17.588  0.00  0.00    +0.000 C 
BRANCH  14  16
ATOM     15  N   UNL     1       5.649   4.554  15.992  0.00  0.00    +0.000 N 
ATOM     16  C   UNL     1       5.432   5.712  16.697  0.00  0.00    +0.000 C 
ATOM     17  O   UNL     1       6.152   6.698  16.523  0.00  0.00    +0.000 OA
ATOM     18  H   UNL     1       5.004   3.780  16.083  0.00  0.00    +0.000 HD
BRANCH  15  19
ATOM     19  C   UNL     1       6.741   4.467  15.053  0.00  0.00    +0.000 C 
BRANCH  19  21
ATOM     20  C   UNL     1       5.796   3.474  12.584  0.00  0.00    +0.000 C 
ATOM     21  C   UNL     1       6.232   3.933  13.724  0.00  0.00    +0.000 C 
ENDBRANCH  19  21
ENDBRANCH  15  19
ENDBRANCH  14  16
BRANCH  14  22
ATOM     22  C   UNL     1       3.206   4.597  17.264  0.00  0.00    +0.000 C 
BRANCH  22  23
ATOM     23  C   UNL     1       2.845   3.571  18.370  0.00  0.00    +0.000 C 
ATOM     24  C   UNL     1       1.353   3.391  18.662  0.00  0.00    +0.000 C 
ATOM     25  C   UNL     1       3.409   2.197  17.967  0.00  0.00    +0.000 C 
ENDBRANCH  22  23
ENDBRANCH  14  22
ENDBRANCH   1  14
TORSDOF 8
ENDMDL
MODEL 7
REMARK VINA RESULT:      -6.7      4.593      6.994
REMARK  Name = 
REMARK  10 active torsions:
REMARK  status: ('A' for Active; 'I' for Inactive)
REMARK    1  A    between atoms: C_2  and  C_3
REMARK    2  A    between atoms: C_3  and  N_4
REMARK    3  A    between atoms: C_5  and  C_7
REMARK    4  A    between atoms: C_7  and  C_8
REMARK    5  A    between atoms: C_7  and  N_12
REMARK    6  A    between atoms: C_8  and  C_9
REMARK    7  A    between atoms: C_9  and  C_10
REMARK    8  A    between atoms: C_9  and  C_11
REMARK    9  A    between atoms: C_13  and  C_15
REMARK   10  A    between atoms: C_17  and  C_18
REMARK                            x       y       z     vdW  Elec       q    Type
REMARK                         _______ _______ _______ _____ _____    ______ ____
ROOT
ATOM      1  N   UNL     1       3.181   6.794  18.421  0.00  0.00    +0.000 N 
ATOM      2  C   UNL     1       2.301   7.214  19.394  0.00  0.00    +0.000 C 
ATOM      3  O   UNL     1       2.028   6.575  20.401  0.00  0.00    +0.000 OA
ATOM      4  H   UNL     1       3.124   7.302  17.543  0.00  0.00    +0.000 HD
ENDROOT
BRANCH   2   5
ATOM      5  C   UNL     1       1.743   8.574  19.200  0.00  0.00    +0.000 C 
ATOM      6  O   UNL     1       2.264   9.276  18.062  0.00  0.00    +0.000 OA
ATOM      7  C   UNL     1       0.868   8.908  18.011  0.00  0.00    +0.000 C 
BRANCH   7   8
ATOM      8  C   UNL     1      -0.139  10.028  18.096  0.00  0.00    +0.000 A 
ATOM      9  C   UNL     1      -1.403   9.924  17.480  0.00  0.00    +0.000 A 
ATOM     10  C   UNL     1      -2.345  10.955  17.546  0.00  0.00    +0.000 A 
ATOM     11  C   UNL     1      -2.050  12.122  18.245  0.00  0.00    +0.000 A 
ATOM     12  C   UNL     1      -0.814  12.247  18.877  0.00  0.00    +0.000 A 
ATOM     13  C   UNL     1       0.124  11.219  18.802  0.00  0.00    +0.000 A 
ENDBRANCH   7   8
ENDBRANCH   2   5
BRANCH   1  14
ATOM     14  C   UNL     1       3.780   5.456  18.425  0.00  0.00    +0.000 C 
BRANCH  14  16
ATOM     15  N   UNL     1       6.053   6.303  17.837  0.00  0.00    +0.000 N 
ATOM     16  C   UNL     1       5.325   5.370  18.532  0.00  0.00    +0.000 C 
ATOM     17  O   UNL     1       5.883   4.585  19.303  0.00  0.00    +0.000 OA
ATOM     18  H   UNL     1       5.578   6.994  17.271  0.00  0.00    +0.000 HD
BRANCH  15  19
ATOM     19  C   UNL     1       7.488   6.362  17.980  0.00  0.00    +0.000 C 
BRANCH  19  21
ATOM     20  C   UNL     1       8.331   9.056  18.026  0.00  0.00    +0.000 C 
ATOM     21  C   UNL     1       7.941   7.812  18.004  0.00  0.00    +0.000 C 
ENDBRANCH  19  21
ENDBRANCH  15  19
ENDBRANCH  14  16
BRANCH  14  22
ATOM     22  C   UNL     1       3.255   4.563  17.273  0.00  0.00    +0.000 C 
BRANCH  22  23
ATOM     23  C   UNL     1       2.443   3.283  17.600  0.00  0.00    +0.000 C 
ATOM     24  C   UNL     1       3.256   2.055  18.018  0.00  0.00    +0.000 C 
ATOM     25  C   UNL     1       1.464   3.603  18.744  0.00  0.00    +0.000 C 
ENDBRANCH  22  23
ENDBRANCH  14  22
ENDBRANCH   1  14
TORSDOF 8
ENDMDL
MODEL 8
REMARK VINA RESULT:      -6.7      5.085      7.423
REMARK  Name = 
REMARK  10 active torsions:
REMARK  status: ('A' for Active; 'I' for Inactive)
REMARK    1  A    between atoms: C_2  and  C_3
REMARK    2  A    between atoms: C_3  and  N_4
REMARK    3  A    between atoms: C_5  and  C_7
REMARK    4  A    between atoms: C_7  and  C_8
REMARK    5  A    between atoms: C_7  and  N_12
REMARK    6  A    between atoms: C_8  and  C_9
REMARK    7  A    between atoms: C_9  and  C_10
REMARK    8  A    between atoms: C_9  and  C_11
REMARK    9  A    between atoms: C_13  and  C_15
REMARK   10  A    between atoms: C_17  and  C_18
REMARK                            x       y       z     vdW  Elec       q    Type
REMARK                         _______ _______ _______ _____ _____    ______ ____
ROOT
ATOM      1  N   UNL     1       2.902   6.873  18.301  0.00  0.00    +0.000 N 
ATOM      2  C   UNL     1       2.400   6.864  19.584  0.00  0.00    +0.000 C 
ATOM      3  O   UNL     1       2.371   5.877  20.307  0.00  0.00    +0.000 OA
ATOM      4  H   UNL     1       2.644   7.682  17.745  0.00  0.00    +0.000 HD
ENDROOT
BRANCH   2   5
ATOM      5  C   UNL     1       1.961   8.181  20.102  0.00  0.00    +0.000 C 
ATOM      6  O   UNL     1       1.526   9.105  19.094  0.00  0.00    +0.000 OA
ATOM      7  C   UNL     1       0.517   8.626  20.010  0.00  0.00    +0.000 C 
BRANCH   7   8
ATOM      8  C   UNL     1      -0.038   9.622  20.998  0.00  0.00    +0.000 A 
ATOM      9  C   UNL     1      -0.311  10.953  20.619  0.00  0.00    +0.000 A 
ATOM     10  C   UNL     1      -0.822  11.889  21.524  0.00  0.00    +0.000 A 
ATOM     11  C   UNL     1      -1.086  11.513  22.837  0.00  0.00    +0.000 A 
ATOM     12  C   UNL     1      -0.840  10.200  23.237  0.00  0.00    +0.000 A 
ATOM     13  C   UNL     1      -0.324   9.273  22.333  0.00  0.00    +0.000 A 
ENDBRANCH   7   8
ENDBRANCH   2   5
BRANCH   1  14
ATOM     14  C   UNL     1       3.327   5.650  17.612  0.00  0.00    +0.000 C 
BRANCH  14  16
ATOM     15  N   UNL     1       3.053   3.416  18.692  0.00  0.00    +0.000 N 
ATOM     16  C   UNL     1       2.497   4.365  17.871  0.00  0.00    +0.000 C 
ATOM     17  O   UNL     1       1.338   4.246  17.468  0.00  0.00    +0.000 OA
ATOM     18  H   UNL     1       3.975   3.563  19.083  0.00  0.00    +0.000 HD
BRANCH  15  19
ATOM     19  C   UNL     1       2.295   2.249  19.074  0.00  0.00    +0.000 C 
BRANCH  19  21
ATOM     20  C   UNL     1       1.337   2.559  21.713  0.00  0.00    +0.000 C 
ATOM     21  C   UNL     1       1.780   2.416  20.494  0.00  0.00    +0.000 C 
ENDBRANCH  19  21
ENDBRANCH  15  19
ENDBRANCH  14  16
BRANCH  14  22
ATOM     22  C   UNL     1       4.843   5.371  17.773  0.00  0.00    +0.000 C 
BRANCH  22  23
ATOM     23  C   UNL     1       5.637   4.736  16.602  0.00  0.00    +0.000 C 
ATOM     24  C   UNL     1       5.542   5.456  15.254  0.00  0.00    +0.000 C 
ATOM     25  C   UNL     1       7.124   4.678  16.994  0.00  0.00    +0.000 C 
ENDBRANCH  22  23
ENDBRANCH  14  22
ENDBRANCH   1  14
TORSDOF 8
ENDMDL
MODEL 9
REMARK VINA RESULT:      -6.7      6.655     10.300
REMARK  Name = 
REMARK  10 active torsions:
REMARK  status: ('A' for Active; 'I' for Inactive)
REMARK    1  A    between atoms: C_2  and  C_3
REMARK    2  A    between atoms: C_3  and  N_4
REMARK    3  A    between atoms: C_5  and  C_7
REMARK    4  A    between atoms: C_7  and  C_8
REMARK    5  A    between atoms: C_7  and  N_12
REMARK    6  A    between atoms: C_8  and  C_9
REMARK    7  A    between atoms: C_9  and  C_10
REMARK    8  A    between atoms: C_9  and  C_11
REMARK    9  A    between atoms: C_13  and  C_15
REMARK   10  A    between atoms: C_17  and  C_18
REMARK                            x       y       z     vdW  Elec       q    Type
REMARK                         _______ _______ _______ _____ _____    ______ ____
ROOT
ATOM      1  N   UNL     1       0.846   9.702  19.087  0.00  0.00    +0.000 N 
ATOM      2  C   UNL     1       1.773   9.236  18.180  0.00  0.00    +0.000 C 
ATOM      3  O   UNL     1       2.545   9.948  17.554  0.00  0.00    +0.000 OA
ATOM      4  H   UNL     1       0.123   9.036  19.342  0.00  0.00    +0.000 HD
ENDROOT
BRANCH   2   5
ATOM      5  C   UNL     1       1.854   7.761  18.060  0.00  0.00    +0.000 C 
ATOM      6  O   UNL     1       3.182   7.248  17.880  0.00  0.00    +0.000 OA
ATOM      7  C   UNL     1       2.525   6.916  19.123  0.00  0.00    +0.000 C 
BRANCH   7   8
ATOM      8  C   UNL     1       2.121   5.476  19.320  0.00  0.00    +0.000 A 
ATOM      9  C   UNL     1       1.636   5.015  20.561  0.00  0.00    +0.000 A 
ATOM     10  C   UNL     1       1.261   3.683  20.760  0.00  0.00    +0.000 A 
ATOM     11  C   UNL     1       1.352   2.772  19.712  0.00  0.00    +0.000 A 
ATOM     12  C   UNL     1       1.814   3.202  18.469  0.00  0.00    +0.000 A 
ATOM     13  C   UNL     1       2.193   4.529  18.278  0.00  0.00    +0.000 A 
ENDBRANCH   7   8
ENDBRANCH   2   5
BRANCH   1  14
ATOM     14  C   UNL     1       0.593  11.132  19.289  0.00  0.00    +0.000 C 
BRANCH  14  16
ATOM     15  N   UNL     1      -0.313  12.699  21.009  0.00  0.00    +0.000 N 
ATOM     16  C   UNL     1       0.523  11.641  20.753  0.00  0.00    +0.000 C 
ATOM     17  O   UNL     1       1.090  11.050  21.676  0.00  0.00    +0.000 OA
ATOM     18  H   UNL     1      -0.836  13.123  20.254  0.00  0.00    +0.000 HD
BRANCH  15  19
ATOM     19  C   UNL     1      -0.522  13.152  22.364  0.00  0.00    +0.000 C 
BRANCH  19  21
ATOM     20  C   UNL     1      -2.993  12.179  23.323  0.00  0.00    +0.000 C 
ATOM     21  C   UNL     1      -1.852  12.628  22.880  0.00  0.00    +0.000 C 
ENDBRANCH  19  21
ENDBRANCH  15  19
ENDBRANCH  14  16
BRANCH  14  22
ATOM     22  C   UNL     1      -0.616  11.646  18.468  0.00  0.00    +0.000 C 
BRANCH  22  23
ATOM     23  C   UNL     1      -1.924  10.815  18.421  0.00  0.00    +0.000 C 
ATOM     24  C   UNL     1      -3.229  11.598  18.588  0.00  0.00    +0.000 C 
ATOM     25  C   UNL     1      -1.991  10.083  17.069  0.00  0.00    +0.000 C 
ENDBRANCH  22  23
ENDBRANCH  14  22
ENDBRANCH   1  14
TORSDOF 8
ENDMDL
