MODEL 1
REMARK VINA RESULT:      -8.8      0.000      0.000
REMARK  Name = 
REMARK  5 active torsions:
REMARK  status: ('A' for Active; 'I' for Inactive)
REMARK    1  A    between atoms: C_2  and  C_21
REMARK    2  A    between atoms: N_3  and  C_4
REMARK    3  A    between atoms: C_4  and  C_5
REMARK    4  A    between atoms: CA_11  and  C_12
REMARK    5  A    between atoms: C_12  and  OXT_14
REMARK                            x       y       z     vdW  Elec       q    Type
REMARK                         _______ _______ _______ _____ _____    ______ ____
ROOT
ATOM      1  C   UNK A   1       3.312   5.461  18.771  0.00  0.00    +0.000 C 
ATOM      2  C   UNK A   1       2.704   4.298  18.402  0.00  0.00    +0.000 C 
ATOM      3  C   UNK A   1       3.394   3.064  17.834  0.00  0.00    +0.000 C 
ATOM      4  C   UNK A   1       3.061   1.795  18.639  0.00  0.00    +0.000 C 
ATOM      5  C   UNK A   1       1.558   1.558  18.745  0.00  0.00    +0.000 C 
ATOM      6  C   UNK A   1       0.869   2.778  19.332  0.00  0.00    +0.000 C 
ATOM      7  C   UNK A   1       1.200   4.043  18.540  0.00  0.00    +0.000 C 
ENDROOT
BRANCH   1   8
ATOM      8  C   UNK A   1       4.830   5.664  18.676  0.00  0.00    +0.000 C 
ATOM      9  O   UNK A   1       5.526   5.728  19.694  0.00  0.00    +0.000 OA
ATOM     10  N   PRO A   2       5.468   5.862  17.459  0.00  0.00    +0.000 N 
ATOM     11  CD  PRO A   2       4.909   6.119  16.143  0.00  0.00    +0.000 C 
ATOM     12  CG  PRO A   2       5.838   5.410  15.178  0.00  0.00    +0.000 C 
ATOM     13  CB  PRO A   2       7.206   5.474  15.839  0.00  0.00    +0.000 C 
ATOM     14  CA  PRO A   2       6.941   5.710  17.337  0.00  0.00    +0.000 C 
BRANCH  14  15
ATOM     15  C   PRO A   2       7.777   6.912  17.835  0.00  0.00    +0.000 C 
ATOM     16  O   PRO A   2       7.974   7.929  17.188  0.00  0.00    +0.000 OA
BRANCH  15  17
ATOM     17  OXT PRO A   2       8.370   6.722  19.033  0.00  0.00    +0.000 OA
ATOM     18  HXT PRO A   2       7.732   6.357  19.689  0.00  0.00    +0.000 HD
ENDBRANCH  15  17
ENDBRANCH  14  15
ENDBRANCH   1   8
BRANCH   1  21
ATOM     19  O   UNK A   0       2.546   8.085  17.790  0.00  0.00    +0.000 OA
ATOM     20  C   UNK A   0       2.239   7.675  18.907  0.00  0.00    +0.000 C 
ATOM     21  N   UNK A   1       2.607   6.447  19.437  0.00  0.00    +0.000 N 
ATOM     22  H   UNK A   1       2.404   6.246  20.404  0.00  0.00    +0.000 HD
BRANCH  20  23
ATOM     23  C   UNK A   0       1.438   8.545  19.809  0.00  0.00    +0.000 A 
ATOM     24  C   UNK A   0       1.262   8.150  21.140  0.00  0.00    +0.000 A 
ATOM     25  C   UNK A   0       0.506   8.938  22.008  0.00  0.00    +0.000 A 
ATOM     26  C   UNK A   0      -0.083  10.116  21.546  0.00  0.00    +0.000 A 
ATOM     27  C   UNK A   0       0.081  10.508  20.218  0.00  0.00    +0.000 A 
ATOM     28  C   UNK A   0       0.839   9.725  19.347  0.00  0.00    +0.000 A 
ENDBRANCH  20  23
ENDBRANCH   1  21
TORSDOF 5
ENDMDL
MODEL 2
REMARK VINA RESULT:      -8.4      0.384      1.021
REMARK  Name = 
REMARK  5 active torsions:
REMARK  status: ('A' for Active; 'I' for Inactive)
REMARK    1  A    between atoms: C_2  and  C_21
REMARK    2  A    between atoms: N_3  and  C_4
REMARK    3  A    between atoms: C_4  and  C_5
REMARK    4  A    between atoms: CA_11  and  C_12
REMARK    5  A    between atoms: C_12  and  OXT_14
REMARK                            x       y       z     vdW  Elec       q    Type
REMARK                         _______ _______ _______ _____ _____    ______ ____
ROOT
ATOM      1  C   UNK A   1       3.395   5.584  19.046  0.00  0.00    +0.000 C 
ATOM      2  C   UNK A   1       2.742   4.432  18.724  0.00  0.00    +0.000 C 
ATOM      3  C   UNK A   1       3.369   3.183  18.116  0.00  0.00    +0.000 C 
ATOM      4  C   UNK A   1       3.068   1.923  18.946  0.00  0.00    +0.000 C 
ATOM      5  C   UNK A   1       1.571   1.714  19.153  0.00  0.00    +0.000 C 
ATOM      6  C   UNK A   1       0.945   2.949  19.781  0.00  0.00    +0.000 C 
ATOM      7  C   UNK A   1       1.247   4.205  18.963  0.00  0.00    +0.000 C 
ENDROOT
BRANCH   1   8
ATOM      8  C   UNK A   1       4.907   5.758  18.849  0.00  0.00    +0.000 C 
ATOM      9  O   UNK A   1       5.682   5.704  19.809  0.00  0.00    +0.000 OA
ATOM     10  N   PRO A   2       5.454   6.060  17.610  0.00  0.00    +0.000 N 
ATOM     11  CD  PRO A   2       4.802   6.459  16.374  0.00  0.00    +0.000 C 
ATOM     12  CG  PRO A   2       5.629   5.827  15.273  0.00  0.00    +0.000 C 
ATOM     13  CB  PRO A   2       7.046   5.792  15.824  0.00  0.00    +0.000 C 
ATOM     14  CA  PRO A   2       6.907   5.885  17.354  0.00  0.00    +0.000 C 
BRANCH  14  15
ATOM     15  C   PRO A   2       7.817   7.010  17.897  0.00  0.00    +0.000 C 
ATOM     16  O   PRO A   2       8.053   8.052  17.304  0.00  0.00    +0.000 OA
BRANCH  15  17
ATOM     17  OXT PRO A   2       8.429   6.721  19.065  0.00  0.00    +0.000 OA
ATOM     18  HXT PRO A   2       8.923   5.871  19.004  0.00  0.00    +0.000 HD
ENDBRANCH  15  17
ENDBRANCH  14  15
ENDBRANCH   1   8
BRANCH   1  21
ATOM     19  O   UNK A   0       2.013   7.913  18.000  0.00  0.00    +0.000 OA
ATOM     20  C   UNK A   0       2.080   7.662  19.201  0.00  0.00    +0.000 C 
ATOM     21  N   UNK A   1       2.755   6.585  19.755  0.00  0.00    +0.000 N 
ATOM     22  H   UNK A   1       2.850   6.524  20.758  0.00  0.00    +0.000 HD
BRANCH  20  23
ATOM     23  C   UNK A   0       1.429   8.577  20.175  0.00  0.00    +0.000 A 
ATOM     24  C   UNK A   0       1.061   9.859  19.750  0.00  0.00    +0.000 A 
ATOM     25  C   UNK A   0       0.458  10.744  20.644  0.00  0.00    +0.000 A 
ATOM     26  C   UNK A   0       0.232  10.356  21.965  0.00  0.00    +0.000 A 
ATOM     27  C   UNK A   0       0.607   9.084  22.395  0.00  0.00    +0.000 A 
ATOM     28  C   UNK A   0       1.206   8.193  21.505  0.00  0.00    +0.000 A 
ENDBRANCH  20  23
ENDBRANCH   1  21
TORSDOF 5
ENDMDL
MODEL 3
REMARK VINA RESULT:      -8.1      0.914      1.277
REMARK  Name = 
REMARK  5 active torsions:
REMARK  status: ('A' for Active; 'I' for Inactive)
REMARK    1  A    between atoms: C_2  and  C_21
REMARK    2  A    between atoms: N_3  and  C_4
REMARK    3  A    between atoms: C_4  and  C_5
REMARK    4  A    between atoms: CA_11  and  C_12
REMARK    5  A    between atoms: C_12  and  OXT_14
REMARK                            x       y       z     vdW  Elec       q    Type
REMARK                         _______ _______ _______ _____ _____    ______ ____
ROOT
ATOM      1  C   UNK A   1       3.245   5.479  18.362  0.00  0.00    +0.000 C 
ATOM      2  C   UNK A   1       2.665   4.270  18.115  0.00  0.00    +0.000 C 
ATOM      3  C   UNK A   1       3.395   2.966  17.821  0.00  0.00    +0.000 C 
ATOM      4  C   UNK A   1       2.963   1.835  18.772  0.00  0.00    +0.000 C 
ATOM      5  C   UNK A   1       1.454   1.611  18.751  0.00  0.00    +0.000 C 
ATOM      6  C   UNK A   1       0.722   2.905  19.066  0.00  0.00    +0.000 C 
ATOM      7  C   UNK A   1       1.152   4.033  18.129  0.00  0.00    +0.000 C 
ENDROOT
BRANCH   1   8
ATOM      8  C   UNK A   1       4.767   5.671  18.400  0.00  0.00    +0.000 C 
ATOM      9  O   UNK A   1       5.366   5.773  19.476  0.00  0.00    +0.000 OA
ATOM     10  N   PRO A   2       5.516   5.815  17.241  0.00  0.00    +0.000 N 
ATOM     11  CD  PRO A   2       5.083   6.019  15.869  0.00  0.00    +0.000 C 
ATOM     12  CG  PRO A   2       6.091   5.266  15.024  0.00  0.00    +0.000 C 
ATOM     13  CB  PRO A   2       7.393   5.352  15.806  0.00  0.00    +0.000 C 
ATOM     14  CA  PRO A   2       6.992   5.651  17.262  0.00  0.00    +0.000 C 
BRANCH  14  15
ATOM     15  C   PRO A   2       7.789   6.868  17.785  0.00  0.00    +0.000 C 
ATOM     16  O   PRO A   2       7.992   7.887  17.143  0.00  0.00    +0.000 OA
BRANCH  15  17
ATOM     17  OXT PRO A   2       8.342   6.693  19.005  0.00  0.00    +0.000 OA
ATOM     18  HXT PRO A   2       8.348   5.741  19.256  0.00  0.00    +0.000 HD
ENDBRANCH  15  17
ENDBRANCH  14  15
ENDBRANCH   1   8
BRANCH   1  21
ATOM     19  O   UNK A   0       2.177   5.969  21.018  0.00  0.00    +0.000 OA
ATOM     20  C   UNK A   0       2.027   6.754  20.084  0.00  0.00    +0.000 C 
ATOM     21  N   UNK A   1       2.486   6.553  18.790  0.00  0.00    +0.000 N 
ATOM     22  H   UNK A   1       2.217   7.201  18.065  0.00  0.00    +0.000 HD
BRANCH  20  23
ATOM     23  C   UNK A   0       1.273   8.015  20.305  0.00  0.00    +0.000 A 
ATOM     24  C   UNK A   0       1.312   9.003  19.314  0.00  0.00    +0.000 A 
ATOM     25  C   UNK A   0       0.623  10.203  19.497  0.00  0.00    +0.000 A 
ATOM     26  C   UNK A   0      -0.096  10.422  20.672  0.00  0.00    +0.000 A 
ATOM     27  C   UNK A   0      -0.129   9.445  21.666  0.00  0.00    +0.000 A 
ATOM     28  C   UNK A   0       0.554   8.242  21.487  0.00  0.00    +0.000 A 
ENDBRANCH  20  23
ENDBRANCH   1  21
TORSDOF 5
ENDMDL
MODEL 4
REMARK VINA RESULT:      -8.1      1.423      1.904
REMARK  Name = 
REMARK  5 active torsions:
REMARK  status: ('A' for Active; 'I' for Inactive)
REMARK    1  A    between atoms: C_2  and  C_21
REMARK    2  A    between atoms: N_3  and  C_4
REMARK    3  A    between atoms: C_4  and  C_5
REMARK    4  A    between atoms: CA_11  and  C_12
REMARK    5  A    between atoms: C_12  and  OXT_14
REMARK                            x       y       z     vdW  Elec       q    Type
REMARK                         _______ _______ _______ _____ _____    ______ ____
ROOT
ATOM      1  C   UNK A   1       3.049   5.612  17.989  0.00  0.00    +0.000 C 
ATOM      2  C   UNK A   1       2.424   4.400  17.986  0.00  0.00    +0.000 C 
ATOM      3  C   UNK A   1       2.935   3.127  17.322  0.00  0.00    +0.000 C 
ATOM      4  C   UNK A   1       3.006   1.949  18.310  0.00  0.00    +0.000 C 
ATOM      5  C   UNK A   1       1.666   1.688  18.992  0.00  0.00    +0.000 C 
ATOM      6  C   UNK A   1       1.164   2.949  19.674  0.00  0.00    +0.000 C 
ATOM      7  C   UNK A   1       1.097   4.124  18.699  0.00  0.00    +0.000 C 
ENDROOT
BRANCH   1   8
ATOM      8  C   UNK A   1       4.408   5.841  17.315  0.00  0.00    +0.000 C 
ATOM      9  O   UNK A   1       4.479   6.210  16.138  0.00  0.00    +0.000 OA
ATOM     10  N   PRO A   2       5.603   5.569  17.967  0.00  0.00    +0.000 N 
ATOM     11  CD  PRO A   2       5.846   4.875  19.220  0.00  0.00    +0.000 C 
ATOM     12  CG  PRO A   2       7.032   5.588  19.839  0.00  0.00    +0.000 C 
ATOM     13  CB  PRO A   2       7.855   6.071  18.655  0.00  0.00    +0.000 C 
ATOM     14  CA  PRO A   2       6.890   6.109  17.456  0.00  0.00    +0.000 C 
BRANCH  14  15
ATOM     15  C   PRO A   2       7.505   5.343  16.262  0.00  0.00    +0.000 C 
ATOM     16  O   PRO A   2       7.551   5.771  15.119  0.00  0.00    +0.000 OA
BRANCH  15  17
ATOM     17  OXT PRO A   2       7.921   4.092  16.555  0.00  0.00    +0.000 OA
ATOM     18  HXT PRO A   2       8.744   4.111  17.096  0.00  0.00    +0.000 HD
ENDBRANCH  15  17
ENDBRANCH  14  15
ENDBRANCH   1   8
BRANCH   1  21
ATOM     19  O   UNK A   0       2.278   8.283  17.148  0.00  0.00    +0.000 OA
ATOM     20  C   UNK A   0       2.191   7.899  18.312  0.00  0.00    +0.000 C 
ATOM     21  N   UNK A   1       2.577   6.649  18.773  0.00  0.00    +0.000 N 
ATOM     22  H   UNK A   1       2.573   6.465  19.765  0.00  0.00    +0.000 HD
BRANCH  20  23
ATOM     23  C   UNK A   0       1.668   8.828  19.349  0.00  0.00    +0.000 A 
ATOM     24  C   UNK A   0       1.533   8.361  20.661  0.00  0.00    +0.000 A 
ATOM     25  C   UNK A   0       1.035   9.205  21.655  0.00  0.00    +0.000 A 
ATOM     26  C   UNK A   0       0.660  10.511  21.337  0.00  0.00    +0.000 A 
ATOM     27  C   UNK A   0       0.783  10.976  20.029  0.00  0.00    +0.000 A 
ATOM     28  C   UNK A   0       1.285  10.138  19.033  0.00  0.00    +0.000 A 
ENDBRANCH  20  23
ENDBRANCH   1  21
TORSDOF 5
ENDMDL
MODEL 5
REMARK VINA RESULT:      -7.9      1.531      2.240
REMARK  Name = 
REMARK  5 active torsions:
REMARK  status: ('A' for Active; 'I' for Inactive)
REMARK    1  A    between atoms: C_2  and  C_21
REMARK    2  A    between atoms: N_3  and  C_4
REMARK    3  A    between atoms: C_4  and  C_5
REMARK    4  A    between atoms: CA_11  and  C_12
REMARK    5  A    between atoms: C_12  and  OXT_14
REMARK                            x       y       z     vdW  Elec       q    Type
REMARK                         _______ _______ _______ _____ _____    ______ ____
ROOT
ATOM      1  C   UNK A   1       3.012   5.476  17.628  0.00  0.00    +0.000 C 
ATOM      2  C   UNK A   1       2.473   4.229  17.739  0.00  0.00    +0.000 C 
ATOM      3  C   UNK A   1       3.126   2.925  17.296  0.00  0.00    +0.000 C 
ATOM      4  C   UNK A   1       3.186   1.893  18.436  0.00  0.00    +0.000 C 
ATOM      5  C   UNK A   1       1.812   1.617  19.036  0.00  0.00    +0.000 C 
ATOM      6  C   UNK A   1       1.166   2.912  19.500  0.00  0.00    +0.000 C 
ATOM      7  C   UNK A   1       1.109   3.943  18.373  0.00  0.00    +0.000 C 
ENDROOT
BRANCH   1   8
ATOM      8  C   UNK A   1       4.408   5.723  17.042  0.00  0.00    +0.000 C 
ATOM      9  O   UNK A   1       4.549   6.074  15.866  0.00  0.00    +0.000 OA
ATOM     10  N   PRO A   2       5.562   5.488  17.775  0.00  0.00    +0.000 N 
ATOM     11  CD  PRO A   2       5.736   4.819  19.054  0.00  0.00    +0.000 C 
ATOM     12  CG  PRO A   2       6.863   5.567  19.737  0.00  0.00    +0.000 C 
ATOM     13  CB  PRO A   2       7.753   6.048  18.601  0.00  0.00    +0.000 C 
ATOM     14  CA  PRO A   2       6.869   6.046  17.341  0.00  0.00    +0.000 C 
BRANCH  14  15
ATOM     15  C   PRO A   2       7.577   5.274  16.204  0.00  0.00    +0.000 C 
ATOM     16  O   PRO A   2       7.710   5.694  15.065  0.00  0.00    +0.000 OA
BRANCH  15  17
ATOM     17  OXT PRO A   2       7.973   4.027  16.537  0.00  0.00    +0.000 OA
ATOM     18  HXT PRO A   2       8.955   3.960  16.553  0.00  0.00    +0.000 HD
ENDBRANCH  15  17
ENDBRANCH  14  15
ENDBRANCH   1   8
BRANCH   1  21
ATOM     19  O   UNK A   0       2.851   6.106  20.458  0.00  0.00    +0.000 OA
ATOM     20  C   UNK A   0       2.384   6.834  19.586  0.00  0.00    +0.000 C 
ATOM     21  N   UNK A   1       2.402   6.565  18.225  0.00  0.00    +0.000 N 
ATOM     22  H   UNK A   1       1.894   7.167  17.596  0.00  0.00    +0.000 HD
BRANCH  20  23
ATOM     23  C   UNK A   0       1.706   8.098  19.977  0.00  0.00    +0.000 A 
ATOM     24  C   UNK A   0       1.521   9.089  19.006  0.00  0.00    +0.000 A 
ATOM     25  C   UNK A   0       0.898  10.291  19.345  0.00  0.00    +0.000 A 
ATOM     26  C   UNK A   0       0.469  10.509  20.654  0.00  0.00    +0.000 A 
ATOM     27  C   UNK A   0       0.661   9.529  21.627  0.00  0.00    +0.000 A 
ATOM     28  C   UNK A   0       1.279   8.324  21.293  0.00  0.00    +0.000 A 
ENDBRANCH  20  23
ENDBRANCH   1  21
TORSDOF 5
ENDMDL
MODEL 6
REMARK VINA RESULT:      -7.8      1.453      2.217
REMARK  Name = 
REMARK  5 active torsions:
REMARK  status: ('A' for Active; 'I' for Inactive)
REMARK    1  A    between atoms: C_2  and  C_21
REMARK    2  A    between atoms: N_3  and  C_4
REMARK    3  A    between atoms: C_4  and  C_5
REMARK    4  A    between atoms: CA_11  and  C_12
REMARK    5  A    between atoms: C_12  and  OXT_14
REMARK                            x       y       z     vdW  Elec       q    Type
REMARK                         _______ _______ _______ _____ _____    ______ ____
ROOT
ATOM      1  C   UNK A   1       2.855   5.635  18.353  0.00  0.00    +0.000 C 
ATOM      2  C   UNK A   1       2.272   4.407  18.459  0.00  0.00    +0.000 C 
ATOM      3  C   UNK A   1       2.748   3.124  17.788  0.00  0.00    +0.000 C 
ATOM      4  C   UNK A   1       2.959   1.986  18.803  0.00  0.00    +0.000 C 
ATOM      5  C   UNK A   1       1.709   1.715  19.633  0.00  0.00    +0.000 C 
ATOM      6  C   UNK A   1       1.243   2.987  20.322  0.00  0.00    +0.000 C 
ATOM      7  C   UNK A   1       1.037   4.122  19.319  0.00  0.00    +0.000 C 
ENDROOT
BRANCH   1   8
ATOM      8  C   UNK A   1       4.128   5.875  17.530  0.00  0.00    +0.000 C 
ATOM      9  O   UNK A   1       4.062   6.276  16.364  0.00  0.00    +0.000 OA
ATOM     10  N   PRO A   2       5.389   5.579  18.029  0.00  0.00    +0.000 N 
ATOM     11  CD  PRO A   2       5.772   4.849  19.225  0.00  0.00    +0.000 C 
ATOM     12  CG  PRO A   2       7.028   5.538  19.719  0.00  0.00    +0.000 C 
ATOM     13  CB  PRO A   2       7.710   6.049  18.460  0.00  0.00    +0.000 C 
ATOM     14  CA  PRO A   2       6.611   6.126  17.385  0.00  0.00    +0.000 C 
BRANCH  14  15
ATOM     15  C   PRO A   2       7.074   5.390  16.106  0.00  0.00    +0.000 C 
ATOM     16  O   PRO A   2       7.899   4.489  16.091  0.00  0.00    +0.000 OA
BRANCH  15  17
ATOM     17  OXT PRO A   2       6.561   5.883  14.959  0.00  0.00    +0.000 OA
ATOM     18  HXT PRO A   2       5.595   5.703  14.898  0.00  0.00    +0.000 HD
ENDBRANCH  15  17
ENDBRANCH  14  15
ENDBRANCH   1   8
BRANCH   1  21
ATOM     19  O   UNK A   0       1.746   8.182  17.509  0.00  0.00    +0.000 OA
ATOM     20  C   UNK A   0       1.882   7.874  18.690  0.00  0.00    +0.000 C 
ATOM     21  N   UNK A   1       2.437   6.687  19.148  0.00  0.00    +0.000 N 
ATOM     22  H   UNK A   1       2.611   6.571  20.134  0.00  0.00    +0.000 HD
BRANCH  20  23
ATOM     23  C   UNK A   0       1.465   8.831  19.747  0.00  0.00    +0.000 A 
ATOM     24  C   UNK A   0       1.157  10.146  19.379  0.00  0.00    +0.000 A 
ATOM     25  C   UNK A   0       0.773  11.072  20.349  0.00  0.00    +0.000 A 
ATOM     26  C   UNK A   0       0.706  10.690  21.690  0.00  0.00    +0.000 A 
ATOM     27  C   UNK A   0       1.022   9.384  22.063  0.00  0.00    +0.000 A 
ATOM     28  C   UNK A   0       1.403   8.454  21.096  0.00  0.00    +0.000 A 
ENDBRANCH  20  23
ENDBRANCH   1  21
TORSDOF 5
ENDMDL
MODEL 7
REMARK VINA RESULT:      -7.6      1.216      1.470
REMARK  Name = 
REMARK  5 active torsions:
REMARK  status: ('A' for Active; 'I' for Inactive)
REMARK    1  A    between atoms: C_2  and  C_21
REMARK    2  A    between atoms: N_3  and  C_4
REMARK    3  A    between atoms: C_4  and  C_5
REMARK    4  A    between atoms: CA_11  and  C_12
REMARK    5  A    between atoms: C_12  and  OXT_14
REMARK                            x       y       z     vdW  Elec       q    Type
REMARK                         _______ _______ _______ _____ _____    ______ ____
ROOT
ATOM      1  C   UNK A   1       3.311   5.499  18.872  0.00  0.00    +0.000 C 
ATOM      2  C   UNK A   1       2.754   4.315  19.256  0.00  0.00    +0.000 C 
ATOM      3  C   UNK A   1       3.506   3.028  19.572  0.00  0.00    +0.000 C 
ATOM      4  C   UNK A   1       3.152   2.480  20.965  0.00  0.00    +0.000 C 
ATOM      5  C   UNK A   1       1.651   2.270  21.137  0.00  0.00    +0.000 C 
ATOM      6  C   UNK A   1       0.899   3.557  20.845  0.00  0.00    +0.000 C 
ATOM      7  C   UNK A   1       1.251   4.109  19.464  0.00  0.00    +0.000 C 
ENDROOT
BRANCH   1   8
ATOM      8  C   UNK A   1       4.827   5.690  18.730  0.00  0.00    +0.000 C 
ATOM      9  O   UNK A   1       5.554   5.750  19.727  0.00  0.00    +0.000 OA
ATOM     10  N   PRO A   2       5.429   5.879  17.494  0.00  0.00    +0.000 N 
ATOM     11  CD  PRO A   2       4.832   6.136  16.195  0.00  0.00    +0.000 C 
ATOM     12  CG  PRO A   2       5.725   5.417  15.204  0.00  0.00    +0.000 C 
ATOM     13  CB  PRO A   2       7.113   5.472  15.822  0.00  0.00    +0.000 C 
ATOM     14  CA  PRO A   2       6.896   5.714  17.327  0.00  0.00    +0.000 C 
BRANCH  14  15
ATOM     15  C   PRO A   2       7.756   6.911  17.796  0.00  0.00    +0.000 C 
ATOM     16  O   PRO A   2       7.969   7.911  17.127  0.00  0.00    +0.000 OA
BRANCH  15  17
ATOM     17  OXT PRO A   2       8.352   6.736  18.995  0.00  0.00    +0.000 OA
ATOM     18  HXT PRO A   2       8.093   7.447  19.625  0.00  0.00    +0.000 HD
ENDBRANCH  15  17
ENDBRANCH  14  15
ENDBRANCH   1   8
BRANCH   1  21
ATOM     19  O   UNK A   0       2.261   7.118  21.041  0.00  0.00    +0.000 OA
ATOM     20  C   UNK A   0       2.094   7.402  19.858  0.00  0.00    +0.000 C 
ATOM     21  N   UNK A   1       2.543   6.646  18.784  0.00  0.00    +0.000 N 
ATOM     22  H   UNK A   1       2.260   6.899  17.850  0.00  0.00    +0.000 HD
BRANCH  20  23
ATOM     23  C   UNK A   0       1.327   8.623  19.501  0.00  0.00    +0.000 A 
ATOM     24  C   UNK A   0       0.510   9.211  20.474  0.00  0.00    +0.000 A 
ATOM     25  C   UNK A   0      -0.232  10.352  20.167  0.00  0.00    +0.000 A 
ATOM     26  C   UNK A   0      -0.168  10.902  18.886  0.00  0.00    +0.000 A 
ATOM     27  C   UNK A   0       0.636  10.313  17.910  0.00  0.00    +0.000 A 
ATOM     28  C   UNK A   0       1.383   9.175  18.213  0.00  0.00    +0.000 A 
ENDBRANCH  20  23
ENDBRANCH   1  21
TORSDOF 5
ENDMDL
MODEL 8
REMARK VINA RESULT:      -7.5      1.185      1.240
REMARK  Name = 
REMARK  5 active torsions:
REMARK  status: ('A' for Active; 'I' for Inactive)
REMARK    1  A    between atoms: C_2  and  C_21
REMARK    2  A    between atoms: N_3  and  C_4
REMARK    3  A    between atoms: C_4  and  C_5
REMARK    4  A    between atoms: CA_11  and  C_12
REMARK    5  A    between atoms: C_12  and  OXT_14
REMARK                            x       y       z     vdW  Elec       q    Type
REMARK                         _______ _______ _______ _____ _____    ______ ____
ROOT
ATOM      1  C   UNK A   1       3.497   5.372  19.608  0.00  0.00    +0.000 C 
ATOM      2  C   UNK A   1       2.925   4.160  19.861  0.00  0.00    +0.000 C 
ATOM      3  C   UNK A   1       3.608   2.803  19.747  0.00  0.00    +0.000 C 
ATOM      4  C   UNK A   1       3.494   1.988  21.047  0.00  0.00    +0.000 C 
ATOM      5  C   UNK A   1       2.046   1.814  21.493  0.00  0.00    +0.000 C 
ATOM      6  C   UNK A   1       1.367   3.167  21.631  0.00  0.00    +0.000 C 
ATOM      7  C   UNK A   1       1.482   3.984  20.344  0.00  0.00    +0.000 C 
ENDROOT
BRANCH   1   8
ATOM      8  C   UNK A   1       4.964   5.519  19.183  0.00  0.00    +0.000 C 
ATOM      9  O   UNK A   1       5.838   5.800  20.010  0.00  0.00    +0.000 OA
ATOM     10  N   PRO A   2       5.355   5.422  17.855  0.00  0.00    +0.000 N 
ATOM     11  CD  PRO A   2       4.551   5.382  16.646  0.00  0.00    +0.000 C 
ATOM     12  CG  PRO A   2       5.298   4.455  15.709  0.00  0.00    +0.000 C 
ATOM     13  CB  PRO A   2       6.764   4.642  16.066  0.00  0.00    +0.000 C 
ATOM     14  CA  PRO A   2       6.781   5.218  17.493  0.00  0.00    +0.000 C 
BRANCH  14  15
ATOM     15  C   PRO A   2       7.666   6.485  17.537  0.00  0.00    +0.000 C 
ATOM     16  O   PRO A   2       7.911   7.189  16.569  0.00  0.00    +0.000 OA
BRANCH  15  17
ATOM     17  OXT PRO A   2       8.244   6.723  18.734  0.00  0.00    +0.000 OA
ATOM     18  HXT PRO A   2       8.073   5.984  19.362  0.00  0.00    +0.000 HD
ENDBRANCH  15  17
ENDBRANCH  14  15
ENDBRANCH   1   8
BRANCH   1  21
ATOM     19  O   UNK A   0       2.329   7.300  17.777  0.00  0.00    +0.000 OA
ATOM     20  C   UNK A   0       2.264   7.417  18.998  0.00  0.00    +0.000 C 
ATOM     21  N   UNK A   1       2.832   6.545  19.916  0.00  0.00    +0.000 N 
ATOM     22  H   UNK A   1       2.822   6.785  20.896  0.00  0.00    +0.000 HD
BRANCH  20  23
ATOM     23  C   UNK A   0       1.558   8.587  19.582  0.00  0.00    +0.000 A 
ATOM     24  C   UNK A   0       1.221   8.559  20.940  0.00  0.00    +0.000 A 
ATOM     25  C   UNK A   0       0.548   9.637  21.515  0.00  0.00    +0.000 A 
ATOM     26  C   UNK A   0       0.201  10.739  20.734  0.00  0.00    +0.000 A 
ATOM     27  C   UNK A   0       0.525  10.768  19.378  0.00  0.00    +0.000 A 
ATOM     28  C   UNK A   0       1.201   9.694  18.799  0.00  0.00    +0.000 A 
ENDBRANCH  20  23
ENDBRANCH   1  21
TORSDOF 5
ENDMDL
MODEL 9
REMARK VINA RESULT:      -7.1      2.042      4.558
REMARK  Name = 
REMARK  5 active torsions:
REMARK  status: ('A' for Active; 'I' for Inactive)
REMARK    1  A    between atoms: C_2  and  C_21
REMARK    2  A    between atoms: N_3  and  C_4
REMARK    3  A    between atoms: C_4  and  C_5
REMARK    4  A    between atoms: CA_11  and  C_12
REMARK    5  A    between atoms: C_12  and  OXT_14
REMARK                            x       y       z     vdW  Elec       q    Type
REMARK                         _______ _______ _______ _____ _____    ______ ____
ROOT
ATOM      1  C   UNK A   1       5.046   5.518  18.237  0.00  0.00    +0.000 C 
ATOM      2  C   UNK A   1       5.708   5.405  17.051  0.00  0.00    +0.000 C 
ATOM      3  C   UNK A   1       6.487   4.187  16.569  0.00  0.00    +0.000 C 
ATOM      4  C   UNK A   1       6.013   3.710  15.185  0.00  0.00    +0.000 C 
ATOM      5  C   UNK A   1       6.071   4.821  14.141  0.00  0.00    +0.000 C 
ATOM      6  C   UNK A   1       5.277   6.029  14.608  0.00  0.00    +0.000 C 
ATOM      7  C   UNK A   1       5.740   6.504  15.985  0.00  0.00    +0.000 C 
ENDROOT
BRANCH   1   8
ATOM      8  C   UNK A   1       4.983   4.376  19.259  0.00  0.00    +0.000 C 
ATOM      9  O   UNK A   1       5.777   4.326  20.204  0.00  0.00    +0.000 OA
ATOM     10  N   PRO A   2       4.094   3.319  19.122  0.00  0.00    +0.000 N 
ATOM     11  CD  PRO A   2       3.250   2.949  17.999  0.00  0.00    +0.000 C 
ATOM     12  CG  PRO A   2       1.988   2.390  18.626  0.00  0.00    +0.000 C 
ATOM     13  CB  PRO A   2       2.450   1.756  19.928  0.00  0.00    +0.000 C 
ATOM     14  CA  PRO A   2       3.798   2.419  20.266  0.00  0.00    +0.000 C 
BRANCH  14  15
ATOM     15  C   PRO A   2       4.860   1.332  20.550  0.00  0.00    +0.000 C 
ATOM     16  O   PRO A   2       5.563   1.299  21.549  0.00  0.00    +0.000 OA
BRANCH  15  17
ATOM     17  OXT PRO A   2       5.032   0.442  19.549  0.00  0.00    +0.000 OA
ATOM     18  HXT PRO A   2       4.231   0.395  18.978  0.00  0.00    +0.000 HD
ENDBRANCH  15  17
ENDBRANCH  14  15
ENDBRANCH   1   8
BRANCH   1  21
ATOM     19  O   UNK A   0       2.194   5.760  17.749  0.00  0.00    +0.000 OA
ATOM     20  C   UNK A   0       2.859   6.654  18.265  0.00  0.00    +0.000 C 
ATOM     21  N   UNK A   1       4.228   6.605  18.489  0.00  0.00    +0.000 N 
ATOM     22  H   UNK A   1       4.705   7.432  18.815  0.00  0.00    +0.000 HD
BRANCH  20  23
ATOM     23  C   UNK A   0       2.193   7.921  18.667  0.00  0.00    +0.000 A 
ATOM     24  C   UNK A   0       1.678   8.026  19.964  0.00  0.00    +0.000 A 
ATOM     25  C   UNK A   0       1.036   9.198  20.368  0.00  0.00    +0.000 A 
ATOM     26  C   UNK A   0       0.899  10.261  19.474  0.00  0.00    +0.000 A 
ATOM     27  C   UNK A   0       1.401  10.156  18.178  0.00  0.00    +0.000 A 
ATOM     28  C   UNK A   0       2.047   8.989  17.771  0.00  0.00    +0.000 A 
ENDBRANCH  20  23
ENDBRANCH   1  21
TORSDOF 5
ENDMDL
