MODEL 1
REMARK VINA RESULT:      -6.6      0.000      0.000
REMARK  Name = 
REMARK  2 active torsions:
REMARK  status: ('A' for Active; 'I' for Inactive)
REMARK    1  A    between atoms: C_1  and  N_2
REMARK    2  A    between atoms: C_6  and  C_8
REMARK                            x       y       z     vdW  Elec       q    Type
REMARK                         _______ _______ _______ _____ _____    ______ ____
ROOT
ATOM      1  C   UNL     1       0.540  10.051  19.690  0.00  0.00    +0.000 C 
ATOM      2  N   UNL     1       1.296   8.852  19.434  0.00  0.00    +0.000 N 
ATOM      3  C   UNL     1       1.693   8.016  20.560  0.00  0.00    +0.000 C 
ATOM      4  C   UNL     1       2.001   6.582  20.117  0.00  0.00    +0.000 C 
ATOM      5  N   UNL     1       3.034   6.575  19.082  0.00  0.00    +0.000 N 
ATOM      6  C   UNL     1       3.984   5.549  19.101  0.00  0.00    +0.000 C 
ATOM      7  O   UNL     1       3.979   4.675  19.968  0.00  0.00    +0.000 OA
ATOM      8  C   UNL     1       2.782   7.499  17.970  0.00  0.00    +0.000 C 
ATOM      9  C   UNL     1       2.058   8.819  18.270  0.00  0.00    +0.000 C 
ATOM     10  O   UNL     1       2.046   9.725  17.437  0.00  0.00    +0.000 OA
ENDROOT
BRANCH   6  11
ATOM     11  C   UNL     1       5.051   5.488  18.061  0.00  0.00    +0.000 A 
ATOM     12  C   UNL     1       6.187   6.301  18.199  0.00  0.00    +0.000 A 
ATOM     13  C   UNL     1       7.242   6.216  17.293  0.00  0.00    +0.000 A 
ATOM     14  C   UNL     1       7.129   5.388  16.184  0.00  0.00    +0.000 A 
ATOM     15  C   UNL     1       5.964   4.644  15.976  0.00  0.00    +0.000 A 
ATOM     16 CL   UNL     1       5.887   3.709  14.520  0.00  0.00    +0.000 Cl
ATOM     17  C   UNL     1       4.919   4.672  16.919  0.00  0.00    +0.000 A 
ATOM     18 CL   UNL     1       3.516   3.677  16.668  0.00  0.00    +0.000 Cl
ENDBRANCH   6  11
TORSDOF 1
ENDMDL
MODEL 2
REMARK VINA RESULT:      -6.3      2.999      5.961
REMARK  Name = 
REMARK  2 active torsions:
REMARK  status: ('A' for Active; 'I' for Inactive)
REMARK    1  A    between atoms: C_1  and  N_2
REMARK    2  A    between atoms: C_6  and  C_8
REMARK                            x       y       z     vdW  Elec       q    Type
REMARK                         _______ _______ _______ _____ _____    ______ ____
ROOT
ATOM      1  C   UNL     1       7.472   4.794  15.160  0.00  0.00    +0.000 C 
ATOM      2  N   UNL     1       6.317   4.961  16.004  0.00  0.00    +0.000 N 
ATOM      3  C   UNL     1       5.109   4.202  15.701  0.00  0.00    +0.000 C 
ATOM      4  C   UNL     1       4.200   4.076  16.927  0.00  0.00    +0.000 C 
ATOM      5  N   UNL     1       3.859   5.399  17.452  0.00  0.00    +0.000 N 
ATOM      6  C   UNL     1       2.566   5.603  17.945  0.00  0.00    +0.000 C 
ATOM      7  O   UNL     1       1.718   4.711  17.931  0.00  0.00    +0.000 OA
ATOM      8  C   UNL     1       5.012   6.283  17.656  0.00  0.00    +0.000 C 
ATOM      9  C   UNL     1       6.200   6.164  16.693  0.00  0.00    +0.000 C 
ATOM     10  O   UNL     1       7.068   7.037  16.664  0.00  0.00    +0.000 OA
ENDROOT
BRANCH   6  11
ATOM     11  C   UNL     1       2.172   6.928  18.504  0.00  0.00    +0.000 A 
ATOM     12  C   UNL     1       2.098   8.036  17.645  0.00  0.00    +0.000 A 
ATOM     13  C   UNL     1       1.656   9.273  18.110  0.00  0.00    +0.000 A 
ATOM     14  C   UNL     1       1.378   9.440  19.460  0.00  0.00    +0.000 A 
ATOM     15  C   UNL     1       1.541   8.373  20.349  0.00  0.00    +0.000 A 
ATOM     16 CL   UNL     1       1.252   8.706  22.024  0.00  0.00    +0.000 Cl
ATOM     17  C   UNL     1       1.923   7.103  19.880  0.00  0.00    +0.000 A 
ATOM     18 CL   UNL     1       2.042   5.779  21.002  0.00  0.00    +0.000 Cl
ENDBRANCH   6  11
TORSDOF 1
ENDMDL
MODEL 3
REMARK VINA RESULT:      -6.1      3.922      6.123
REMARK  Name = 
REMARK  2 active torsions:
REMARK  status: ('A' for Active; 'I' for Inactive)
REMARK    1  A    between atoms: C_1  and  N_2
REMARK    2  A    between atoms: C_6  and  C_8
REMARK                            x       y       z     vdW  Elec       q    Type
REMARK                         _______ _______ _______ _____ _____    ______ ____
ROOT
ATOM      1  C   UNL     1       7.515   4.944  13.085  0.00  0.00    +0.000 C 
ATOM      2  N   UNL     1       6.899   4.948  14.388  0.00  0.00    +0.000 N 
ATOM      3  C   UNL     1       7.753   4.966  15.570  0.00  0.00    +0.000 C 
ATOM      4  C   UNL     1       7.003   5.488  16.799  0.00  0.00    +0.000 C 
ATOM      5  N   UNL     1       5.801   4.692  17.044  0.00  0.00    +0.000 N 
ATOM      6  C   UNL     1       5.445   4.421  18.370  0.00  0.00    +0.000 C 
ATOM      7  O   UNL     1       6.121   4.819  19.318  0.00  0.00    +0.000 OA
ATOM      8  C   UNL     1       4.949   4.505  15.864  0.00  0.00    +0.000 C 
ATOM      9  C   UNL     1       5.622   4.406  14.489  0.00  0.00    +0.000 C 
ATOM     10  O   UNL     1       4.987   4.004  13.513  0.00  0.00    +0.000 OA
ENDROOT
BRANCH   6  11
ATOM     11  C   UNL     1       4.221   3.626  18.674  0.00  0.00    +0.000 A 
ATOM     12  C   UNL     1       4.157   2.286  18.260  0.00  0.00    +0.000 A 
ATOM     13  C   UNL     1       3.067   1.485  18.594  0.00  0.00    +0.000 A 
ATOM     14  C   UNL     1       1.984   2.042  19.262  0.00  0.00    +0.000 A 
ATOM     15  C   UNL     1       1.987   3.400  19.598  0.00  0.00    +0.000 A 
ATOM     16 CL   UNL     1       0.555   4.017  20.352  0.00  0.00    +0.000 Cl
ATOM     17  C   UNL     1       3.110   4.202  19.323  0.00  0.00    +0.000 A 
ATOM     18 CL   UNL     1       3.111   5.868  19.821  0.00  0.00    +0.000 Cl
ENDBRANCH   6  11
TORSDOF 1
ENDMDL
MODEL 4
REMARK VINA RESULT:      -6.1      2.946      4.122
REMARK  Name = 
REMARK  2 active torsions:
REMARK  status: ('A' for Active; 'I' for Inactive)
REMARK    1  A    between atoms: C_1  and  N_2
REMARK    2  A    between atoms: C_6  and  C_8
REMARK                            x       y       z     vdW  Elec       q    Type
REMARK                         _______ _______ _______ _____ _____    ______ ____
ROOT
ATOM      1  C   UNL     1       0.177  11.010  19.899  0.00  0.00    +0.000 C 
ATOM      2  N   UNL     1       0.950   9.821  19.650  0.00  0.00    +0.000 N 
ATOM      3  C   UNL     1       1.233   9.440  18.271  0.00  0.00    +0.000 C 
ATOM      4  C   UNL     1       2.450   8.515  18.179  0.00  0.00    +0.000 C 
ATOM      5  N   UNL     1       2.256   7.327  19.011  0.00  0.00    +0.000 N 
ATOM      6  C   UNL     1       2.730   6.101  18.534  0.00  0.00    +0.000 C 
ATOM      7  O   UNL     1       3.281   5.999  17.439  0.00  0.00    +0.000 OA
ATOM      8  C   UNL     1       1.832   7.615  20.386  0.00  0.00    +0.000 C 
ATOM      9  C   UNL     1       0.929   8.832  20.629  0.00  0.00    +0.000 C 
ATOM     10  O   UNL     1       0.349   8.971  21.706  0.00  0.00    +0.000 OA
ENDROOT
BRANCH   6  11
ATOM     11  C   UNL     1       2.570   4.862  19.349  0.00  0.00    +0.000 A 
ATOM     12  C   UNL     1       1.311   4.561  19.893  0.00  0.00    +0.000 A 
ATOM     13  C   UNL     1       1.099   3.374  20.592  0.00  0.00    +0.000 A 
ATOM     14  C   UNL     1       2.168   2.523  20.839  0.00  0.00    +0.000 A 
ATOM     15  C   UNL     1       3.450   2.854  20.390  0.00  0.00    +0.000 A 
ATOM     16 CL   UNL     1       4.730   1.769  20.822  0.00  0.00    +0.000 Cl
ATOM     17  C   UNL     1       3.663   4.017  19.627  0.00  0.00    +0.000 A 
ATOM     18 CL   UNL     1       5.255   4.360  19.018  0.00  0.00    +0.000 Cl
ENDBRANCH   6  11
TORSDOF 1
ENDMDL
MODEL 5
REMARK VINA RESULT:      -6.1      3.280      4.253
REMARK  Name = 
REMARK  2 active torsions:
REMARK  status: ('A' for Active; 'I' for Inactive)
REMARK    1  A    between atoms: C_1  and  N_2
REMARK    2  A    between atoms: C_6  and  C_8
REMARK                            x       y       z     vdW  Elec       q    Type
REMARK                         _______ _______ _______ _____ _____    ______ ____
ROOT
ATOM      1  C   UNL     1       0.403   2.912  19.927  0.00  0.00    +0.000 C 
ATOM      2  N   UNL     1       1.515   3.390  19.146  0.00  0.00    +0.000 N 
ATOM      3  C   UNL     1       2.157   2.480  18.205  0.00  0.00    +0.000 C 
ATOM      4  C   UNL     1       2.923   3.240  17.118  0.00  0.00    +0.000 C 
ATOM      5  N   UNL     1       3.909   4.139  17.718  0.00  0.00    +0.000 N 
ATOM      6  C   UNL     1       5.144   4.290  17.079  0.00  0.00    +0.000 C 
ATOM      7  O   UNL     1       5.420   3.677  16.048  0.00  0.00    +0.000 OA
ATOM      8  C   UNL     1       3.374   5.000  18.780  0.00  0.00    +0.000 C 
ATOM      9  C   UNL     1       2.253   4.446  19.670  0.00  0.00    +0.000 C 
ATOM     10  O   UNL     1       1.949   5.020  20.716  0.00  0.00    +0.000 OA
ENDROOT
BRANCH   6  11
ATOM     11  C   UNL     1       6.178   5.205  17.642  0.00  0.00    +0.000 A 
ATOM     12  C   UNL     1       7.046   4.725  18.636  0.00  0.00    +0.000 A 
ATOM     13  C   UNL     1       8.077   5.521  19.130  0.00  0.00    +0.000 A 
ATOM     14  C   UNL     1       8.190   6.839  18.707  0.00  0.00    +0.000 A 
ATOM     15  C   UNL     1       7.274   7.365  17.791  0.00  0.00    +0.000 A 
ATOM     16 CL   UNL     1       7.448   9.042  17.393  0.00  0.00    +0.000 Cl
ATOM     17  C   UNL     1       6.269   6.551  17.236  0.00  0.00    +0.000 A 
ATOM     18 CL   UNL     1       5.194   7.217  16.042  0.00  0.00    +0.000 Cl
ENDBRANCH   6  11
TORSDOF 1
ENDMDL
MODEL 6
REMARK VINA RESULT:      -6.1      2.846      3.810
REMARK  Name = 
REMARK  2 active torsions:
REMARK  status: ('A' for Active; 'I' for Inactive)
REMARK    1  A    between atoms: C_1  and  N_2
REMARK    2  A    between atoms: C_6  and  C_8
REMARK                            x       y       z     vdW  Elec       q    Type
REMARK                         _______ _______ _______ _____ _____    ______ ____
ROOT
ATOM      1  C   UNL     1       0.160  10.765  20.222  0.00  0.00    +0.000 C 
ATOM      2  N   UNL     1       1.003   9.693  19.760  0.00  0.00    +0.000 N 
ATOM      3  C   UNL     1       1.451   9.698  18.372  0.00  0.00    +0.000 C 
ATOM      4  C   UNL     1       2.707   8.842  18.182  0.00  0.00    +0.000 C 
ATOM      5  N   UNL     1       2.471   7.473  18.642  0.00  0.00    +0.000 N 
ATOM      6  C   UNL     1       3.043   6.423  17.916  0.00  0.00    +0.000 C 
ATOM      7  O   UNL     1       3.716   6.623  16.906  0.00  0.00    +0.000 OA
ATOM      8  C   UNL     1       1.886   7.380  19.984  0.00  0.00    +0.000 C 
ATOM      9  C   UNL     1       0.913   8.479  20.433  0.00  0.00    +0.000 C 
ATOM     10  O   UNL     1       0.212   8.319  21.432  0.00  0.00    +0.000 OA
ENDROOT
BRANCH   6  11
ATOM     11  C   UNL     1       2.844   5.010  18.350  0.00  0.00    +0.000 A 
ATOM     12  C   UNL     1       1.619   4.380  18.080  0.00  0.00    +0.000 A 
ATOM     13  C   UNL     1       1.421   3.037  18.396  0.00  0.00    +0.000 A 
ATOM     14  C   UNL     1       2.411   2.338  19.075  0.00  0.00    +0.000 A 
ATOM     15  C   UNL     1       3.600   2.977  19.440  0.00  0.00    +0.000 A 
ATOM     16 CL   UNL     1       4.734   2.044  20.358  0.00  0.00    +0.000 Cl
ATOM     17  C   UNL     1       3.837   4.314  19.068  0.00  0.00    +0.000 A 
ATOM     18 CL   UNL     1       5.357   5.055  19.472  0.00  0.00    +0.000 Cl
ENDBRANCH   6  11
TORSDOF 1
ENDMDL
MODEL 7
REMARK VINA RESULT:      -6.1      2.000      3.723
REMARK  Name = 
REMARK  2 active torsions:
REMARK  status: ('A' for Active; 'I' for Inactive)
REMARK    1  A    between atoms: C_1  and  N_2
REMARK    2  A    between atoms: C_6  and  C_8
REMARK                            x       y       z     vdW  Elec       q    Type
REMARK                         _______ _______ _______ _____ _____    ______ ____
ROOT
ATOM      1  C   UNL     1       1.435   2.497  21.829  0.00  0.00    +0.000 C 
ATOM      2  N   UNL     1       2.101   3.525  21.071  0.00  0.00    +0.000 N 
ATOM      3  C   UNL     1       1.296   4.544  20.407  0.00  0.00    +0.000 C 
ATOM      4  C   UNL     1       2.114   5.805  20.112  0.00  0.00    +0.000 C 
ATOM      5  N   UNL     1       3.292   5.477  19.309  0.00  0.00    +0.000 N 
ATOM      6  C   UNL     1       3.688   6.378  18.316  0.00  0.00    +0.000 C 
ATOM      7  O   UNL     1       3.066   7.417  18.096  0.00  0.00    +0.000 OA
ATOM      8  C   UNL     1       4.089   4.361  19.833  0.00  0.00    +0.000 C 
ATOM      9  C   UNL     1       3.358   3.223  20.558  0.00  0.00    +0.000 C 
ATOM     10  O   UNL     1       3.937   2.161  20.790  0.00  0.00    +0.000 OA
ENDROOT
BRANCH   6  11
ATOM     11  C   UNL     1       4.890   6.097  17.478  0.00  0.00    +0.000 A 
ATOM     12  C   UNL     1       6.013   6.933  17.594  0.00  0.00    +0.000 A 
ATOM     13  C   UNL     1       7.184   6.659  16.890  0.00  0.00    +0.000 A 
ATOM     14  C   UNL     1       7.212   5.602  15.988  0.00  0.00    +0.000 A 
ATOM     15  C   UNL     1       6.072   4.818  15.787  0.00  0.00    +0.000 A 
ATOM     16 CL   UNL     1       6.182   3.581  14.580  0.00  0.00    +0.000 Cl
ATOM     17  C   UNL     1       4.905   5.046  16.540  0.00  0.00    +0.000 A 
ATOM     18 CL   UNL     1       3.530   4.004  16.320  0.00  0.00    +0.000 Cl
ENDBRANCH   6  11
TORSDOF 1
ENDMDL
MODEL 8
REMARK VINA RESULT:      -5.8      3.825      5.632
REMARK  Name = 
REMARK  2 active torsions:
REMARK  status: ('A' for Active; 'I' for Inactive)
REMARK    1  A    between atoms: C_1  and  N_2
REMARK    2  A    between atoms: C_6  and  C_8
REMARK                            x       y       z     vdW  Elec       q    Type
REMARK                         _______ _______ _______ _____ _____    ______ ____
ROOT
ATOM      1  C   UNL     1       8.611   7.749  18.672  0.00  0.00    +0.000 C 
ATOM      2  N   UNL     1       7.698   6.749  18.180  0.00  0.00    +0.000 N 
ATOM      3  C   UNL     1       6.960   7.014  16.951  0.00  0.00    +0.000 C 
ATOM      4  C   UNL     1       6.469   5.719  16.297  0.00  0.00    +0.000 C 
ATOM      5  N   UNL     1       5.650   4.950  17.234  0.00  0.00    +0.000 N 
ATOM      6  C   UNL     1       4.534   4.270  16.734  0.00  0.00    +0.000 C 
ATOM      7  O   UNL     1       4.224   4.319  15.544  0.00  0.00    +0.000 OA
ATOM      8  C   UNL     1       6.262   4.754  18.553  0.00  0.00    +0.000 C 
ATOM      9  C   UNL     1       7.159   5.868  19.111  0.00  0.00    +0.000 C 
ATOM     10  O   UNL     1       7.487   5.865  20.298  0.00  0.00    +0.000 OA
ENDROOT
BRANCH   6  11
ATOM     11  C   UNL     1       3.674   3.460  17.644  0.00  0.00    +0.000 A 
ATOM     12  C   UNL     1       3.837   2.066  17.677  0.00  0.00    +0.000 A 
ATOM     13  C   UNL     1       3.110   1.282  18.571  0.00  0.00    +0.000 A 
ATOM     14  C   UNL     1       2.141   1.873  19.372  0.00  0.00    +0.000 A 
ATOM     15  C   UNL     1       1.895   3.246  19.282  0.00  0.00    +0.000 A 
ATOM     16 CL   UNL     1       0.609   3.871  20.259  0.00  0.00    +0.000 Cl
ATOM     17  C   UNL     1       2.668   4.058  18.431  0.00  0.00    +0.000 A 
ATOM     18 CL   UNL     1       2.387   5.773  18.400  0.00  0.00    +0.000 Cl
ENDBRANCH   6  11
TORSDOF 1
ENDMDL
MODEL 9
REMARK VINA RESULT:      -5.8      3.150      5.679
REMARK  Name = 
REMARK  2 active torsions:
REMARK  status: ('A' for Active; 'I' for Inactive)
REMARK    1  A    between atoms: C_1  and  N_2
REMARK    2  A    between atoms: C_6  and  C_8
REMARK                            x       y       z     vdW  Elec       q    Type
REMARK                         _______ _______ _______ _____ _____    ______ ____
ROOT
ATOM      1  C   UNL     1       7.394   4.684  13.825  0.00  0.00    +0.000 C 
ATOM      2  N   UNL     1       6.833   4.890  15.136  0.00  0.00    +0.000 N 
ATOM      3  C   UNL     1       7.605   4.482  16.303  0.00  0.00    +0.000 C 
ATOM      4  C   UNL     1       7.147   5.216  17.567  0.00  0.00    +0.000 C 
ATOM      5  N   UNL     1       5.718   5.002  17.795  0.00  0.00    +0.000 N 
ATOM      6  C   UNL     1       5.273   4.848  19.112  0.00  0.00    +0.000 C 
ATOM      7  O   UNL     1       6.050   4.871  20.067  0.00  0.00    +0.000 OA
ATOM      8  C   UNL     1       4.874   5.257  16.622  0.00  0.00    +0.000 C 
ATOM      9  C   UNL     1       5.446   4.945  15.232  0.00  0.00    +0.000 C 
ATOM     10  O   UNL     1       4.706   4.901  14.250  0.00  0.00    +0.000 OA
ENDROOT
BRANCH   6  11
ATOM     11  C   UNL     1       3.825   4.641  19.400  0.00  0.00    +0.000 A 
ATOM     12  C   UNL     1       3.130   5.614  20.137  0.00  0.00    +0.000 A 
ATOM     13  C   UNL     1       1.759   5.498  20.359  0.00  0.00    +0.000 A 
ATOM     14  C   UNL     1       1.087   4.360  19.930  0.00  0.00    +0.000 A 
ATOM     15  C   UNL     1       1.782   3.336  19.281  0.00  0.00    +0.000 A 
ATOM     16 CL   UNL     1       0.872   1.922  18.864  0.00  0.00    +0.000 Cl
ATOM     17  C   UNL     1       3.153   3.471  18.994  0.00  0.00    +0.000 A 
ATOM     18 CL   UNL     1       3.970   2.211  18.118  0.00  0.00    +0.000 Cl
ENDBRANCH   6  11
TORSDOF 1
ENDMDL
