MODEL 1
REMARK VINA RESULT:      -7.9      0.000      0.000
REMARK  Name = 
REMARK  0 active torsions:
REMARK  status: ('A' for Active; 'I' for Inactive)
REMARK                            x       y       z     vdW  Elec       q    Type
REMARK                         _______ _______ _______ _____ _____    ______ ____
ROOT
ATOM      1 CL   UNL     1       7.496   5.738  19.523  0.00  0.00    +0.000 Cl
ATOM      2  C   UNL     1       6.703   5.029  18.157  0.00  0.00    +0.000 A 
ATOM      3  C   UNL     1       7.475   4.776  17.018  0.00  0.00    +0.000 A 
ATOM      4  C   UNL     1       6.889   4.201  15.893  0.00  0.00    +0.000 A 
ATOM      5  C   UNL     1       5.534   3.882  15.909  0.00  0.00    +0.000 A 
ATOM      6  C   UNL     1       4.754   4.135  17.050  0.00  0.00    +0.000 A 
ATOM      7  C   UNL     1       5.333   4.710  18.188  0.00  0.00    +0.000 A 
ATOM      8  N   UNL     1       4.573   4.946  19.347  0.00  0.00    +0.000 NA
ATOM      9  C   UNL     1       3.308   4.674  19.340  0.00  0.00    +0.000 C 
ATOM     10  C   UNL     1       2.576   4.917  20.653  0.00  0.00    +0.000 C 
ATOM     11  C   UNL     1       2.254   3.586  21.325  0.00  0.00    +0.000 C 
ATOM     12  C   UNL     1       0.991   2.923  20.777  0.00  0.00    +0.000 C 
ATOM     13  C   UNL     1       1.063   2.539  19.298  0.00  0.00    +0.000 C 
ATOM     14  C   UNL     1       1.211   3.739  18.364  0.00  0.00    +0.000 C 
ATOM     15  N   UNL     1       2.604   4.161  18.268  0.00  0.00    +0.000 N 
ATOM     16  C   UNL     1       3.302   3.760  17.056  0.00  0.00    +0.000 C 
ENDROOT
TORSDOF 0
ENDMDL
MODEL 2
REMARK VINA RESULT:      -7.4      2.084      5.139
REMARK  Name = 
REMARK  0 active torsions:
REMARK  status: ('A' for Active; 'I' for Inactive)
REMARK                            x       y       z     vdW  Elec       q    Type
REMARK                         _______ _______ _______ _____ _____    ______ ____
ROOT
ATOM      1 CL   UNL     1       4.473   1.740  21.060  0.00  0.00    +0.000 Cl
ATOM      2  C   UNL     1       3.459   2.729  20.064  0.00  0.00    +0.000 A 
ATOM      3  C   UNL     1       2.075   2.590  20.206  0.00  0.00    +0.000 A 
ATOM      4  C   UNL     1       1.214   3.365  19.435  0.00  0.00    +0.000 A 
ATOM      5  C   UNL     1       1.738   4.277  18.522  0.00  0.00    +0.000 A 
ATOM      6  C   UNL     1       3.129   4.420  18.374  0.00  0.00    +0.000 A 
ATOM      7  C   UNL     1       4.004   3.647  19.147  0.00  0.00    +0.000 A 
ATOM      8  N   UNL     1       5.397   3.796  19.030  0.00  0.00    +0.000 NA
ATOM      9  C   UNL     1       5.874   4.623  18.158  0.00  0.00    +0.000 C 
ATOM     10  C   UNL     1       7.390   4.754  18.135  0.00  0.00    +0.000 C 
ATOM     11  C   UNL     1       7.809   6.085  18.750  0.00  0.00    +0.000 C 
ATOM     12  C   UNL     1       7.723   7.256  17.771  0.00  0.00    +0.000 C 
ATOM     13  C   UNL     1       6.313   7.556  17.260  0.00  0.00    +0.000 C 
ATOM     14  C   UNL     1       5.711   6.420  16.434  0.00  0.00    +0.000 C 
ATOM     15  N   UNL     1       5.124   5.400  17.296  0.00  0.00    +0.000 N 
ATOM     16  C   UNL     1       3.673   5.426  17.404  0.00  0.00    +0.000 C 
ENDROOT
TORSDOF 0
ENDMDL
MODEL 3
REMARK VINA RESULT:      -7.3      1.870      2.810
REMARK  Name = 
REMARK  0 active torsions:
REMARK  status: ('A' for Active; 'I' for Inactive)
REMARK                            x       y       z     vdW  Elec       q    Type
REMARK                         _______ _______ _______ _____ _____    ______ ____
ROOT
ATOM      1 CL   UNL     1       5.419   4.316  14.519  0.00  0.00    +0.000 Cl
ATOM      2  C   UNL     1       5.909   4.812  16.104  0.00  0.00    +0.000 A 
ATOM      3  C   UNL     1       6.991   5.692  16.203  0.00  0.00    +0.000 A 
ATOM      4  C   UNL     1       7.422   6.128  17.453  0.00  0.00    +0.000 A 
ATOM      5  C   UNL     1       6.773   5.682  18.601  0.00  0.00    +0.000 A 
ATOM      6  C   UNL     1       5.685   4.795  18.507  0.00  0.00    +0.000 A 
ATOM      7  C   UNL     1       5.242   4.353  17.254  0.00  0.00    +0.000 A 
ATOM      8  N   UNL     1       4.140   3.488  17.141  0.00  0.00    +0.000 NA
ATOM      9  C   UNL     1       3.562   3.054  18.215  0.00  0.00    +0.000 C 
ATOM     10  C   UNL     1       2.349   2.161  17.994  0.00  0.00    +0.000 C 
ATOM     11  C   UNL     1       1.071   2.924  18.327  0.00  0.00    +0.000 C 
ATOM     12  C   UNL     1       0.751   2.942  19.822  0.00  0.00    +0.000 C 
ATOM     13  C   UNL     1       1.795   3.648  20.689  0.00  0.00    +0.000 C 
ATOM     14  C   UNL     1       3.161   2.964  20.676  0.00  0.00    +0.000 C 
ATOM     15  N   UNL     1       3.937   3.365  19.508  0.00  0.00    +0.000 N 
ATOM     16  C   UNL     1       4.983   4.346  19.753  0.00  0.00    +0.000 C 
ENDROOT
TORSDOF 0
ENDMDL
MODEL 4
REMARK VINA RESULT:      -7.2      1.941      2.831
REMARK  Name = 
REMARK  0 active torsions:
REMARK  status: ('A' for Active; 'I' for Inactive)
REMARK                            x       y       z     vdW  Elec       q    Type
REMARK                         _______ _______ _______ _____ _____    ______ ____
ROOT
ATOM      1 CL   UNL     1       5.233   6.694  15.210  0.00  0.00    +0.000 Cl
ATOM      2  C   UNL     1       5.920   6.255  16.737  0.00  0.00    +0.000 A 
ATOM      3  C   UNL     1       7.098   6.900  17.129  0.00  0.00    +0.000 A 
ATOM      4  C   UNL     1       7.689   6.589  18.350  0.00  0.00    +0.000 A 
ATOM      5  C   UNL     1       7.103   5.634  19.177  0.00  0.00    +0.000 A 
ATOM      6  C   UNL     1       5.921   4.981  18.787  0.00  0.00    +0.000 A 
ATOM      7  C   UNL     1       5.316   5.288  17.561  0.00  0.00    +0.000 A 
ATOM      8  N   UNL     1       4.119   4.664  17.168  0.00  0.00    +0.000 NA
ATOM      9  C   UNL     1       3.600   3.755  17.929  0.00  0.00    +0.000 C 
ATOM     10  C   UNL     1       2.280   3.170  17.447  0.00  0.00    +0.000 C 
ATOM     11  C   UNL     1       1.131   3.698  18.299  0.00  0.00    +0.000 C 
ATOM     12  C   UNL     1       0.955   2.938  19.614  0.00  0.00    +0.000 C 
ATOM     13  C   UNL     1       2.147   3.031  20.569  0.00  0.00    +0.000 C 
ATOM     14  C   UNL     1       3.421   2.396  20.014  0.00  0.00    +0.000 C 
ATOM     15  N   UNL     1       4.125   3.319  19.130  0.00  0.00    +0.000 N 
ATOM     16  C   UNL     1       5.292   3.974  19.702  0.00  0.00    +0.000 C 
ENDROOT
TORSDOF 0
ENDMDL
MODEL 5
REMARK VINA RESULT:      -7.1      1.263      1.343
REMARK  Name = 
REMARK  0 active torsions:
REMARK  status: ('A' for Active; 'I' for Inactive)
REMARK                            x       y       z     vdW  Elec       q    Type
REMARK                         _______ _______ _______ _____ _____    ______ ____
ROOT
ATOM      1 CL   UNL     1       6.673   7.553  17.480  0.00  0.00    +0.000 Cl
ATOM      2  C   UNL     1       6.204   6.047  16.766  0.00  0.00    +0.000 A 
ATOM      3  C   UNL     1       7.068   5.477  15.825  0.00  0.00    +0.000 A 
ATOM      4  C   UNL     1       6.743   4.264  15.226  0.00  0.00    +0.000 A 
ATOM      5  C   UNL     1       5.554   3.623  15.566  0.00  0.00    +0.000 A 
ATOM      6  C   UNL     1       4.681   4.192  16.510  0.00  0.00    +0.000 A 
ATOM      7  C   UNL     1       5.000   5.411  17.122  0.00  0.00    +0.000 A 
ATOM      8  N   UNL     1       4.151   5.980  18.086  0.00  0.00    +0.000 NA
ATOM      9  C   UNL     1       3.035   5.392  18.373  0.00  0.00    +0.000 C 
ATOM     10  C   UNL     1       2.204   6.055  19.463  0.00  0.00    +0.000 C 
ATOM     11  C   UNL     1       2.279   5.237  20.748  0.00  0.00    +0.000 C 
ATOM     12  C   UNL     1       1.311   4.054  20.769  0.00  0.00    +0.000 C 
ATOM     13  C   UNL     1       1.568   3.001  19.689  0.00  0.00    +0.000 C 
ATOM     14  C   UNL     1       1.379   3.529  18.268  0.00  0.00    +0.000 C 
ATOM     15  N   UNL     1       2.576   4.221  17.802  0.00  0.00    +0.000 N 
ATOM     16  C   UNL     1       3.419   3.473  16.882  0.00  0.00    +0.000 C 
ENDROOT
TORSDOF 0
ENDMDL
MODEL 6
REMARK VINA RESULT:      -7.1      3.369      4.787
REMARK  Name = 
REMARK  0 active torsions:
REMARK  status: ('A' for Active; 'I' for Inactive)
REMARK                            x       y       z     vdW  Elec       q    Type
REMARK                         _______ _______ _______ _____ _____    ______ ____
ROOT
ATOM      1 CL   UNL     1       9.030   5.875  12.833  0.00  0.00    +0.000 Cl
ATOM      2  C   UNL     1       7.586   4.953  13.077  0.00  0.00    +0.000 A 
ATOM      3  C   UNL     1       7.155   4.132  12.030  0.00  0.00    +0.000 A 
ATOM      4  C   UNL     1       6.004   3.363  12.175  0.00  0.00    +0.000 A 
ATOM      5  C   UNL     1       5.284   3.418  13.366  0.00  0.00    +0.000 A 
ATOM      6  C   UNL     1       5.711   4.243  14.421  0.00  0.00    +0.000 A 
ATOM      7  C   UNL     1       6.870   5.018  14.287  0.00  0.00    +0.000 A 
ATOM      8  N   UNL     1       7.326   5.827  15.341  0.00  0.00    +0.000 NA
ATOM      9  C   UNL     1       6.633   5.895  16.432  0.00  0.00    +0.000 C 
ATOM     10  C   UNL     1       7.228   6.758  17.536  0.00  0.00    +0.000 C 
ATOM     11  C   UNL     1       7.786   5.874  18.647  0.00  0.00    +0.000 C 
ATOM     12  C   UNL     1       6.719   5.398  19.633  0.00  0.00    +0.000 C 
ATOM     13  C   UNL     1       5.633   4.513  19.019  0.00  0.00    +0.000 C 
ATOM     14  C   UNL     1       4.784   5.231  17.971  0.00  0.00    +0.000 C 
ATOM     15  N   UNL     1       5.446   5.230  16.670  0.00  0.00    +0.000 N 
ATOM     16  C   UNL     1       4.936   4.268  15.705  0.00  0.00    +0.000 C 
ENDROOT
TORSDOF 0
ENDMDL
MODEL 7
REMARK VINA RESULT:      -7.0      2.062      5.185
REMARK  Name = 
REMARK  0 active torsions:
REMARK  status: ('A' for Active; 'I' for Inactive)
REMARK                            x       y       z     vdW  Elec       q    Type
REMARK                         _______ _______ _______ _____ _____    ______ ____
ROOT
ATOM      1 CL   UNL     1       1.741   6.709  20.611  0.00  0.00    +0.000 Cl
ATOM      2  C   UNL     1       1.871   5.071  20.065  0.00  0.00    +0.000 A 
ATOM      3  C   UNL     1       0.962   4.141  20.581  0.00  0.00    +0.000 A 
ATOM      4  C   UNL     1       1.017   2.812  20.171  0.00  0.00    +0.000 A 
ATOM      5  C   UNL     1       1.980   2.414  19.247  0.00  0.00    +0.000 A 
ATOM      6  C   UNL     1       2.897   3.345  18.727  0.00  0.00    +0.000 A 
ATOM      7  C   UNL     1       2.849   4.685  19.131  0.00  0.00    +0.000 A 
ATOM      8  N   UNL     1       3.741   5.633  18.601  0.00  0.00    +0.000 NA
ATOM      9  C   UNL     1       4.652   5.247  17.767  0.00  0.00    +0.000 C 
ATOM     10  C   UNL     1       5.542   6.350  17.208  0.00  0.00    +0.000 C 
ATOM     11  C   UNL     1       5.173   6.634  15.756  0.00  0.00    +0.000 C 
ATOM     12  C   UNL     1       5.812   5.658  14.769  0.00  0.00    +0.000 C 
ATOM     13  C   UNL     1       5.379   4.201  14.942  0.00  0.00    +0.000 C 
ATOM     14  C   UNL     1       5.795   3.598  16.283  0.00  0.00    +0.000 C 
ATOM     15  N   UNL     1       4.845   3.950  17.333  0.00  0.00    +0.000 N 
ATOM     16  C   UNL     1       3.911   2.902  17.714  0.00  0.00    +0.000 C 
ENDROOT
TORSDOF 0
ENDMDL
MODEL 8
REMARK VINA RESULT:      -6.8      2.289      5.598
REMARK  Name = 
REMARK  0 active torsions:
REMARK  status: ('A' for Active; 'I' for Inactive)
REMARK                            x       y       z     vdW  Elec       q    Type
REMARK                         _______ _______ _______ _____ _____    ______ ____
ROOT
ATOM      1 CL   UNL     1       1.605   1.723  18.521  0.00  0.00    +0.000 Cl
ATOM      2  C   UNL     1       1.818   3.333  19.120  0.00  0.00    +0.000 A 
ATOM      3  C   UNL     1       1.079   3.709  20.247  0.00  0.00    +0.000 A 
ATOM      4  C   UNL     1       1.217   4.990  20.774  0.00  0.00    +0.000 A 
ATOM      5  C   UNL     1       2.092   5.893  20.174  0.00  0.00    +0.000 A 
ATOM      6  C   UNL     1       2.835   5.520  19.041  0.00  0.00    +0.000 A 
ATOM      7  C   UNL     1       2.706   4.233  18.503  0.00  0.00    +0.000 A 
ATOM      8  N   UNL     1       3.461   3.836  17.387  0.00  0.00    +0.000 NA
ATOM      9  C   UNL     1       4.248   4.691  16.818  0.00  0.00    +0.000 C 
ATOM     10  C   UNL     1       5.061   4.159  15.646  0.00  0.00    +0.000 C 
ATOM     11  C   UNL     1       6.520   3.987  16.058  0.00  0.00    +0.000 C 
ATOM     12  C   UNL     1       7.324   5.285  15.989  0.00  0.00    +0.000 C 
ATOM     13  C   UNL     1       6.840   6.385  16.936  0.00  0.00    +0.000 C 
ATOM     14  C   UNL     1       5.429   6.880  16.621  0.00  0.00    +0.000 C 
ATOM     15  N   UNL     1       4.422   6.004  17.210  0.00  0.00    +0.000 N 
ATOM     16  C   UNL     1       3.790   6.498  18.424  0.00  0.00    +0.000 C 
ENDROOT
TORSDOF 0
ENDMDL
MODEL 9
REMARK VINA RESULT:      -6.7      2.018      2.460
REMARK  Name = 
REMARK  0 active torsions:
REMARK  status: ('A' for Active; 'I' for Inactive)
REMARK                            x       y       z     vdW  Elec       q    Type
REMARK                         _______ _______ _______ _____ _____    ______ ____
ROOT
ATOM      1 CL   UNL     1       8.565   5.134  20.239  0.00  0.00    +0.000 Cl
ATOM      2  C   UNL     1       7.612   5.973  19.062  0.00  0.00    +0.000 A 
ATOM      3  C   UNL     1       8.205   7.049  18.394  0.00  0.00    +0.000 A 
ATOM      4  C   UNL     1       7.486   7.754  17.433  0.00  0.00    +0.000 A 
ATOM      5  C   UNL     1       6.175   7.384  17.143  0.00  0.00    +0.000 A 
ATOM      6  C   UNL     1       5.574   6.304  17.813  0.00  0.00    +0.000 A 
ATOM      7  C   UNL     1       6.289   5.586  18.779  0.00  0.00    +0.000 A 
ATOM      8  N   UNL     1       5.712   4.487  19.439  0.00  0.00    +0.000 NA
ATOM      9  C   UNL     1       4.483   4.170  19.185  0.00  0.00    +0.000 C 
ATOM     10  C   UNL     1       3.958   2.939  19.910  0.00  0.00    +0.000 C 
ATOM     11  C   UNL     1       3.838   1.771  18.937  0.00  0.00    +0.000 C 
ATOM     12  C   UNL     1       2.550   1.800  18.115  0.00  0.00    +0.000 C 
ATOM     13  C   UNL     1       2.409   3.014  17.194  0.00  0.00    +0.000 C 
ATOM     14  C   UNL     1       2.323   4.341  17.947  0.00  0.00    +0.000 C 
ATOM     15  N   UNL     1       3.652   4.830  18.301  0.00  0.00    +0.000 N 
ATOM     16  C   UNL     1       4.170   5.904  17.468  0.00  0.00    +0.000 C 
ENDROOT
TORSDOF 0
ENDMDL
