MODEL 1
REMARK VINA RESULT:      -8.6      0.000      0.000
REMARK  Name = 
REMARK  11 active torsions:
REMARK  status: ('A' for Active; 'I' for Inactive)
REMARK    1  A    between atoms: C_1  and  C_2
REMARK    2  A    between atoms: C_2  and  C_3
REMARK    3  A    between atoms: C_6  and  C_7
REMARK    4  A    between atoms: N_11  and  C_12
REMARK    5  A    between atoms: C_18  and  C_19
REMARK    6  A    between atoms: C_18  and  C_20
REMARK    7  A    between atoms: C_25  and  N_26
REMARK    8  A    between atoms: N_26  and  CA_27
REMARK    9  A    between atoms: CA_27  and  C_28
REMARK   10  A    between atoms: CA_27  and  C_30
REMARK   11  A    between atoms: C_28  and  O_29
REMARK                            x       y       z     vdW  Elec       q    Type
REMARK                         _______ _______ _______ _____ _____    ______ ____
ROOT
ATOM      1  C   UNL     1      -0.093  10.656  19.987  0.00  0.00    +0.000 A 
ATOM      2  C   UNL     1       0.861   9.841  20.561  0.00  0.00    +0.000 A 
ATOM      3  N   UNL     1       1.533   8.886  19.903  0.00  0.00    +0.000 NA
ATOM      4  C   UNL     1       1.312   8.782  18.588  0.00  0.00    +0.000 A 
ATOM      5  N   UNL     1       2.072   7.870  17.850  0.00  0.00    +0.000 N 
ATOM      6  N   UNL     1       0.427   9.554  17.922  0.00  0.00    +0.000 NA
ATOM      7  C   UNL     1      -0.314  10.437  18.632  0.00  0.00    +0.000 A 
ATOM      8  H   UNL     1       2.431   8.301  17.016  0.00  0.00    +0.000 HD
ENDROOT
BRANCH   5   9
ATOM      9  C   UNL     1       2.662   6.678  18.296  0.00  0.00    +0.000 A 
ATOM     10  C   UNL     1       4.061   6.506  18.245  0.00  0.00    +0.000 A 
ATOM     11  C   UNL     1       4.665   5.310  18.659  0.00  0.00    +0.000 A 
ATOM     12  C   UNL     1       3.838   4.295  19.108  0.00  0.00    +0.000 A 
ATOM     13  C   UNL     1       2.473   4.437  19.176  0.00  0.00    +0.000 A 
ATOM     14  C   UNL     1       1.873   5.619  18.780  0.00  0.00    +0.000 A 
ATOM     15  C   UNL     1       1.864   3.187  19.696  0.00  0.00    +0.000 C 
ATOM     16  C   UNL     1       1.195   3.400  21.052  0.00  0.00    +0.000 C 
ATOM     17  C   UNL     1       0.913   2.542  18.688  0.00  0.00    +0.000 C 
ATOM     18  O   UNL     1       3.015   2.324  19.876  0.00  0.00    +0.000 OA
ATOM     19  C   UNL     1       4.192   2.953  19.558  0.00  0.00    +0.000 C 
ATOM     20  O   UNL     1       5.306   2.483  19.626  0.00  0.00    +0.000 OA
ENDBRANCH   5   9
BRANCH   1  24
ATOM     21  C   UNL     1      -1.617  12.874  22.257  0.00  0.00    +0.000 A 
ATOM     22  N   UNL     1      -1.202  13.779  21.361  0.00  0.00    +0.000 NA
ATOM     23  O   UNL     1      -0.586  12.993  20.387  0.00  0.00    +0.000 OA
ATOM     24  C   UNL     1      -0.704  11.691  20.792  0.00  0.00    +0.000 A 
ATOM     25  N   UNL     1      -1.358  11.571  21.929  0.00  0.00    +0.000 NA
BRANCH  21  27
ATOM     26  C   UNL     1      -3.821  13.000  23.384  0.00  0.00    +0.000 C 
ATOM     27  C   UNL     1      -2.328  13.247  23.499  0.00  0.00    +0.000 C 
ENDBRANCH  21  27
ENDBRANCH   1  24
BRANCH   7  28
ATOM     28  N   UNL     1      -1.354  11.118  17.992  0.00  0.00    +0.000 N 
ATOM     29  H   UNL     1      -1.499  12.037  18.399  0.00  0.00    +0.000 HD
BRANCH  28  30
ATOM     30  CA  UNL     1      -2.587  10.419  17.636  0.00  0.00    +0.000 C 
BRANCH  30  31
ATOM     31  C   UNL     1      -3.787  11.220  18.127  0.00  0.00    +0.000 A 
ATOM     32  C   UNL     1      -5.006  11.139  17.441  0.00  0.00    +0.000 A 
ATOM     33  C   UNL     1      -6.104  11.900  17.846  0.00  0.00    +0.000 A 
ATOM     34  C   UNL     1      -6.002  12.746  18.949  0.00  0.00    +0.000 A 
ATOM     35  C   UNL     1      -4.806  12.820  19.660  0.00  0.00    +0.000 A 
ATOM     36  C   UNL     1      -3.709  12.058  19.256  0.00  0.00    +0.000 A 
ENDBRANCH  30  31
BRANCH  30  37
ATOM     37  C   UNL     1      -2.647  10.254  16.092  0.00  0.00    +0.000 C 
BRANCH  37  38
ATOM     38  O   UNL     1      -2.342  11.471  15.405  0.00  0.00    +0.000 OA
ATOM     39  H   UNL     1      -1.454  11.356  15.022  0.00  0.00    +0.000 HD
ENDBRANCH  37  38
ENDBRANCH  30  37
ENDBRANCH  28  30
ENDBRANCH   7  28
TORSDOF 8
ENDMDL
MODEL 2
REMARK VINA RESULT:      -8.6      1.489      2.615
REMARK  Name = 
REMARK  11 active torsions:
REMARK  status: ('A' for Active; 'I' for Inactive)
REMARK    1  A    between atoms: C_1  and  C_2
REMARK    2  A    between atoms: C_2  and  C_3
REMARK    3  A    between atoms: C_6  and  C_7
REMARK    4  A    between atoms: N_11  and  C_12
REMARK    5  A    between atoms: C_18  and  C_19
REMARK    6  A    between atoms: C_18  and  C_20
REMARK    7  A    between atoms: C_25  and  N_26
REMARK    8  A    between atoms: N_26  and  CA_27
REMARK    9  A    between atoms: CA_27  and  C_28
REMARK   10  A    between atoms: CA_27  and  C_30
REMARK   11  A    between atoms: C_28  and  O_29
REMARK                            x       y       z     vdW  Elec       q    Type
REMARK                         _______ _______ _______ _____ _____    ______ ____
ROOT
ATOM      1  C   UNL     1      -0.287  11.235  20.787  0.00  0.00    +0.000 A 
ATOM      2  C   UNL     1       0.817  10.476  21.118  0.00  0.00    +0.000 A 
ATOM      3  N   UNL     1       1.462   9.670  20.263  0.00  0.00    +0.000 NA
ATOM      4  C   UNL     1       1.046   9.673  18.991  0.00  0.00    +0.000 A 
ATOM      5  N   UNL     1       1.761   8.926  18.051  0.00  0.00    +0.000 N 
ATOM      6  N   UNL     1       0.000  10.406  18.556  0.00  0.00    +0.000 NA
ATOM      7  C   UNL     1      -0.699  11.129  19.463  0.00  0.00    +0.000 A 
ATOM      8  H   UNL     1       1.943   9.474  17.227  0.00  0.00    +0.000 HD
ENDROOT
BRANCH   5   9
ATOM      9  C   UNL     1       2.522   7.767  18.265  0.00  0.00    +0.000 A 
ATOM     10  C   UNL     1       2.150   6.839  19.260  0.00  0.00    +0.000 A 
ATOM     11  C   UNL     1       2.916   5.690  19.508  0.00  0.00    +0.000 A 
ATOM     12  C   UNL     1       4.059   5.504  18.750  0.00  0.00    +0.000 A 
ATOM     13  C   UNL     1       4.440   6.387  17.770  0.00  0.00    +0.000 A 
ATOM     14  C   UNL     1       3.682   7.516  17.513  0.00  0.00    +0.000 A 
ATOM     15  C   UNL     1       5.698   5.919  17.135  0.00  0.00    +0.000 C 
ATOM     16  C   UNL     1       5.493   5.551  15.667  0.00  0.00    +0.000 C 
ATOM     17  C   UNL     1       6.844   6.914  17.316  0.00  0.00    +0.000 C 
ATOM     18  O   UNL     1       6.000   4.713  17.880  0.00  0.00    +0.000 OA
ATOM     19  C   UNL     1       5.044   4.431  18.823  0.00  0.00    +0.000 C 
ATOM     20  O   UNL     1       5.028   3.483  19.577  0.00  0.00    +0.000 OA
ENDBRANCH   5   9
BRANCH   1  24
ATOM     21  C   UNL     1      -2.030  13.126  23.192  0.00  0.00    +0.000 A 
ATOM     22  N   UNL     1      -0.809  13.634  23.402  0.00  0.00    +0.000 NA
ATOM     23  O   UNL     1      -0.024  12.956  22.471  0.00  0.00    +0.000 OA
ATOM     24  C   UNL     1      -0.856  12.114  21.786  0.00  0.00    +0.000 A 
ATOM     25  N   UNL     1      -2.110  12.206  22.182  0.00  0.00    +0.000 NA
BRANCH  21  27
ATOM     26  C   UNL     1      -4.072  12.352  24.363  0.00  0.00    +0.000 C 
ATOM     27  C   UNL     1      -3.214  13.542  23.973  0.00  0.00    +0.000 C 
ENDBRANCH  21  27
ENDBRANCH   1  24
BRANCH   7  28
ATOM     28  N   UNL     1      -1.885  11.752  19.065  0.00  0.00    +0.000 N 
ATOM     29  H   UNL     1      -2.272  12.321  19.813  0.00  0.00    +0.000 HD
BRANCH  28  30
ATOM     30  CA  UNL     1      -2.884  11.017  18.293  0.00  0.00    +0.000 C 
BRANCH  30  31
ATOM     31  C   UNL     1      -4.275  11.537  18.633  0.00  0.00    +0.000 A 
ATOM     32  C   UNL     1      -4.444  12.425  19.703  0.00  0.00    +0.000 A 
ATOM     33  C   UNL     1      -5.716  12.877  20.060  0.00  0.00    +0.000 A 
ATOM     34  C   UNL     1      -6.836  12.456  19.346  0.00  0.00    +0.000 A 
ATOM     35  C   UNL     1      -6.685  11.595  18.262  0.00  0.00    +0.000 A 
ATOM     36  C   UNL     1      -5.414  11.143  17.904  0.00  0.00    +0.000 A 
ENDBRANCH  30  31
BRANCH  30  37
ATOM     37  C   UNL     1      -2.594  11.210  16.778  0.00  0.00    +0.000 C 
BRANCH  37  38
ATOM     38  O   UNL     1      -1.895  10.096  16.214  0.00  0.00    +0.000 OA
ATOM     39  H   UNL     1      -1.156  10.466  15.701  0.00  0.00    +0.000 HD
ENDBRANCH  37  38
ENDBRANCH  30  37
ENDBRANCH  28  30
ENDBRANCH   7  28
TORSDOF 8
ENDMDL
MODEL 3
REMARK VINA RESULT:      -8.5      1.306      2.374
REMARK  Name = 
REMARK  11 active torsions:
REMARK  status: ('A' for Active; 'I' for Inactive)
REMARK    1  A    between atoms: C_1  and  C_2
REMARK    2  A    between atoms: C_2  and  C_3
REMARK    3  A    between atoms: C_6  and  C_7
REMARK    4  A    between atoms: N_11  and  C_12
REMARK    5  A    between atoms: C_18  and  C_19
REMARK    6  A    between atoms: C_18  and  C_20
REMARK    7  A    between atoms: C_25  and  N_26
REMARK    8  A    between atoms: N_26  and  CA_27
REMARK    9  A    between atoms: CA_27  and  C_28
REMARK   10  A    between atoms: CA_27  and  C_30
REMARK   11  A    between atoms: C_28  and  O_29
REMARK                            x       y       z     vdW  Elec       q    Type
REMARK                         _______ _______ _______ _____ _____    ______ ____
ROOT
ATOM      1  C   UNL     1      -0.510  11.003  20.143  0.00  0.00    +0.000 A 
ATOM      2  C   UNL     1       0.548  10.264  20.632  0.00  0.00    +0.000 A 
ATOM      3  N   UNL     1       1.336   9.484  19.878  0.00  0.00    +0.000 NA
ATOM      4  C   UNL     1       1.121   9.496  18.558  0.00  0.00    +0.000 A 
ATOM      5  N   UNL     1       1.989   8.779  17.731  0.00  0.00    +0.000 N 
ATOM      6  N   UNL     1       0.137  10.213  17.974  0.00  0.00    +0.000 NA
ATOM      7  C   UNL     1      -0.710  10.908  18.770  0.00  0.00    +0.000 A 
ATOM      8  H   UNL     1       2.282   9.342  16.951  0.00  0.00    +0.000 HD
ENDROOT
BRANCH   5   9
ATOM      9  C   UNL     1       2.735   7.634  18.048  0.00  0.00    +0.000 A 
ATOM     10  C   UNL     1       2.319   6.770  19.082  0.00  0.00    +0.000 A 
ATOM     11  C   UNL     1       3.069   5.637  19.432  0.00  0.00    +0.000 A 
ATOM     12  C   UNL     1       4.240   5.401  18.734  0.00  0.00    +0.000 A 
ATOM     13  C   UNL     1       4.665   6.221  17.716  0.00  0.00    +0.000 A 
ATOM     14  C   UNL     1       3.924   7.334  17.359  0.00  0.00    +0.000 A 
ATOM     15  C   UNL     1       5.945   5.711  17.163  0.00  0.00    +0.000 C 
ATOM     16  C   UNL     1       5.796   5.252  15.714  0.00  0.00    +0.000 C 
ATOM     17  C   UNL     1       7.087   6.712  17.328  0.00  0.00    +0.000 C 
ATOM     18  O   UNL     1       6.211   4.553  17.993  0.00  0.00    +0.000 OA
ATOM     19  C   UNL     1       5.217   4.332  18.912  0.00  0.00    +0.000 C 
ATOM     20  O   UNL     1       5.166   3.434  19.723  0.00  0.00    +0.000 OA
ENDBRANCH   5   9
BRANCH   1  24
ATOM     21  C   UNL     1      -2.297  12.740  22.631  0.00  0.00    +0.000 A 
ATOM     22  N   UNL     1      -2.011  13.783  21.843  0.00  0.00    +0.000 NA
ATOM     23  O   UNL     1      -1.304  13.198  20.794  0.00  0.00    +0.000 OA
ATOM     24  C   UNL     1      -1.246  11.855  21.052  0.00  0.00    +0.000 A 
ATOM     25  N   UNL     1      -1.870  11.526  22.164  0.00  0.00    +0.000 NA
BRANCH  21  27
ATOM     26  C   UNL     1      -4.542  12.892  23.670  0.00  0.00    +0.000 C 
ATOM     27  C   UNL     1      -3.042  12.877  23.900  0.00  0.00    +0.000 C 
ENDBRANCH  21  27
ENDBRANCH   1  24
BRANCH   7  28
ATOM     28  N   UNL     1      -1.835  11.510  18.202  0.00  0.00    +0.000 N 
ATOM     29  H   UNL     1      -2.036  12.404  18.640  0.00  0.00    +0.000 HD
BRANCH  28  30
ATOM     30  CA  UNL     1      -3.021  10.716  17.888  0.00  0.00    +0.000 C 
BRANCH  30  31
ATOM     31  C   UNL     1      -4.274  11.510  18.238  0.00  0.00    +0.000 A 
ATOM     32  C   UNL     1      -5.360  11.523  17.354  0.00  0.00    +0.000 A 
ATOM     33  C   UNL     1      -6.498  12.282  17.633  0.00  0.00    +0.000 A 
ATOM     34  C   UNL     1      -6.570  13.031  18.806  0.00  0.00    +0.000 A 
ATOM     35  C   UNL     1      -5.512  13.010  19.710  0.00  0.00    +0.000 A 
ATOM     36  C   UNL     1      -4.374  12.251  19.432  0.00  0.00    +0.000 A 
ENDBRANCH  30  31
BRANCH  30  37
ATOM     37  C   UNL     1      -3.012  10.369  16.373  0.00  0.00    +0.000 C 
BRANCH  37  38
ATOM     38  O   UNL     1      -2.342  11.364  15.594  0.00  0.00    +0.000 OA
ATOM     39  H   UNL     1      -1.664  10.898  15.074  0.00  0.00    +0.000 HD
ENDBRANCH  37  38
ENDBRANCH  30  37
ENDBRANCH  28  30
ENDBRANCH   7  28
TORSDOF 8
ENDMDL
MODEL 4
REMARK VINA RESULT:      -8.4      0.914      1.024
REMARK  Name = 
REMARK  11 active torsions:
REMARK  status: ('A' for Active; 'I' for Inactive)
REMARK    1  A    between atoms: C_1  and  C_2
REMARK    2  A    between atoms: C_2  and  C_3
REMARK    3  A    between atoms: C_6  and  C_7
REMARK    4  A    between atoms: N_11  and  C_12
REMARK    5  A    between atoms: C_18  and  C_19
REMARK    6  A    between atoms: C_18  and  C_20
REMARK    7  A    between atoms: C_25  and  N_26
REMARK    8  A    between atoms: N_26  and  CA_27
REMARK    9  A    between atoms: CA_27  and  C_28
REMARK   10  A    between atoms: CA_27  and  C_30
REMARK   11  A    between atoms: C_28  and  O_29
REMARK                            x       y       z     vdW  Elec       q    Type
REMARK                         _______ _______ _______ _____ _____    ______ ____
ROOT
ATOM      1  C   UNL     1      -0.636  11.302  19.945  0.00  0.00    +0.000 A 
ATOM      2  C   UNL     1       0.468  10.612  20.404  0.00  0.00    +0.000 A 
ATOM      3  N   UNL     1       1.188   9.760  19.661  0.00  0.00    +0.000 NA
ATOM      4  C   UNL     1       0.851   9.643  18.371  0.00  0.00    +0.000 A 
ATOM      5  N   UNL     1       1.645   8.845  17.542  0.00  0.00    +0.000 N 
ATOM      6  N   UNL     1      -0.187  10.300  17.814  0.00  0.00    +0.000 NA
ATOM      7  C   UNL     1      -0.962  11.072  18.613  0.00  0.00    +0.000 A 
ATOM      8  H   UNL     1       1.861   9.328  16.687  0.00  0.00    +0.000 HD
ENDROOT
BRANCH   5   9
ATOM      9  C   UNL     1       2.425   7.735  17.900  0.00  0.00    +0.000 A 
ATOM     10  C   UNL     1       3.805   7.705  17.611  0.00  0.00    +0.000 A 
ATOM     11  C   UNL     1       4.593   6.590  17.935  0.00  0.00    +0.000 A 
ATOM     12  C   UNL     1       3.967   5.514  18.538  0.00  0.00    +0.000 A 
ATOM     13  C   UNL     1       2.626   5.520  18.838  0.00  0.00    +0.000 A 
ATOM     14  C   UNL     1       1.846   6.620  18.531  0.00  0.00    +0.000 A 
ATOM     15  C   UNL     1       2.250   4.233  19.476  0.00  0.00    +0.000 C 
ATOM     16  C   UNL     1       1.802   4.425  20.924  0.00  0.00    +0.000 C 
ATOM     17  C   UNL     1       1.215   3.461  18.659  0.00  0.00    +0.000 C 
ATOM     18  O   UNL     1       3.499   3.498  19.469  0.00  0.00    +0.000 OA
ATOM     19  C   UNL     1       4.532   4.231  18.943  0.00  0.00    +0.000 C 
ATOM     20  O   UNL     1       5.684   3.879  18.825  0.00  0.00    +0.000 OA
ENDBRANCH   5   9
BRANCH   1  24
ATOM     21  C   UNL     1      -2.183  13.285  22.410  0.00  0.00    +0.000 A 
ATOM     22  N   UNL     1      -2.027  14.233  21.476  0.00  0.00    +0.000 NA
ATOM     23  O   UNL     1      -1.427  13.541  20.426  0.00  0.00    +0.000 OA
ATOM     24  C   UNL     1      -1.292  12.240  20.830  0.00  0.00    +0.000 A 
ATOM     25  N   UNL     1      -1.770  12.034  22.040  0.00  0.00    +0.000 NA
BRANCH  21  27
ATOM     26  C   UNL     1      -3.850  12.541  24.086  0.00  0.00    +0.000 C 
ATOM     27  C   UNL     1      -2.779  13.558  23.735  0.00  0.00    +0.000 C 
ENDBRANCH  21  27
ENDBRANCH   1  24
BRANCH   7  28
ATOM     28  N   UNL     1      -2.139  11.618  18.094  0.00  0.00    +0.000 N 
ATOM     29  H   UNL     1      -2.372  12.495  18.551  0.00  0.00    +0.000 HD
BRANCH  28  30
ATOM     30  CA  UNL     1      -3.291  10.763  17.815  0.00  0.00    +0.000 C 
BRANCH  30  31
ATOM     31  C   UNL     1      -4.560  11.435  18.326  0.00  0.00    +0.000 A 
ATOM     32  C   UNL     1      -5.764  11.268  17.630  0.00  0.00    +0.000 A 
ATOM     33  C   UNL     1      -6.927  11.913  18.054  0.00  0.00    +0.000 A 
ATOM     34  C   UNL     1      -6.906  12.726  19.186  0.00  0.00    +0.000 A 
ATOM     35  C   UNL     1      -5.724  12.883  19.906  0.00  0.00    +0.000 A 
ATOM     36  C   UNL     1      -4.561  12.238  19.483  0.00  0.00    +0.000 A 
ENDBRANCH  30  31
BRANCH  30  37
ATOM     37  C   UNL     1      -3.387  10.529  16.282  0.00  0.00    +0.000 C 
BRANCH  37  38
ATOM     38  O   UNL     1      -2.377  11.240  15.561  0.00  0.00    +0.000 OA
ATOM     39  H   UNL     1      -1.944  10.591  14.979  0.00  0.00    +0.000 HD
ENDBRANCH  37  38
ENDBRANCH  30  37
ENDBRANCH  28  30
ENDBRANCH   7  28
TORSDOF 8
ENDMDL
MODEL 5
REMARK VINA RESULT:      -8.3      1.147      1.494
REMARK  Name = 
REMARK  11 active torsions:
REMARK  status: ('A' for Active; 'I' for Inactive)
REMARK    1  A    between atoms: C_1  and  C_2
REMARK    2  A    between atoms: C_2  and  C_3
REMARK    3  A    between atoms: C_6  and  C_7
REMARK    4  A    between atoms: N_11  and  C_12
REMARK    5  A    between atoms: C_18  and  C_19
REMARK    6  A    between atoms: C_18  and  C_20
REMARK    7  A    between atoms: C_25  and  N_26
REMARK    8  A    between atoms: N_26  and  CA_27
REMARK    9  A    between atoms: CA_27  and  C_28
REMARK   10  A    between atoms: CA_27  and  C_30
REMARK   11  A    between atoms: C_28  and  O_29
REMARK                            x       y       z     vdW  Elec       q    Type
REMARK                         _______ _______ _______ _____ _____    ______ ____
ROOT
ATOM      1  C   UNL     1      -0.556  11.106  20.084  0.00  0.00    +0.000 A 
ATOM      2  C   UNL     1       0.503  10.354  20.553  0.00  0.00    +0.000 A 
ATOM      3  N   UNL     1       1.239   9.532  19.794  0.00  0.00    +0.000 NA
ATOM      4  C   UNL     1       0.971   9.510  18.483  0.00  0.00    +0.000 A 
ATOM      5  N   UNL     1       1.788   8.746  17.644  0.00  0.00    +0.000 N 
ATOM      6  N   UNL     1      -0.017  10.234  17.917  0.00  0.00    +0.000 NA
ATOM      7  C   UNL     1      -0.813  10.974  18.724  0.00  0.00    +0.000 A 
ATOM      8  H   UNL     1       2.063   9.278  16.837  0.00  0.00    +0.000 HD
ENDROOT
BRANCH   5   9
ATOM      9  C   UNL     1       2.517   7.592  17.967  0.00  0.00    +0.000 A 
ATOM     10  C   UNL     1       3.895   7.509  17.677  0.00  0.00    +0.000 A 
ATOM     11  C   UNL     1       4.633   6.351  17.965  0.00  0.00    +0.000 A 
ATOM     12  C   UNL     1       3.958   5.285  18.534  0.00  0.00    +0.000 A 
ATOM     13  C   UNL     1       2.619   5.341  18.834  0.00  0.00    +0.000 A 
ATOM     14  C   UNL     1       1.888   6.484  18.562  0.00  0.00    +0.000 A 
ATOM     15  C   UNL     1       2.185   4.052  19.431  0.00  0.00    +0.000 C 
ATOM     16  C   UNL     1       1.744   4.219  20.885  0.00  0.00    +0.000 C 
ATOM     17  C   UNL     1       1.118   3.353  18.591  0.00  0.00    +0.000 C 
ATOM     18  O   UNL     1       3.400   3.263  19.401  0.00  0.00    +0.000 OA
ATOM     19  C   UNL     1       4.465   3.966  18.898  0.00  0.00    +0.000 C 
ATOM     20  O   UNL     1       5.601   3.567  18.769  0.00  0.00    +0.000 OA
ENDBRANCH   5   9
BRANCH   1  24
ATOM     21  C   UNL     1      -2.241  13.561  21.963  0.00  0.00    +0.000 A 
ATOM     22  N   UNL     1      -2.336  12.555  22.841  0.00  0.00    +0.000 NA
ATOM     23  O   UNL     1      -1.672  11.513  22.195  0.00  0.00    +0.000 OA
ATOM     24  C   UNL     1      -1.234  12.003  20.995  0.00  0.00    +0.000 A 
ATOM     25  N   UNL     1      -1.541  13.272  20.822  0.00  0.00    +0.000 NA
BRANCH  21  27
ATOM     26  C   UNL     1      -3.348  15.524  20.932  0.00  0.00    +0.000 C 
ATOM     27  C   UNL     1      -2.824  14.897  22.211  0.00  0.00    +0.000 C 
ENDBRANCH  21  27
ENDBRANCH   1  24
BRANCH   7  28
ATOM     28  N   UNL     1      -1.946  11.588  18.182  0.00  0.00    +0.000 N 
ATOM     29  H   UNL     1      -2.131  12.482  18.629  0.00  0.00    +0.000 HD
BRANCH  28  30
ATOM     30  CA  UNL     1      -3.144  10.805  17.890  0.00  0.00    +0.000 C 
BRANCH  30  31
ATOM     31  C   UNL     1      -4.383  11.654  18.148  0.00  0.00    +0.000 A 
ATOM     32  C   UNL     1      -4.620  12.168  19.429  0.00  0.00    +0.000 A 
ATOM     33  C   UNL     1      -5.773  12.908  19.699  0.00  0.00    +0.000 A 
ATOM     34  C   UNL     1      -6.700  13.153  18.688  0.00  0.00    +0.000 A 
ATOM     35  C   UNL     1      -6.469  12.673  17.401  0.00  0.00    +0.000 A 
ATOM     36  C   UNL     1      -5.317  11.934  17.131  0.00  0.00    +0.000 A 
ENDBRANCH  30  31
BRANCH  30  37
ATOM     37  C   UNL     1      -3.103  10.354  16.403  0.00  0.00    +0.000 C 
BRANCH  37  38
ATOM     38  O   UNL     1      -2.265  11.196  15.605  0.00  0.00    +0.000 OA
ATOM     39  H   UNL     1      -2.753  11.368  14.780  0.00  0.00    +0.000 HD
ENDBRANCH  37  38
ENDBRANCH  30  37
ENDBRANCH  28  30
ENDBRANCH   7  28
TORSDOF 8
ENDMDL
MODEL 6
REMARK VINA RESULT:      -8.3      2.269      3.206
REMARK  Name = 
REMARK  11 active torsions:
REMARK  status: ('A' for Active; 'I' for Inactive)
REMARK    1  A    between atoms: C_1  and  C_2
REMARK    2  A    between atoms: C_2  and  C_3
REMARK    3  A    between atoms: C_6  and  C_7
REMARK    4  A    between atoms: N_11  and  C_12
REMARK    5  A    between atoms: C_18  and  C_19
REMARK    6  A    between atoms: C_18  and  C_20
REMARK    7  A    between atoms: C_25  and  N_26
REMARK    8  A    between atoms: N_26  and  CA_27
REMARK    9  A    between atoms: CA_27  and  C_28
REMARK   10  A    between atoms: CA_27  and  C_30
REMARK   11  A    between atoms: C_28  and  O_29
REMARK                            x       y       z     vdW  Elec       q    Type
REMARK                         _______ _______ _______ _____ _____    ______ ____
ROOT
ATOM      1  C   UNL     1       0.336  10.083  20.455  0.00  0.00    +0.000 A 
ATOM      2  C   UNL     1       0.875   8.887  20.885  0.00  0.00    +0.000 A 
ATOM      3  N   UNL     1       1.637   8.087  20.127  0.00  0.00    +0.000 NA
ATOM      4  C   UNL     1       1.954   8.529  18.903  0.00  0.00    +0.000 A 
ATOM      5  N   UNL     1       2.833   7.771  18.125  0.00  0.00    +0.000 N 
ATOM      6  N   UNL     1       1.510   9.699  18.400  0.00  0.00    +0.000 NA
ATOM      7  C   UNL     1       0.655  10.436  19.149  0.00  0.00    +0.000 A 
ATOM      8  H   UNL     1       3.546   8.356  17.724  0.00  0.00    +0.000 HD
ENDROOT
BRANCH   5   9
ATOM      9  C   UNL     1       3.049   6.385  18.165  0.00  0.00    +0.000 A 
ATOM     10  C   UNL     1       3.961   5.774  17.280  0.00  0.00    +0.000 A 
ATOM     11  C   UNL     1       4.166   4.387  17.287  0.00  0.00    +0.000 A 
ATOM     12  C   UNL     1       3.432   3.633  18.187  0.00  0.00    +0.000 A 
ATOM     13  C   UNL     1       2.543   4.203  19.066  0.00  0.00    +0.000 A 
ATOM     14  C   UNL     1       2.345   5.573  19.071  0.00  0.00    +0.000 A 
ATOM     15  C   UNL     1       1.914   3.146  19.898  0.00  0.00    +0.000 C 
ATOM     16  C   UNL     1       2.293   3.281  21.372  0.00  0.00    +0.000 C 
ATOM     17  C   UNL     1       0.400   3.080  19.704  0.00  0.00    +0.000 C 
ATOM     18  O   UNL     1       2.510   1.933  19.374  0.00  0.00    +0.000 OA
ATOM     19  C   UNL     1       3.421   2.188  18.381  0.00  0.00    +0.000 C 
ATOM     20  O   UNL     1       4.079   1.371  17.775  0.00  0.00    +0.000 OA
ENDBRANCH   5   9
BRANCH   1  24
ATOM     21  C   UNL     1      -1.838  11.998  22.457  0.00  0.00    +0.000 A 
ATOM     22  N   UNL     1      -0.866  11.813  23.359  0.00  0.00    +0.000 NA
ATOM     23  O   UNL     1       0.076  11.065  22.654  0.00  0.00    +0.000 OA
ATOM     24  C   UNL     1      -0.421  10.885  21.392  0.00  0.00    +0.000 A 
ATOM     25  N   UNL     1      -1.590  11.468  21.220  0.00  0.00    +0.000 NA
BRANCH  21  27
ATOM     26  C   UNL     1      -3.988  12.829  21.548  0.00  0.00    +0.000 C 
ATOM     27  C   UNL     1      -3.079  12.741  22.760  0.00  0.00    +0.000 C 
ENDBRANCH  21  27
ENDBRANCH   1  24
BRANCH   7  28
ATOM     28  N   UNL     1       0.049  11.559  18.579  0.00  0.00    +0.000 N 
ATOM     29  H   UNL     1      -0.476  11.312  17.745  0.00  0.00    +0.000 HD
BRANCH  28  30
ATOM     30  CA  UNL     1       0.778  12.822  18.476  0.00  0.00    +0.000 C 
BRANCH  30  31
ATOM     31  C   UNL     1       0.354  13.749  19.608  0.00  0.00    +0.000 A 
ATOM     32  C   UNL     1       1.177  13.896  20.732  0.00  0.00    +0.000 A 
ATOM     33  C   UNL     1       0.785  14.704  21.801  0.00  0.00    +0.000 A 
ATOM     34  C   UNL     1      -0.430  15.384  21.757  0.00  0.00    +0.000 A 
ATOM     35  C   UNL     1      -1.249  15.272  20.637  0.00  0.00    +0.000 A 
ATOM     36  C   UNL     1      -0.858  14.465  19.567  0.00  0.00    +0.000 A 
ENDBRANCH  30  31
BRANCH  30  37
ATOM     37  C   UNL     1       2.303  12.533  18.560  0.00  0.00    +0.000 C 
BRANCH  37  38
ATOM     38  O   UNL     1       2.865  12.211  17.284  0.00  0.00    +0.000 OA
ATOM     39  H   UNL     1       3.816  12.406  17.345  0.00  0.00    +0.000 HD
ENDBRANCH  37  38
ENDBRANCH  30  37
ENDBRANCH  28  30
ENDBRANCH   7  28
TORSDOF 8
ENDMDL
MODEL 7
REMARK VINA RESULT:      -8.3      1.065      1.422
REMARK  Name = 
REMARK  11 active torsions:
REMARK  status: ('A' for Active; 'I' for Inactive)
REMARK    1  A    between atoms: C_1  and  C_2
REMARK    2  A    between atoms: C_2  and  C_3
REMARK    3  A    between atoms: C_6  and  C_7
REMARK    4  A    between atoms: N_11  and  C_12
REMARK    5  A    between atoms: C_18  and  C_19
REMARK    6  A    between atoms: C_18  and  C_20
REMARK    7  A    between atoms: C_25  and  N_26
REMARK    8  A    between atoms: N_26  and  CA_27
REMARK    9  A    between atoms: CA_27  and  C_28
REMARK   10  A    between atoms: CA_27  and  C_30
REMARK   11  A    between atoms: C_28  and  O_29
REMARK                            x       y       z     vdW  Elec       q    Type
REMARK                         _______ _______ _______ _____ _____    ______ ____
ROOT
ATOM      1  C   UNL     1      -0.373  11.334  20.521  0.00  0.00    +0.000 A 
ATOM      2  C   UNL     1       0.743  10.593  20.855  0.00  0.00    +0.000 A 
ATOM      3  N   UNL     1       1.374   9.760  20.017  0.00  0.00    +0.000 NA
ATOM      4  C   UNL     1       0.932   9.715  18.754  0.00  0.00    +0.000 A 
ATOM      5  N   UNL     1       1.631   8.939  17.826  0.00  0.00    +0.000 N 
ATOM      6  N   UNL     1      -0.127  10.427  18.315  0.00  0.00    +0.000 NA
ATOM      7  C   UNL     1      -0.811  11.179  19.211  0.00  0.00    +0.000 A 
ATOM      8  H   UNL     1       1.792   9.458  16.980  0.00  0.00    +0.000 HD
ENDROOT
BRANCH   5   9
ATOM      9  C   UNL     1       2.403   7.792  18.066  0.00  0.00    +0.000 A 
ATOM     10  C   UNL     1       3.716   7.693  17.562  0.00  0.00    +0.000 A 
ATOM     11  C   UNL     1       4.491   6.541  17.767  0.00  0.00    +0.000 A 
ATOM     12  C   UNL     1       3.916   5.498  18.472  0.00  0.00    +0.000 A 
ATOM     13  C   UNL     1       2.642   5.571  18.981  0.00  0.00    +0.000 A 
ATOM     14  C   UNL     1       1.877   6.709  18.791  0.00  0.00    +0.000 A 
ATOM     15  C   UNL     1       2.309   4.305  19.683  0.00  0.00    +0.000 C 
ATOM     16  C   UNL     1       2.108   4.522  21.181  0.00  0.00    +0.000 C 
ATOM     17  C   UNL     1       1.121   3.585  19.048  0.00  0.00    +0.000 C 
ATOM     18  O   UNL     1       3.504   3.509  19.485  0.00  0.00    +0.000 OA
ATOM     19  C   UNL     1       4.475   4.189  18.794  0.00  0.00    +0.000 C 
ATOM     20  O   UNL     1       5.575   3.780  18.498  0.00  0.00    +0.000 OA
ENDBRANCH   5   9
BRANCH   1  24
ATOM     21  C   UNL     1      -2.018  13.244  22.980  0.00  0.00    +0.000 A 
ATOM     22  N   UNL     1      -0.907  13.985  22.878  0.00  0.00    +0.000 NA
ATOM     23  O   UNL     1      -0.175  13.317  21.898  0.00  0.00    +0.000 OA
ATOM     24  C   UNL     1      -0.926  12.245  21.500  0.00  0.00    +0.000 A 
ATOM     25  N   UNL     1      -2.084  12.177  22.125  0.00  0.00    +0.000 NA
BRANCH  21  27
ATOM     26  C   UNL     1      -4.008  12.363  24.166  0.00  0.00    +0.000 C 
ATOM     27  C   UNL     1      -3.108  13.562  23.926  0.00  0.00    +0.000 C 
ENDBRANCH  21  27
ENDBRANCH   1  24
BRANCH   7  28
ATOM     28  N   UNL     1      -2.009  11.781  18.816  0.00  0.00    +0.000 N 
ATOM     29  H   UNL     1      -2.353  12.419  19.528  0.00  0.00    +0.000 HD
BRANCH  28  30
ATOM     30  CA  UNL     1      -3.052  10.995  18.161  0.00  0.00    +0.000 C 
BRANCH  30  31
ATOM     31  C   UNL     1      -4.422  11.507  18.590  0.00  0.00    +0.000 A 
ATOM     32  C   UNL     1      -4.529  12.373  19.685  0.00  0.00    +0.000 A 
ATOM     33  C   UNL     1      -5.779  12.816  20.123  0.00  0.00    +0.000 A 
ATOM     34  C   UNL     1      -6.937  12.408  19.466  0.00  0.00    +0.000 A 
ATOM     35  C   UNL     1      -6.849  11.568  18.358  0.00  0.00    +0.000 A 
ATOM     36  C   UNL     1      -5.600  11.126  17.919  0.00  0.00    +0.000 A 
ENDBRANCH  30  31
BRANCH  30  37
ATOM     37  C   UNL     1      -2.889  11.124  16.620  0.00  0.00    +0.000 C 
BRANCH  37  38
ATOM     38  O   UNL     1      -1.964  10.170  16.091  0.00  0.00    +0.000 OA
ATOM     39  H   UNL     1      -1.557  10.583  15.310  0.00  0.00    +0.000 HD
ENDBRANCH  37  38
ENDBRANCH  30  37
ENDBRANCH  28  30
ENDBRANCH   7  28
TORSDOF 8
ENDMDL
MODEL 8
REMARK VINA RESULT:      -8.1      3.707     10.150
REMARK  Name = 
REMARK  11 active torsions:
REMARK  status: ('A' for Active; 'I' for Inactive)
REMARK    1  A    between atoms: C_1  and  C_2
REMARK    2  A    between atoms: C_2  and  C_3
REMARK    3  A    between atoms: C_6  and  C_7
REMARK    4  A    between atoms: N_11  and  C_12
REMARK    5  A    between atoms: C_18  and  C_19
REMARK    6  A    between atoms: C_18  and  C_20
REMARK    7  A    between atoms: C_25  and  N_26
REMARK    8  A    between atoms: N_26  and  CA_27
REMARK    9  A    between atoms: CA_27  and  C_28
REMARK   10  A    between atoms: CA_27  and  C_30
REMARK   11  A    between atoms: C_28  and  O_29
REMARK                            x       y       z     vdW  Elec       q    Type
REMARK                         _______ _______ _______ _____ _____    ______ ____
ROOT
ATOM      1  C   UNL     1       2.520   6.767  19.182  0.00  0.00    +0.000 A 
ATOM      2  C   UNL     1       1.865   7.759  19.883  0.00  0.00    +0.000 A 
ATOM      3  N   UNL     1       1.681   9.007  19.429  0.00  0.00    +0.000 NA
ATOM      4  C   UNL     1       2.093   9.270  18.183  0.00  0.00    +0.000 A 
ATOM      5  N   UNL     1       1.822  10.528  17.639  0.00  0.00    +0.000 N 
ATOM      6  N   UNL     1       2.711   8.361  17.401  0.00  0.00    +0.000 NA
ATOM      7  C   UNL     1       2.979   7.140  17.923  0.00  0.00    +0.000 A 
ATOM      8  H   UNL     1       1.441  10.439  16.713  0.00  0.00    +0.000 HD
ENDROOT
BRANCH   5   9
ATOM      9  C   UNL     1       1.657  11.745  18.317  0.00  0.00    +0.000 A 
ATOM     10  C   UNL     1       0.506  11.983  19.097  0.00  0.00    +0.000 A 
ATOM     11  C   UNL     1       0.312  13.205  19.757  0.00  0.00    +0.000 A 
ATOM     12  C   UNL     1       1.285  14.178  19.607  0.00  0.00    +0.000 A 
ATOM     13  C   UNL     1       2.420  13.971  18.860  0.00  0.00    +0.000 A 
ATOM     14  C   UNL     1       2.622  12.763  18.216  0.00  0.00    +0.000 A 
ATOM     15  C   UNL     1       3.268  15.189  18.889  0.00  0.00    +0.000 C 
ATOM     16  C   UNL     1       4.600  14.939  19.595  0.00  0.00    +0.000 C 
ATOM     17  C   UNL     1       3.466  15.791  17.499  0.00  0.00    +0.000 C 
ATOM     18  O   UNL     1       2.481  16.105  19.691  0.00  0.00    +0.000 OA
ATOM     19  C   UNL     1       1.320  15.534  20.145  0.00  0.00    +0.000 C 
ATOM     20  O   UNL     1       0.480  16.056  20.844  0.00  0.00    +0.000 OA
ENDBRANCH   5   9
BRANCH   1  24
ATOM     21  C   UNL     1       3.017   3.459  20.280  0.00  0.00    +0.000 A 
ATOM     22  N   UNL     1       2.303   3.898  21.324  0.00  0.00    +0.000 NA
ATOM     23  O   UNL     1       2.030   5.221  20.981  0.00  0.00    +0.000 OA
ATOM     24  C   UNL     1       2.600   5.442  19.757  0.00  0.00    +0.000 A 
ATOM     25  N   UNL     1       3.198   4.371  19.276  0.00  0.00    +0.000 NA
BRANCH  21  27
ATOM     26  C   UNL     1       3.570   1.573  18.771  0.00  0.00    +0.000 C 
ATOM     27  C   UNL     1       3.553   2.083  20.200  0.00  0.00    +0.000 C 
ENDBRANCH  21  27
ENDBRANCH   1  24
BRANCH   7  28
ATOM     28  N   UNL     1       3.771   6.249  17.194  0.00  0.00    +0.000 N 
ATOM     29  H   UNL     1       3.907   5.378  17.699  0.00  0.00    +0.000 HD
BRANCH  28  30
ATOM     30  CA  UNL     1       4.957   6.722  16.484  0.00  0.00    +0.000 C 
BRANCH  30  31
ATOM     31  C   UNL     1       6.160   6.680  17.417  0.00  0.00    +0.000 A 
ATOM     32  C   UNL     1       6.314   5.608  18.306  0.00  0.00    +0.000 A 
ATOM     33  C   UNL     1       7.385   5.573  19.202  0.00  0.00    +0.000 A 
ATOM     34  C   UNL     1       8.322   6.604  19.214  0.00  0.00    +0.000 A 
ATOM     35  C   UNL     1       8.201   7.665  18.319  0.00  0.00    +0.000 A 
ATOM     36  C   UNL     1       7.132   7.700  17.423  0.00  0.00    +0.000 A 
ENDBRANCH  30  31
BRANCH  30  37
ATOM     37  C   UNL     1       5.203   5.812  15.248  0.00  0.00    +0.000 C 
BRANCH  37  38
ATOM     38  O   UNL     1       6.588   5.735  14.899  0.00  0.00    +0.000 OA
ATOM     39  H   UNL     1       7.075   5.599  15.731  0.00  0.00    +0.000 HD
ENDBRANCH  37  38
ENDBRANCH  30  37
ENDBRANCH  28  30
ENDBRANCH   7  28
TORSDOF 8
ENDMDL
MODEL 9
REMARK VINA RESULT:      -8.0      1.211      1.415
REMARK  Name = 
REMARK  11 active torsions:
REMARK  status: ('A' for Active; 'I' for Inactive)
REMARK    1  A    between atoms: C_1  and  C_2
REMARK    2  A    between atoms: C_2  and  C_3
REMARK    3  A    between atoms: C_6  and  C_7
REMARK    4  A    between atoms: N_11  and  C_12
REMARK    5  A    between atoms: C_18  and  C_19
REMARK    6  A    between atoms: C_18  and  C_20
REMARK    7  A    between atoms: C_25  and  N_26
REMARK    8  A    between atoms: N_26  and  CA_27
REMARK    9  A    between atoms: CA_27  and  C_28
REMARK   10  A    between atoms: CA_27  and  C_30
REMARK   11  A    between atoms: C_28  and  O_29
REMARK                            x       y       z     vdW  Elec       q    Type
REMARK                         _______ _______ _______ _____ _____    ______ ____
ROOT
ATOM      1  C   UNL     1      -0.698  11.068  19.931  0.00  0.00    +0.000 A 
ATOM      2  C   UNL     1       0.377  10.359  20.430  0.00  0.00    +0.000 A 
ATOM      3  N   UNL     1       1.131   9.522  19.704  0.00  0.00    +0.000 NA
ATOM      4  C   UNL     1       0.862   9.440  18.395  0.00  0.00    +0.000 A 
ATOM      5  N   UNL     1       1.695   8.660  17.588  0.00  0.00    +0.000 N 
ATOM      6  N   UNL     1      -0.141  10.119  17.801  0.00  0.00    +0.000 NA
ATOM      7  C   UNL     1      -0.953  10.874  18.578  0.00  0.00    +0.000 A 
ATOM      8  H   UNL     1       1.958   9.164  16.758  0.00  0.00    +0.000 HD
ENDROOT
BRANCH   5   9
ATOM      9  C   UNL     1       2.449   7.536  17.957  0.00  0.00    +0.000 A 
ATOM     10  C   UNL     1       3.840   7.497  17.725  0.00  0.00    +0.000 A 
ATOM     11  C   UNL     1       4.604   6.369  18.060  0.00  0.00    +0.000 A 
ATOM     12  C   UNL     1       3.943   5.288  18.616  0.00  0.00    +0.000 A 
ATOM     13  C   UNL     1       2.591   5.302  18.861  0.00  0.00    +0.000 A 
ATOM     14  C   UNL     1       1.834   6.416  18.543  0.00  0.00    +0.000 A 
ATOM     15  C   UNL     1       2.177   4.007  19.459  0.00  0.00    +0.000 C 
ATOM     16  C   UNL     1       1.672   4.178  20.891  0.00  0.00    +0.000 C 
ATOM     17  C   UNL     1       1.170   3.261  18.587  0.00  0.00    +0.000 C 
ATOM     18  O   UNL     1       3.419   3.260  19.491  0.00  0.00    +0.000 OA
ATOM     19  C   UNL     1       4.479   3.993  19.020  0.00  0.00    +0.000 C 
ATOM     20  O   UNL     1       5.632   3.631  18.944  0.00  0.00    +0.000 OA
ENDBRANCH   5   9
BRANCH   1  24
ATOM     21  C   UNL     1      -2.000  13.450  22.174  0.00  0.00    +0.000 A 
ATOM     22  N   UNL     1      -3.141  13.139  21.547  0.00  0.00    +0.000 NA
ATOM     23  O   UNL     1      -2.739  12.170  20.629  0.00  0.00    +0.000 OA
ATOM     24  C   UNL     1      -1.395  11.987  20.805  0.00  0.00    +0.000 A 
ATOM     25  N   UNL     1      -0.902  12.740  21.768  0.00  0.00    +0.000 NA
BRANCH  21  27
ATOM     26  C   UNL     1      -0.631  15.253  23.182  0.00  0.00    +0.000 C 
ATOM     27  C   UNL     1      -1.927  14.466  23.245  0.00  0.00    +0.000 C 
ENDBRANCH  21  27
ENDBRANCH   1  24
BRANCH   7  28
ATOM     28  N   UNL     1      -2.099  11.441  18.013  0.00  0.00    +0.000 N 
ATOM     29  H   UNL     1      -2.562  12.066  18.666  0.00  0.00    +0.000 HD
BRANCH  28  30
ATOM     30  CA  UNL     1      -3.011  10.626  17.214  0.00  0.00    +0.000 C 
BRANCH  30  31
ATOM     31  C   UNL     1      -4.451  10.984  17.560  0.00  0.00    +0.000 A 
ATOM     32  C   UNL     1      -5.063  12.082  16.943  0.00  0.00    +0.000 A 
ATOM     33  C   UNL     1      -6.366  12.455  17.281  0.00  0.00    +0.000 A 
ATOM     34  C   UNL     1      -7.078  11.729  18.233  0.00  0.00    +0.000 A 
ATOM     35  C   UNL     1      -6.496  10.618  18.838  0.00  0.00    +0.000 A 
ATOM     36  C   UNL     1      -5.195  10.244  18.501  0.00  0.00    +0.000 A 
ENDBRANCH  30  31
BRANCH  30  37
ATOM     37  C   UNL     1      -2.739  10.892  15.707  0.00  0.00    +0.000 C 
BRANCH  37  38
ATOM     38  O   UNL     1      -3.070   9.766  14.889  0.00  0.00    +0.000 OA
ATOM     39  H   UNL     1      -3.998   9.881  14.622  0.00  0.00    +0.000 HD
ENDBRANCH  37  38
ENDBRANCH  30  37
ENDBRANCH  28  30
ENDBRANCH   7  28
TORSDOF 8
ENDMDL
