MODEL 1
REMARK VINA RESULT:      -7.5      0.000      0.000
REMARK  Name = 
REMARK  5 active torsions:
REMARK  status: ('A' for Active; 'I' for Inactive)
REMARK    1  A    between atoms: C_1  and  C_2
REMARK    2  A    between atoms: C_6  and  C_7
REMARK    3  A    between atoms: C_10  and  C_11
REMARK    4  A    between atoms: N_13  and  C_14
REMARK    5  A    between atoms: C_14  and  N_16
REMARK                            x       y       z     vdW  Elec       q    Type
REMARK                         _______ _______ _______ _____ _____    ______ ____
ROOT
ATOM      1  C   UNL     1       2.160   3.683  21.592  0.00  0.00    +0.000 C 
ATOM      2  C   UNL     1       2.420   4.172  20.163  0.00  0.00    +0.000 C 
ATOM      3  C   UNL     1       1.416   3.513  19.190  0.00  0.00    +0.000 C 
ATOM      4  C   UNL     1       1.675   3.996  17.756  0.00  0.00    +0.000 C 
ATOM      5  C   UNL     1       3.098   3.602  17.336  0.00  0.00    +0.000 C 
ATOM      6  C   UNL     1       4.132   4.252  18.279  0.00  0.00    +0.000 C 
ATOM      7  C   UNL     1       5.554   3.864  17.861  0.00  0.00    +0.000 C 
ATOM      8  C   UNL     1       3.854   3.787  19.726  0.00  0.00    +0.000 C 
ATOM      9  C   UNL     1       3.969   5.785  18.217  0.00  0.00    +0.000 C 
ATOM     10  C   UNL     1       2.547   6.216  18.650  0.00  0.00    +0.000 C 
ATOM     11  C   UNL     1       1.532   5.524  17.700  0.00  0.00    +0.000 C 
ATOM     12  C   UNL     1       2.270   5.713  20.083  0.00  0.00    +0.000 C 
ENDROOT
BRANCH  10  13
ATOM     13  C   UNL     1       2.411   7.752  18.531  0.00  0.00    +0.000 C 
ATOM     14  O   UNL     1       3.140   8.387  17.770  0.00  0.00    +0.000 OA
ATOM     15  N   UNL     1       1.503   8.333  19.422  0.00  0.00    +0.000 N 
ATOM     16  H   UNL     1       0.905   7.695  19.921  0.00  0.00    +0.000 HD
BRANCH  15  17
ATOM     17  C   UNL     1       1.148   9.677  19.589  0.00  0.00    +0.000 C 
ATOM     18  S   UNL     1       1.210  10.805  18.344  0.00  0.00    +0.000 S 
BRANCH  17  19
ATOM     19  N   UNL     1       0.711   9.980  20.901  0.00  0.00    +0.000 N 
ATOM     20  C   UNL     1       0.277  11.346  21.285  0.00  0.00    +0.000 C 
ATOM     21  C   UNL     1      -0.802  11.291  22.369  0.00  0.00    +0.000 C 
ATOM     22  O   UNL     1      -0.347  10.564  23.518  0.00  0.00    +0.000 OA
ATOM     23  C   UNL     1       0.011   9.223  23.161  0.00  0.00    +0.000 C 
ATOM     24  C   UNL     1       1.109   9.200  22.091  0.00  0.00    +0.000 C 
ENDBRANCH  17  19
ENDBRANCH  15  17
ENDBRANCH  10  13
TORSDOF 3
ENDMDL
MODEL 2
REMARK VINA RESULT:      -7.4      0.388      1.073
REMARK  Name = 
REMARK  5 active torsions:
REMARK  status: ('A' for Active; 'I' for Inactive)
REMARK    1  A    between atoms: C_1  and  C_2
REMARK    2  A    between atoms: C_6  and  C_7
REMARK    3  A    between atoms: C_10  and  C_11
REMARK    4  A    between atoms: N_13  and  C_14
REMARK    5  A    between atoms: C_14  and  N_16
REMARK                            x       y       z     vdW  Elec       q    Type
REMARK                         _______ _______ _______ _____ _____    ______ ____
ROOT
ATOM      1  C   UNL     1       2.290   3.789  21.600  0.00  0.00    +0.000 C 
ATOM      2  C   UNL     1       2.477   4.300  20.168  0.00  0.00    +0.000 C 
ATOM      3  C   UNL     1       1.440   3.638  19.233  0.00  0.00    +0.000 C 
ATOM      4  C   UNL     1       1.625   4.144  17.795  0.00  0.00    +0.000 C 
ATOM      5  C   UNL     1       3.033   3.778  17.305  0.00  0.00    +0.000 C 
ATOM      6  C   UNL     1       4.099   4.433  18.208  0.00  0.00    +0.000 C 
ATOM      7  C   UNL     1       5.506   4.074  17.720  0.00  0.00    +0.000 C 
ATOM      8  C   UNL     1       3.895   3.945  19.661  0.00  0.00    +0.000 C 
ATOM      9  C   UNL     1       3.909   5.964  18.174  0.00  0.00    +0.000 C 
ATOM     10  C   UNL     1       2.502   6.366  18.678  0.00  0.00    +0.000 C 
ATOM     11  C   UNL     1       1.455   5.670  17.766  0.00  0.00    +0.000 C 
ATOM     12  C   UNL     1       2.299   5.840  20.116  0.00  0.00    +0.000 C 
ENDROOT
BRANCH  10  13
ATOM     13  C   UNL     1       2.336   7.901  18.586  0.00  0.00    +0.000 C 
ATOM     14  O   UNL     1       3.052   8.563  17.837  0.00  0.00    +0.000 OA
ATOM     15  N   UNL     1       1.418   8.448  19.489  0.00  0.00    +0.000 N 
ATOM     16  H   UNL     1       0.833   7.790  19.976  0.00  0.00    +0.000 HD
BRANCH  15  17
ATOM     17  C   UNL     1       1.037   9.783  19.679  0.00  0.00    +0.000 C 
ATOM     18  S   UNL     1       1.365  10.999  18.567  0.00  0.00    +0.000 S 
BRANCH  17  19
ATOM     19  N   UNL     1       0.331   9.993  20.888  0.00  0.00    +0.000 N 
ATOM     20  C   UNL     1       0.138   8.907  21.880  0.00  0.00    +0.000 C 
ATOM     21  C   UNL     1       0.081   9.472  23.302  0.00  0.00    +0.000 C 
ATOM     22  O   UNL     1      -0.952  10.459  23.427  0.00  0.00    +0.000 OA
ATOM     23  C   UNL     1      -0.732  11.541  22.514  0.00  0.00    +0.000 C 
ATOM     24  C   UNL     1      -0.686  11.051  21.062  0.00  0.00    +0.000 C 
ENDBRANCH  17  19
ENDBRANCH  15  17
ENDBRANCH  10  13
TORSDOF 3
ENDMDL
MODEL 3
REMARK VINA RESULT:      -7.3      1.893      2.292
REMARK  Name = 
REMARK  5 active torsions:
REMARK  status: ('A' for Active; 'I' for Inactive)
REMARK    1  A    between atoms: C_1  and  C_2
REMARK    2  A    between atoms: C_6  and  C_7
REMARK    3  A    between atoms: C_10  and  C_11
REMARK    4  A    between atoms: N_13  and  C_14
REMARK    5  A    between atoms: C_14  and  N_16
REMARK                            x       y       z     vdW  Elec       q    Type
REMARK                         _______ _______ _______ _____ _____    ______ ____
ROOT
ATOM      1  C   UNL     1       1.477   2.727  21.274  0.00  0.00    +0.000 C 
ATOM      2  C   UNL     1       2.042   3.617  20.161  0.00  0.00    +0.000 C 
ATOM      3  C   UNL     1       1.416   3.223  18.804  0.00  0.00    +0.000 C 
ATOM      4  C   UNL     1       1.982   4.109  17.684  0.00  0.00    +0.000 C 
ATOM      5  C   UNL     1       3.502   3.913  17.601  0.00  0.00    +0.000 C 
ATOM      6  C   UNL     1       4.166   4.309  18.936  0.00  0.00    +0.000 C 
ATOM      7  C   UNL     1       5.683   4.118  18.855  0.00  0.00    +0.000 C 
ATOM      8  C   UNL     1       3.575   3.435  20.067  0.00  0.00    +0.000 C 
ATOM      9  C   UNL     1       3.839   5.786  19.237  0.00  0.00    +0.000 C 
ATOM     10  C   UNL     1       2.313   6.014  19.343  0.00  0.00    +0.000 C 
ATOM     11  C   UNL     1       1.674   5.582  17.995  0.00  0.00    +0.000 C 
ATOM     12  C   UNL     1       1.733   5.108  20.452  0.00  0.00    +0.000 C 
ENDROOT
BRANCH  10  13
ATOM     13  C   UNL     1       2.027   7.511  19.600  0.00  0.00    +0.000 C 
ATOM     14  O   UNL     1       2.412   8.367  18.804  0.00  0.00    +0.000 OA
ATOM     15  N   UNL     1       1.424   7.793  20.830  0.00  0.00    +0.000 N 
ATOM     16  H   UNL     1       1.076   6.999  21.342  0.00  0.00    +0.000 HD
BRANCH  15  17
ATOM     17  C   UNL     1       1.041   9.024  21.379  0.00  0.00    +0.000 C 
ATOM     18  S   UNL     1       1.139   9.367  23.021  0.00  0.00    +0.000 S 
BRANCH  17  19
ATOM     19  N   UNL     1       0.589   9.950  20.409  0.00  0.00    +0.000 N 
ATOM     20  C   UNL     1       1.144  11.324  20.322  0.00  0.00    +0.000 C 
ATOM     21  C   UNL     1       1.127  11.828  18.877  0.00  0.00    +0.000 C 
ATOM     22  O   UNL     1      -0.198  11.782  18.327  0.00  0.00    +0.000 OA
ATOM     23  C   UNL     1      -0.709  10.445  18.351  0.00  0.00    +0.000 C 
ATOM     24  C   UNL     1      -0.743   9.880  19.776  0.00  0.00    +0.000 C 
ENDBRANCH  17  19
ENDBRANCH  15  17
ENDBRANCH  10  13
TORSDOF 3
ENDMDL
MODEL 4
REMARK VINA RESULT:      -7.1      0.898      2.545
REMARK  Name = 
REMARK  5 active torsions:
REMARK  status: ('A' for Active; 'I' for Inactive)
REMARK    1  A    between atoms: C_1  and  C_2
REMARK    2  A    between atoms: C_6  and  C_7
REMARK    3  A    between atoms: C_10  and  C_11
REMARK    4  A    between atoms: N_13  and  C_14
REMARK    5  A    between atoms: C_14  and  N_16
REMARK                            x       y       z     vdW  Elec       q    Type
REMARK                         _______ _______ _______ _____ _____    ______ ____
ROOT
ATOM      1  C   UNL     1       5.486   3.985  16.055  0.00  0.00    +0.000 C 
ATOM      2  C   UNL     1       4.548   4.381  17.201  0.00  0.00    +0.000 C 
ATOM      3  C   UNL     1       5.284   4.251  18.554  0.00  0.00    +0.000 C 
ATOM      4  C   UNL     1       4.348   4.644  19.705  0.00  0.00    +0.000 C 
ATOM      5  C   UNL     1       3.133   3.705  19.714  0.00  0.00    +0.000 C 
ATOM      6  C   UNL     1       2.363   3.817  18.382  0.00  0.00    +0.000 C 
ATOM      7  C   UNL     1       1.147   2.885  18.388  0.00  0.00    +0.000 C 
ATOM      8  C   UNL     1       3.314   3.449  17.220  0.00  0.00    +0.000 C 
ATOM      9  C   UNL     1       1.901   5.277  18.193  0.00  0.00    +0.000 C 
ATOM     10  C   UNL     1       3.106   6.247  18.164  0.00  0.00    +0.000 C 
ATOM     11  C   UNL     1       3.873   6.091  19.505  0.00  0.00    +0.000 C 
ATOM     12  C   UNL     1       4.065   5.844  17.022  0.00  0.00    +0.000 C 
ENDROOT
BRANCH  10  13
ATOM     13  C   UNL     1       2.600   7.701  18.019  0.00  0.00    +0.000 C 
ATOM     14  O   UNL     1       3.013   8.419  17.109  0.00  0.00    +0.000 OA
ATOM     15  N   UNL     1       1.760   8.137  19.048  0.00  0.00    +0.000 N 
ATOM     16  H   UNL     1       1.426   7.425  19.676  0.00  0.00    +0.000 HD
BRANCH  15  17
ATOM     17  C   UNL     1       1.140   9.380  19.232  0.00  0.00    +0.000 C 
ATOM     18  S   UNL     1       0.769  10.418  17.964  0.00  0.00    +0.000 S 
BRANCH  17  19
ATOM     19  N   UNL     1       0.839   9.657  20.588  0.00  0.00    +0.000 N 
ATOM     20  C   UNL     1       0.712  11.047  21.091  0.00  0.00    +0.000 C 
ATOM     21  C   UNL     1      -0.301  11.121  22.237  0.00  0.00    +0.000 C 
ATOM     22  O   UNL     1       0.054  10.228  23.302  0.00  0.00    +0.000 OA
ATOM     23  C   UNL     1       0.114   8.877  22.831  0.00  0.00    +0.000 C 
ATOM     24  C   UNL     1       1.130   8.721  21.693  0.00  0.00    +0.000 C 
ENDBRANCH  17  19
ENDBRANCH  15  17
ENDBRANCH  10  13
TORSDOF 3
ENDMDL
MODEL 5
REMARK VINA RESULT:      -7.0      2.510      6.772
REMARK  Name = 
REMARK  5 active torsions:
REMARK  status: ('A' for Active; 'I' for Inactive)
REMARK    1  A    between atoms: C_1  and  C_2
REMARK    2  A    between atoms: C_6  and  C_7
REMARK    3  A    between atoms: C_10  and  C_11
REMARK    4  A    between atoms: N_13  and  C_14
REMARK    5  A    between atoms: C_14  and  N_16
REMARK                            x       y       z     vdW  Elec       q    Type
REMARK                         _______ _______ _______ _____ _____    ______ ____
ROOT
ATOM      1  C   UNL     1      -0.240  10.379  22.407  0.00  0.00    +0.000 C 
ATOM      2  C   UNL     1       0.046  10.652  20.927  0.00  0.00    +0.000 C 
ATOM      3  C   UNL     1       0.808  11.989  20.775  0.00  0.00    +0.000 C 
ATOM      4  C   UNL     1       1.094  12.269  19.293  0.00  0.00    +0.000 C 
ATOM      5  C   UNL     1      -0.233  12.371  18.530  0.00  0.00    +0.000 C 
ATOM      6  C   UNL     1      -1.019  11.048  18.647  0.00  0.00    +0.000 C 
ATOM      7  C   UNL     1      -2.343  11.143  17.883  0.00  0.00    +0.000 C 
ATOM      8  C   UNL     1      -1.283  10.751  20.141  0.00  0.00    +0.000 C 
ATOM      9  C   UNL     1      -0.161   9.905  18.065  0.00  0.00    +0.000 C 
ATOM     10  C   UNL     1       1.180   9.767  18.825  0.00  0.00    +0.000 C 
ATOM     11  C   UNL     1       1.932  11.121  18.710  0.00  0.00    +0.000 C 
ATOM     12  C   UNL     1       0.900   9.508  20.322  0.00  0.00    +0.000 C 
ENDROOT
BRANCH  10  13
ATOM     13  C   UNL     1       2.028   8.644  18.184  0.00  0.00    +0.000 C 
ATOM     14  O   UNL     1       2.422   8.743  17.023  0.00  0.00    +0.000 OA
ATOM     15  N   UNL     1       2.190   7.503  18.977  0.00  0.00    +0.000 N 
ATOM     16  H   UNL     1       1.900   7.590  19.937  0.00  0.00    +0.000 HD
BRANCH  15  17
ATOM     17  C   UNL     1       2.879   6.315  18.706  0.00  0.00    +0.000 C 
ATOM     18  S   UNL     1       4.318   6.265  17.838  0.00  0.00    +0.000 S 
BRANCH  17  19
ATOM     19  N   UNL     1       2.255   5.170  19.257  0.00  0.00    +0.000 N 
ATOM     20  C   UNL     1       1.566   4.170  18.405  0.00  0.00    +0.000 C 
ATOM     21  C   UNL     1       1.664   2.770  19.019  0.00  0.00    +0.000 C 
ATOM     22  O   UNL     1       1.135   2.750  20.352  0.00  0.00    +0.000 OA
ATOM     23  C   UNL     1       1.843   3.669  21.192  0.00  0.00    +0.000 C 
ATOM     24  C   UNL     1       1.766   5.101  20.650  0.00  0.00    +0.000 C 
ENDBRANCH  17  19
ENDBRANCH  15  17
ENDBRANCH  10  13
TORSDOF 3
ENDMDL
MODEL 6
REMARK VINA RESULT:      -7.0      2.076      2.492
REMARK  Name = 
REMARK  5 active torsions:
REMARK  status: ('A' for Active; 'I' for Inactive)
REMARK    1  A    between atoms: C_1  and  C_2
REMARK    2  A    between atoms: C_6  and  C_7
REMARK    3  A    between atoms: C_10  and  C_11
REMARK    4  A    between atoms: N_13  and  C_14
REMARK    5  A    between atoms: C_14  and  N_16
REMARK                            x       y       z     vdW  Elec       q    Type
REMARK                         _______ _______ _______ _____ _____    ______ ____
ROOT
ATOM      1  C   UNL     1       1.745   3.074  21.377  0.00  0.00    +0.000 C 
ATOM      2  C   UNL     1       2.185   3.954  20.203  0.00  0.00    +0.000 C 
ATOM      3  C   UNL     1       1.478   3.497  18.907  0.00  0.00    +0.000 C 
ATOM      4  C   UNL     1       1.918   4.373  17.726  0.00  0.00    +0.000 C 
ATOM      5  C   UNL     1       3.435   4.239  17.532  0.00  0.00    +0.000 C 
ATOM      6  C   UNL     1       4.179   4.700  18.803  0.00  0.00    +0.000 C 
ATOM      7  C   UNL     1       5.693   4.572  18.612  0.00  0.00    +0.000 C 
ATOM      8  C   UNL     1       3.714   3.835  19.997  0.00  0.00    +0.000 C 
ATOM      9  C   UNL     1       3.811   6.170  19.091  0.00  0.00    +0.000 C 
ATOM     10  C   UNL     1       2.288   6.336  19.307  0.00  0.00    +0.000 C 
ATOM     11  C   UNL     1       1.570   5.840  18.022  0.00  0.00    +0.000 C 
ATOM     12  C   UNL     1       1.833   5.439  20.478  0.00  0.00    +0.000 C 
ENDROOT
BRANCH  10  13
ATOM     13  C   UNL     1       1.956   7.827  19.547  0.00  0.00    +0.000 C 
ATOM     14  O   UNL     1       1.811   8.259  20.690  0.00  0.00    +0.000 OA
ATOM     15  N   UNL     1       1.724   8.573  18.386  0.00  0.00    +0.000 N 
ATOM     16  H   UNL     1       1.968   8.125  17.519  0.00  0.00    +0.000 HD
BRANCH  15  17
ATOM     17  C   UNL     1       1.396   9.927  18.243  0.00  0.00    +0.000 C 
ATOM     18  S   UNL     1       2.540  11.125  17.960  0.00  0.00    +0.000 S 
BRANCH  17  19
ATOM     19  N   UNL     1       0.005  10.176  18.336  0.00  0.00    +0.000 N 
ATOM     20  C   UNL     1      -0.628  10.610  19.606  0.00  0.00    +0.000 C 
ATOM     21  C   UNL     1      -1.836  11.510  19.333  0.00  0.00    +0.000 C 
ATOM     22  O   UNL     1      -2.793  10.853  18.490  0.00  0.00    +0.000 OA
ATOM     23  C   UNL     1      -2.200  10.491  17.237  0.00  0.00    +0.000 C 
ATOM     24  C   UNL     1      -0.992   9.567  17.432  0.00  0.00    +0.000 C 
ENDBRANCH  17  19
ENDBRANCH  15  17
ENDBRANCH  10  13
TORSDOF 3
ENDMDL
MODEL 7
REMARK VINA RESULT:      -7.0      0.974      2.757
REMARK  Name = 
REMARK  5 active torsions:
REMARK  status: ('A' for Active; 'I' for Inactive)
REMARK    1  A    between atoms: C_1  and  C_2
REMARK    2  A    between atoms: C_6  and  C_7
REMARK    3  A    between atoms: C_10  and  C_11
REMARK    4  A    between atoms: N_13  and  C_14
REMARK    5  A    between atoms: C_14  and  N_16
REMARK                            x       y       z     vdW  Elec       q    Type
REMARK                         _______ _______ _______ _____ _____    ______ ____
ROOT
ATOM      1  C   UNL     1       5.427   3.863  16.018  0.00  0.00    +0.000 C 
ATOM      2  C   UNL     1       4.515   4.265  17.182  0.00  0.00    +0.000 C 
ATOM      3  C   UNL     1       5.267   4.100  18.522  0.00  0.00    +0.000 C 
ATOM      4  C   UNL     1       4.356   4.498  19.692  0.00  0.00    +0.000 C 
ATOM      5  C   UNL     1       3.120   3.588  19.706  0.00  0.00    +0.000 C 
ATOM      6  C   UNL     1       2.334   3.736  18.386  0.00  0.00    +0.000 C 
ATOM      7  C   UNL     1       1.097   2.832  18.397  0.00  0.00    +0.000 C 
ATOM      8  C   UNL     1       3.260   3.361  17.206  0.00  0.00    +0.000 C 
ATOM      9  C   UNL     1       1.904   5.208  18.223  0.00  0.00    +0.000 C 
ATOM     10  C   UNL     1       3.130   6.151  18.190  0.00  0.00    +0.000 C 
ATOM     11  C   UNL     1       3.912   5.959  19.518  0.00  0.00    +0.000 C 
ATOM     12  C   UNL     1       4.064   5.741  17.030  0.00  0.00    +0.000 C 
ENDROOT
BRANCH  10  13
ATOM     13  C   UNL     1       2.656   7.618  18.071  0.00  0.00    +0.000 C 
ATOM     14  O   UNL     1       3.169   8.376  17.249  0.00  0.00    +0.000 OA
ATOM     15  N   UNL     1       1.718   8.013  19.030  0.00  0.00    +0.000 N 
ATOM     16  H   UNL     1       1.313   7.273  19.581  0.00  0.00    +0.000 HD
BRANCH  15  17
ATOM     17  C   UNL     1       1.095   9.253  19.216  0.00  0.00    +0.000 C 
ATOM     18  S   UNL     1       0.804  10.331  17.960  0.00  0.00    +0.000 S 
BRANCH  17  19
ATOM     19  N   UNL     1       0.716   9.492  20.559  0.00  0.00    +0.000 N 
ATOM     20  C   UNL     1       1.034   8.530  21.643  0.00  0.00    +0.000 C 
ATOM     21  C   UNL     1       1.249   9.258  22.972  0.00  0.00    +0.000 C 
ATOM     22  O   UNL     1       0.106  10.051  23.320  0.00  0.00    +0.000 OA
ATOM     23  C   UNL     1      -0.164  11.024  22.304  0.00  0.00    +0.000 C 
ATOM     24  C   UNL     1      -0.413  10.363  20.943  0.00  0.00    +0.000 C 
ENDBRANCH  17  19
ENDBRANCH  15  17
ENDBRANCH  10  13
TORSDOF 3
ENDMDL
MODEL 8
REMARK VINA RESULT:      -6.9      2.510      6.729
REMARK  Name = 
REMARK  5 active torsions:
REMARK  status: ('A' for Active; 'I' for Inactive)
REMARK    1  A    between atoms: C_1  and  C_2
REMARK    2  A    between atoms: C_6  and  C_7
REMARK    3  A    between atoms: C_10  and  C_11
REMARK    4  A    between atoms: N_13  and  C_14
REMARK    5  A    between atoms: C_14  and  N_16
REMARK                            x       y       z     vdW  Elec       q    Type
REMARK                         _______ _______ _______ _____ _____    ______ ____
ROOT
ATOM      1  C   UNL     1      -0.174  10.074  22.383  0.00  0.00    +0.000 C 
ATOM      2  C   UNL     1       0.078  10.418  20.912  0.00  0.00    +0.000 C 
ATOM      3  C   UNL     1       0.757  11.803  20.803  0.00  0.00    +0.000 C 
ATOM      4  C   UNL     1       1.009  12.154  19.330  0.00  0.00    +0.000 C 
ATOM      5  C   UNL     1      -0.332  12.204  18.584  0.00  0.00    +0.000 C 
ATOM      6  C   UNL     1      -1.036  10.833  18.658  0.00  0.00    +0.000 C 
ATOM      7  C   UNL     1      -2.372  10.877  17.911  0.00  0.00    +0.000 C 
ATOM      8  C   UNL     1      -1.264  10.467  20.143  0.00  0.00    +0.000 C 
ATOM      9  C   UNL     1      -0.119   9.766  18.026  0.00  0.00    +0.000 C 
ATOM     10  C   UNL     1       1.237   9.680  18.767  0.00  0.00    +0.000 C 
ATOM     11  C   UNL     1       1.906  11.080  18.696  0.00  0.00    +0.000 C 
ATOM     12  C   UNL     1       0.991   9.350  20.255  0.00  0.00    +0.000 C 
ENDROOT
BRANCH  10  13
ATOM     13  C   UNL     1       2.142   8.634  18.076  0.00  0.00    +0.000 C 
ATOM     14  O   UNL     1       2.553   8.821  16.932  0.00  0.00    +0.000 OA
ATOM     15  N   UNL     1       2.336   7.453  18.801  0.00  0.00    +0.000 N 
ATOM     16  H   UNL     1       2.026   7.468  19.758  0.00  0.00    +0.000 HD
BRANCH  15  17
ATOM     17  C   UNL     1       3.079   6.313  18.472  0.00  0.00    +0.000 C 
ATOM     18  S   UNL     1       4.538   6.375  17.640  0.00  0.00    +0.000 S 
BRANCH  17  19
ATOM     19  N   UNL     1       2.488   5.111  18.931  0.00  0.00    +0.000 N 
ATOM     20  C   UNL     1       2.309   4.832  20.377  0.00  0.00    +0.000 C 
ATOM     21  C   UNL     1       1.065   3.972  20.616  0.00  0.00    +0.000 C 
ATOM     22  O   UNL     1       1.128   2.749  19.869  0.00  0.00    +0.000 OA
ATOM     23  C   UNL     1       1.236   3.017  18.466  0.00  0.00    +0.000 C 
ATOM     24  C   UNL     1       2.478   3.859  18.148  0.00  0.00    +0.000 C 
ENDBRANCH  17  19
ENDBRANCH  15  17
ENDBRANCH  10  13
TORSDOF 3
ENDMDL
MODEL 9
REMARK VINA RESULT:      -6.9      2.688      6.836
REMARK  Name = 
REMARK  5 active torsions:
REMARK  status: ('A' for Active; 'I' for Inactive)
REMARK    1  A    between atoms: C_1  and  C_2
REMARK    2  A    between atoms: C_6  and  C_7
REMARK    3  A    between atoms: C_10  and  C_11
REMARK    4  A    between atoms: N_13  and  C_14
REMARK    5  A    between atoms: C_14  and  N_16
REMARK                            x       y       z     vdW  Elec       q    Type
REMARK                         _______ _______ _______ _____ _____    ______ ____
ROOT
ATOM      1  C   UNL     1      -2.284  10.929  17.721  0.00  0.00    +0.000 C 
ATOM      2  C   UNL     1      -0.933  10.859  18.440  0.00  0.00    +0.000 C 
ATOM      3  C   UNL     1      -1.154  10.672  19.959  0.00  0.00    +0.000 C 
ATOM      4  C   UNL     1       0.197  10.604  20.685  0.00  0.00    +0.000 C 
ATOM      5  C   UNL     1       0.963  11.915  20.457  0.00  0.00    +0.000 C 
ATOM      6  C   UNL     1       1.214  12.131  18.950  0.00  0.00    +0.000 C 
ATOM      7  C   UNL     1       1.982  13.436  18.718  0.00  0.00    +0.000 C 
ATOM      8  C   UNL     1      -0.145  12.171  18.215  0.00  0.00    +0.000 C 
ATOM      9  C   UNL     1       2.030  10.940  18.405  0.00  0.00    +0.000 C 
ATOM     10  C   UNL     1       1.277   9.604  18.607  0.00  0.00    +0.000 C 
ATOM     11  C   UNL     1       1.017   9.431  20.128  0.00  0.00    +0.000 C 
ATOM     12  C   UNL     1      -0.094   9.673  17.899  0.00  0.00    +0.000 C 
ENDROOT
BRANCH  10  13
ATOM     13  C   UNL     1       2.146   8.434  18.090  0.00  0.00    +0.000 C 
ATOM     14  O   UNL     1       2.608   8.455  16.950  0.00  0.00    +0.000 OA
ATOM     15  N   UNL     1       2.246   7.345  18.961  0.00  0.00    +0.000 N 
ATOM     16  H   UNL     1       1.902   7.495  19.895  0.00  0.00    +0.000 HD
BRANCH  15  17
ATOM     17  C   UNL     1       2.934   6.135  18.807  0.00  0.00    +0.000 C 
ATOM     18  S   UNL     1       4.508   6.041  18.226  0.00  0.00    +0.000 S 
BRANCH  17  19
ATOM     19  N   UNL     1       2.179   5.008  19.214  0.00  0.00    +0.000 N 
ATOM     20  C   UNL     1       1.497   4.129  18.232  0.00  0.00    +0.000 C 
ATOM     21  C   UNL     1       1.436   2.687  18.742  0.00  0.00    +0.000 C 
ATOM     22  O   UNL     1       0.787   2.616  20.019  0.00  0.00    +0.000 OA
ATOM     23  C   UNL     1       1.482   3.413  20.985  0.00  0.00    +0.000 C 
ATOM     24  C   UNL     1       1.562   4.881  20.550  0.00  0.00    +0.000 C 
ENDBRANCH  17  19
ENDBRANCH  15  17
ENDBRANCH  10  13
TORSDOF 3
ENDMDL
