MODEL 1
REMARK VINA RESULT:      -9.0      0.000      0.000
REMARK  Name = 
REMARK  5 active torsions:
REMARK  status: ('A' for Active; 'I' for Inactive)
REMARK    1  A    between atoms: N_1  and  C_2
REMARK    2  A    between atoms: C_2  and  C_3
REMARK    3  A    between atoms: C_2  and  C_11
REMARK    4  A    between atoms: C_14  and  N_15
REMARK    5  A    between atoms: C_16  and  C_18
REMARK                            x       y       z     vdW  Elec       q    Type
REMARK                         _______ _______ _______ _____ _____    ______ ____
ROOT
ATOM      1  C   UNL     1       5.375   5.181  18.097  0.00  0.00    +0.000 C 
ATOM      2  C   UNL     1       6.781   4.718  18.535  0.00  0.00    +0.000 C 
ATOM      3  C   UNL     1       7.627   5.859  19.095  0.00  0.00    +0.000 C 
ATOM      4  C   UNL     1       7.740   7.008  18.090  0.00  0.00    +0.000 C 
ATOM      5  C   UNL     1       6.349   7.516  17.706  0.00  0.00    +0.000 C 
ATOM      6  C   UNL     1       5.478   6.393  17.146  0.00  0.00    +0.000 C 
ENDROOT
BRANCH   4   7
ATOM      7  N   UNL     1       8.552   8.088  18.631  0.00  0.00    +0.000 N 
ATOM      8  C   UNL     1       8.425   9.384  18.169  0.00  0.00    +0.000 C 
ATOM      9  O   UNL     1       7.614   9.732  17.322  0.00  0.00    +0.000 OA
ATOM     10  H   UNL     1       9.228   7.862  19.346  0.00  0.00    +0.000 HD
BRANCH   8  11
ATOM     11  C   UNL     1       9.317  10.400  18.791  0.00  0.00    +0.000 A 
ATOM     12  C   UNL     1       9.320  10.649  20.174  0.00  0.00    +0.000 A 
ATOM     13  C   UNL     1      10.177  11.617  20.706  0.00  0.00    +0.000 A 
ATOM     14  C   UNL     1      11.029  12.321  19.864  0.00  0.00    +0.000 A 
ATOM     15  F   UNL     1      11.846  13.248  20.382  0.00  0.00    +0.000 F 
ATOM     16  C   UNL     1      11.039  12.065  18.498  0.00  0.00    +0.000 A 
ATOM     17  F   UNL     1      11.870  12.740  17.693  0.00  0.00    +0.000 F 
ATOM     18  C   UNL     1      10.194  11.103  17.955  0.00  0.00    +0.000 A 
ENDBRANCH   8  11
ENDBRANCH   4   7
BRANCH   1  19
ATOM     19  C   UNL     1       4.528   4.044  17.457  0.00  0.00    +0.000 C 
BRANCH  19  20
ATOM     20  C   UNL     1       3.990   3.060  18.535  0.00  0.00    +0.000 C 
ATOM     21  O   UNL     1       4.192   1.845  18.431  0.00  0.00    +0.000 OA
ATOM     22  N   UNL     1       3.324   3.580  19.625  0.00  0.00    +0.000 N 
ATOM     23  C   UNL     1       2.867   2.705  20.693  0.00  0.00    +0.000 C 
ATOM     24  C   UNL     1       2.135   3.615  21.669  0.00  0.00    +0.000 C 
ATOM     25  C   UNL     1       1.562   4.679  20.751  0.00  0.00    +0.000 C 
ATOM     26  F   UNL     1       0.450   4.177  20.143  0.00  0.00    +0.000 F 
ATOM     27  C   UNL     1       2.654   4.876  19.702  0.00  0.00    +0.000 C 
ENDBRANCH  19  20
BRANCH  19  28
ATOM     28  N   UNL     1       5.292   3.285  16.439  0.00  0.00    +0.000 NA
ATOM     29  H   UNL     1       5.667   3.954  15.762  0.00  0.00    +0.000 HD
ATOM     30  H   UNL     1       4.628   2.743  15.882  0.00  0.00    +0.000 HD
ENDBRANCH  19  28
ENDBRANCH   1  19
TORSDOF 5
ENDMDL
MODEL 2
REMARK VINA RESULT:      -9.0      0.802      1.421
REMARK  Name = 
REMARK  5 active torsions:
REMARK  status: ('A' for Active; 'I' for Inactive)
REMARK    1  A    between atoms: N_1  and  C_2
REMARK    2  A    between atoms: C_2  and  C_3
REMARK    3  A    between atoms: C_2  and  C_11
REMARK    4  A    between atoms: C_14  and  N_15
REMARK    5  A    between atoms: C_16  and  C_18
REMARK                            x       y       z     vdW  Elec       q    Type
REMARK                         _______ _______ _______ _____ _____    ______ ____
ROOT
ATOM      1  C   UNL     1       5.529   5.260  18.453  0.00  0.00    +0.000 C 
ATOM      2  C   UNL     1       6.965   4.832  18.825  0.00  0.00    +0.000 C 
ATOM      3  C   UNL     1       7.830   6.008  19.272  0.00  0.00    +0.000 C 
ATOM      4  C   UNL     1       7.868   7.103  18.202  0.00  0.00    +0.000 C 
ATOM      5  C   UNL     1       6.450   7.579  17.880  0.00  0.00    +0.000 C 
ATOM      6  C   UNL     1       5.559   6.421  17.435  0.00  0.00    +0.000 C 
ENDROOT
BRANCH   4   7
ATOM      7  N   UNL     1       8.700   8.217  18.634  0.00  0.00    +0.000 N 
ATOM      8  C   UNL     1       8.485   9.499  18.166  0.00  0.00    +0.000 C 
ATOM      9  O   UNL     1       7.579   9.806  17.404  0.00  0.00    +0.000 OA
ATOM     10  H   UNL     1       9.454   8.025  19.277  0.00  0.00    +0.000 HD
BRANCH   8  11
ATOM     11  C   UNL     1       9.406  10.552  18.671  0.00  0.00    +0.000 A 
ATOM     12  C   UNL     1      10.283  11.251  17.824  0.00  0.00    +0.000 A 
ATOM     13  C   UNL     1      11.130  12.231  18.352  0.00  0.00    +0.000 A 
ATOM     14  C   UNL     1      11.093  12.513  19.713  0.00  0.00    +0.000 A 
ATOM     15  F   UNL     1      11.908  13.453  20.210  0.00  0.00    +0.000 F 
ATOM     16  C   UNL     1      10.216  11.834  20.550  0.00  0.00    +0.000 A 
ATOM     17  F   UNL     1      10.177  12.119  21.857  0.00  0.00    +0.000 F 
ATOM     18  C   UNL     1       9.365  10.860  20.037  0.00  0.00    +0.000 A 
ENDBRANCH   8  11
ENDBRANCH   4   7
BRANCH   1  19
ATOM     19  C   UNL     1       4.656   4.084  17.927  0.00  0.00    +0.000 C 
BRANCH  19  20
ATOM     20  C   UNL     1       4.230   3.132  19.082  0.00  0.00    +0.000 C 
ATOM     21  O   UNL     1       4.931   2.161  19.384  0.00  0.00    +0.000 OA
ATOM     22  N   UNL     1       3.078   3.425  19.782  0.00  0.00    +0.000 N 
ATOM     23  C   UNL     1       2.680   2.605  20.915  0.00  0.00    +0.000 C 
ATOM     24  C   UNL     1       1.353   3.187  21.381  0.00  0.00    +0.000 C 
ATOM     25  C   UNL     1       0.752   3.702  20.086  0.00  0.00    +0.000 C 
ATOM     26  F   UNL     1       0.227   2.647  19.401  0.00  0.00    +0.000 F 
ATOM     27  C   UNL     1       1.958   4.240  19.319  0.00  0.00    +0.000 C 
ENDBRANCH  19  20
BRANCH  19  28
ATOM     28  N   UNL     1       5.351   3.301  16.879  0.00  0.00    +0.000 NA
ATOM     29  H   UNL     1       5.761   3.960  16.212  0.00  0.00    +0.000 HD
ATOM     30  H   UNL     1       4.643   2.820  16.320  0.00  0.00    +0.000 HD
ENDBRANCH  19  28
ENDBRANCH   1  19
TORSDOF 5
ENDMDL
MODEL 3
REMARK VINA RESULT:      -8.7      5.361      8.149
REMARK  Name = 
REMARK  5 active torsions:
REMARK  status: ('A' for Active; 'I' for Inactive)
REMARK    1  A    between atoms: N_1  and  C_2
REMARK    2  A    between atoms: C_2  and  C_3
REMARK    3  A    between atoms: C_2  and  C_11
REMARK    4  A    between atoms: C_14  and  N_15
REMARK    5  A    between atoms: C_16  and  C_18
REMARK                            x       y       z     vdW  Elec       q    Type
REMARK                         _______ _______ _______ _____ _____    ______ ____
ROOT
ATOM      1  C   UNL     1       3.102   4.802  19.208  0.00  0.00    +0.000 C 
ATOM      2  C   UNL     1       2.541   4.943  20.640  0.00  0.00    +0.000 C 
ATOM      3  C   UNL     1       1.500   6.054  20.755  0.00  0.00    +0.000 C 
ATOM      4  C   UNL     1       2.068   7.393  20.279  0.00  0.00    +0.000 C 
ATOM      5  C   UNL     1       2.562   7.277  18.835  0.00  0.00    +0.000 C 
ATOM      6  C   UNL     1       3.602   6.168  18.688  0.00  0.00    +0.000 C 
ENDROOT
BRANCH   4   7
ATOM      7  N   UNL     1       1.071   8.447  20.398  0.00  0.00    +0.000 N 
ATOM      8  C   UNL     1       0.994   9.241  21.526  0.00  0.00    +0.000 C 
ATOM      9  O   UNL     1       1.762   9.157  22.474  0.00  0.00    +0.000 OA
ATOM     10  H   UNL     1       0.420   8.574  19.637  0.00  0.00    +0.000 HD
BRANCH   8  11
ATOM     11  C   UNL     1      -0.073  10.278  21.536  0.00  0.00    +0.000 A 
ATOM     12  C   UNL     1      -0.642  10.757  22.728  0.00  0.00    +0.000 A 
ATOM     13  C   UNL     1      -1.645  11.730  22.681  0.00  0.00    +0.000 A 
ATOM     14  C   UNL     1      -2.066  12.226  21.453  0.00  0.00    +0.000 A 
ATOM     15  F   UNL     1      -3.028  13.158  21.417  0.00  0.00    +0.000 F 
ATOM     16  C   UNL     1      -1.494  11.765  20.273  0.00  0.00    +0.000 A 
ATOM     17  F   UNL     1      -1.897  12.255  19.094  0.00  0.00    +0.000 F 
ATOM     18  C   UNL     1      -0.493  10.799  20.306  0.00  0.00    +0.000 A 
ENDBRANCH   8  11
ENDBRANCH   4   7
BRANCH   1  19
ATOM     19  C   UNL     1       4.216   3.722  19.091  0.00  0.00    +0.000 C 
BRANCH  19  20
ATOM     20  C   UNL     1       5.555   4.340  18.594  0.00  0.00    +0.000 C 
ATOM     21  O   UNL     1       6.365   4.810  19.400  0.00  0.00    +0.000 OA
ATOM     22  N   UNL     1       5.831   4.309  17.243  0.00  0.00    +0.000 N 
ATOM     23  C   UNL     1       7.101   4.809  16.741  0.00  0.00    +0.000 C 
ATOM     24  C   UNL     1       7.014   4.671  15.228  0.00  0.00    +0.000 C 
ATOM     25  C   UNL     1       5.533   4.875  14.968  0.00  0.00    +0.000 C 
ATOM     26  F   UNL     1       5.262   6.209  15.019  0.00  0.00    +0.000 F 
ATOM     27  C   UNL     1       4.862   4.188  16.156  0.00  0.00    +0.000 C 
ENDBRANCH  19  20
BRANCH  19  28
ATOM     28  N   UNL     1       3.825   2.613  18.189  0.00  0.00    +0.000 NA
ATOM     29  H   UNL     1       3.216   2.997  17.463  0.00  0.00    +0.000 HD
ATOM     30  H   UNL     1       3.202   1.989  18.705  0.00  0.00    +0.000 HD
ENDBRANCH  19  28
ENDBRANCH   1  19
TORSDOF 5
ENDMDL
MODEL 4
REMARK VINA RESULT:      -8.6      5.306      8.237
REMARK  Name = 
REMARK  5 active torsions:
REMARK  status: ('A' for Active; 'I' for Inactive)
REMARK    1  A    between atoms: N_1  and  C_2
REMARK    2  A    between atoms: C_2  and  C_3
REMARK    3  A    between atoms: C_2  and  C_11
REMARK    4  A    between atoms: C_14  and  N_15
REMARK    5  A    between atoms: C_16  and  C_18
REMARK                            x       y       z     vdW  Elec       q    Type
REMARK                         _______ _______ _______ _____ _____    ______ ____
ROOT
ATOM      1  C   UNL     1       2.777   5.232  18.580  0.00  0.00    +0.000 C 
ATOM      2  C   UNL     1       2.546   5.342  20.103  0.00  0.00    +0.000 C 
ATOM      3  C   UNL     1       1.517   6.410  20.465  0.00  0.00    +0.000 C 
ATOM      4  C   UNL     1       1.912   7.774  19.893  0.00  0.00    +0.000 C 
ATOM      5  C   UNL     1       2.075   7.686  18.375  0.00  0.00    +0.000 C 
ATOM      6  C   UNL     1       3.096   6.620  17.982  0.00  0.00    +0.000 C 
ENDROOT
BRANCH   4   7
ATOM      7  N   UNL     1       0.928   8.786  20.248  0.00  0.00    +0.000 N 
ATOM      8  C   UNL     1       0.885   9.335  21.516  0.00  0.00    +0.000 C 
ATOM      9  O   UNL     1       1.673   9.055  22.409  0.00  0.00    +0.000 OA
ATOM     10  H   UNL     1       0.262   9.069  19.545  0.00  0.00    +0.000 HD
BRANCH   8  11
ATOM     11  C   UNL     1      -0.171  10.353  21.762  0.00  0.00    +0.000 A 
ATOM     12  C   UNL     1      -0.770  10.523  23.022  0.00  0.00    +0.000 A 
ATOM     13  C   UNL     1      -1.761  11.493  23.198  0.00  0.00    +0.000 A 
ATOM     14  C   UNL     1      -2.141  12.292  22.126  0.00  0.00    +0.000 A 
ATOM     15  F   UNL     1      -3.092  13.219  22.304  0.00  0.00    +0.000 F 
ATOM     16  C   UNL     1      -1.539  12.137  20.883  0.00  0.00    +0.000 A 
ATOM     17  F   UNL     1      -1.903  12.917  19.858  0.00  0.00    +0.000 F 
ATOM     18  C   UNL     1      -0.550  11.177  20.694  0.00  0.00    +0.000 A 
ENDBRANCH   8  11
ENDBRANCH   4   7
BRANCH   1  19
ATOM     19  C   UNL     1       3.876   4.199  18.200  0.00  0.00    +0.000 C 
BRANCH  19  20
ATOM     20  C   UNL     1       4.972   4.840  17.301  0.00  0.00    +0.000 C 
ATOM     21  O   UNL     1       4.925   4.718  16.072  0.00  0.00    +0.000 OA
ATOM     22  N   UNL     1       5.966   5.581  17.906  0.00  0.00    +0.000 N 
ATOM     23  C   UNL     1       6.970   6.258  17.100  0.00  0.00    +0.000 C 
ATOM     24  C   UNL     1       7.915   6.905  18.103  0.00  0.00    +0.000 C 
ATOM     25  C   UNL     1       7.862   5.937  19.270  0.00  0.00    +0.000 C 
ATOM     26  F   UNL     1       8.652   4.864  18.981  0.00  0.00    +0.000 F 
ATOM     27  C   UNL     1       6.403   5.486  19.296  0.00  0.00    +0.000 C 
ENDBRANCH  19  20
BRANCH  19  28
ATOM     28  N   UNL     1       3.313   3.013  17.514  0.00  0.00    +0.000 NA
ATOM     29  H   UNL     1       4.067   2.332  17.390  0.00  0.00    +0.000 HD
ATOM     30  H   UNL     1       3.085   3.279  16.554  0.00  0.00    +0.000 HD
ENDBRANCH  19  28
ENDBRANCH   1  19
TORSDOF 5
ENDMDL
MODEL 5
REMARK VINA RESULT:      -8.6      5.375      8.314
REMARK  Name = 
REMARK  5 active torsions:
REMARK  status: ('A' for Active; 'I' for Inactive)
REMARK    1  A    between atoms: N_1  and  C_2
REMARK    2  A    between atoms: C_2  and  C_3
REMARK    3  A    between atoms: C_2  and  C_11
REMARK    4  A    between atoms: C_14  and  N_15
REMARK    5  A    between atoms: C_16  and  C_18
REMARK                            x       y       z     vdW  Elec       q    Type
REMARK                         _______ _______ _______ _____ _____    ______ ____
ROOT
ATOM      1  C   UNL     1       3.009   4.854  19.214  0.00  0.00    +0.000 C 
ATOM      2  C   UNL     1       2.428   5.002  20.637  0.00  0.00    +0.000 C 
ATOM      3  C   UNL     1       1.414   6.139  20.741  0.00  0.00    +0.000 C 
ATOM      4  C   UNL     1       2.023   7.466  20.282  0.00  0.00    +0.000 C 
ATOM      5  C   UNL     1       2.539   7.345  18.847  0.00  0.00    +0.000 C 
ATOM      6  C   UNL     1       3.553   6.210  18.711  0.00  0.00    +0.000 C 
ENDROOT
BRANCH   4   7
ATOM      7  N   UNL     1       1.052   8.545  20.390  0.00  0.00    +0.000 N 
ATOM      8  C   UNL     1       0.987   9.344  21.515  0.00  0.00    +0.000 C 
ATOM      9  O   UNL     1       1.745   9.243  22.470  0.00  0.00    +0.000 OA
ATOM     10  H   UNL     1       0.410   8.685  19.624  0.00  0.00    +0.000 HD
BRANCH   8  11
ATOM     11  C   UNL     1      -0.054  10.406  21.515  0.00  0.00    +0.000 A 
ATOM     12  C   UNL     1      -0.306  11.210  20.389  0.00  0.00    +0.000 A 
ATOM     13  C   UNL     1      -1.295  12.196  20.444  0.00  0.00    +0.000 A 
ATOM     14  C   UNL     1      -2.032  12.370  21.610  0.00  0.00    +0.000 A 
ATOM     15  F   UNL     1      -2.977  13.318  21.653  0.00  0.00    +0.000 F 
ATOM     16  C   UNL     1      -1.796  11.566  22.719  0.00  0.00    +0.000 A 
ATOM     17  F   UNL     1      -2.516  11.732  23.835  0.00  0.00    +0.000 F 
ATOM     18  C   UNL     1      -0.817  10.579  22.678  0.00  0.00    +0.000 A 
ENDBRANCH   8  11
ENDBRANCH   4   7
BRANCH   1  19
ATOM     19  C   UNL     1       4.097   3.747  19.109  0.00  0.00    +0.000 C 
BRANCH  19  20
ATOM     20  C   UNL     1       5.458   4.332  18.634  0.00  0.00    +0.000 C 
ATOM     21  O   UNL     1       6.265   4.786  19.453  0.00  0.00    +0.000 OA
ATOM     22  N   UNL     1       5.757   4.291  17.288  0.00  0.00    +0.000 N 
ATOM     23  C   UNL     1       7.047   4.760  16.807  0.00  0.00    +0.000 C 
ATOM     24  C   UNL     1       6.982   4.619  15.293  0.00  0.00    +0.000 C 
ATOM     25  C   UNL     1       5.511   4.857  15.007  0.00  0.00    +0.000 C 
ATOM     26  F   UNL     1       5.271   6.197  15.049  0.00  0.00    +0.000 F 
ATOM     27  C   UNL     1       4.804   4.189  16.185  0.00  0.00    +0.000 C 
ENDBRANCH  19  20
BRANCH  19  28
ATOM     28  N   UNL     1       3.691   2.652  18.198  0.00  0.00    +0.000 NA
ATOM     29  H   UNL     1       4.497   2.034  18.069  0.00  0.00    +0.000 HD
ATOM     30  H   UNL     1       3.554   3.047  17.266  0.00  0.00    +0.000 HD
ENDBRANCH  19  28
ENDBRANCH   1  19
TORSDOF 5
ENDMDL
MODEL 6
REMARK VINA RESULT:      -8.5      5.587      8.453
REMARK  Name = 
REMARK  5 active torsions:
REMARK  status: ('A' for Active; 'I' for Inactive)
REMARK    1  A    between atoms: N_1  and  C_2
REMARK    2  A    between atoms: C_2  and  C_3
REMARK    3  A    between atoms: C_2  and  C_11
REMARK    4  A    between atoms: C_14  and  N_15
REMARK    5  A    between atoms: C_16  and  C_18
REMARK                            x       y       z     vdW  Elec       q    Type
REMARK                         _______ _______ _______ _____ _____    ______ ____
ROOT
ATOM      1  C   UNL     1       2.574   5.673  18.681  0.00  0.00    +0.000 C 
ATOM      2  C   UNL     1       2.263   5.753  20.191  0.00  0.00    +0.000 C 
ATOM      3  C   UNL     1       1.306   6.892  20.534  0.00  0.00    +0.000 C 
ATOM      4  C   UNL     1       1.846   8.235  20.036  0.00  0.00    +0.000 C 
ATOM      5  C   UNL     1       2.090   8.183  18.527  0.00  0.00    +0.000 C 
ATOM      6  C   UNL     1       3.041   7.048  18.153  0.00  0.00    +0.000 C 
ENDROOT
BRANCH   4   7
ATOM      7  N   UNL     1       0.930   9.316  20.373  0.00  0.00    +0.000 N 
ATOM      8  C   UNL     1       0.858   9.824  21.655  0.00  0.00    +0.000 C 
ATOM      9  O   UNL     1       1.566   9.450  22.580  0.00  0.00    +0.000 OA
ATOM     10  H   UNL     1       0.332   9.676  19.644  0.00  0.00    +0.000 HD
BRANCH   8  11
ATOM     11  C   UNL     1      -0.124  10.920  21.879  0.00  0.00    +0.000 A 
ATOM     12  C   UNL     1      -0.101  12.112  21.136  0.00  0.00    +0.000 A 
ATOM     13  C   UNL     1      -1.046  13.111  21.390  0.00  0.00    +0.000 A 
ATOM     14  C   UNL     1      -2.010  12.914  22.371  0.00  0.00    +0.000 A 
ATOM     15  F   UNL     1      -2.911  13.876  22.608  0.00  0.00    +0.000 F 
ATOM     16  C   UNL     1      -2.045  11.729  23.097  0.00  0.00    +0.000 A 
ATOM     17  F   UNL     1      -2.983  11.542  24.033  0.00  0.00    +0.000 F 
ATOM     18  C   UNL     1      -1.112  10.725  22.853  0.00  0.00    +0.000 A 
ENDBRANCH   8  11
ENDBRANCH   4   7
BRANCH   1  19
ATOM     19  C   UNL     1       3.604   4.563  18.325  0.00  0.00    +0.000 C 
BRANCH  19  20
ATOM     20  C   UNL     1       4.719   5.104  17.384  0.00  0.00    +0.000 C 
ATOM     21  O   UNL     1       4.601   5.015  16.157  0.00  0.00    +0.000 OA
ATOM     22  N   UNL     1       5.815   5.720  17.952  0.00  0.00    +0.000 N 
ATOM     23  C   UNL     1       6.847   6.305  17.109  0.00  0.00    +0.000 C 
ATOM     24  C   UNL     1       7.902   6.824  18.075  0.00  0.00    +0.000 C 
ATOM     25  C   UNL     1       7.801   5.841  19.226  0.00  0.00    +0.000 C 
ATOM     26  F   UNL     1       8.455   4.697  18.881  0.00  0.00    +0.000 F 
ATOM     27  C   UNL     1       6.305   5.548  19.317  0.00  0.00    +0.000 C 
ENDBRANCH  19  20
BRANCH  19  28
ATOM     28  N   UNL     1       2.961   3.386  17.695  0.00  0.00    +0.000 NA
ATOM     29  H   UNL     1       2.070   3.690  17.296  0.00  0.00    +0.000 HD
ATOM     30  H   UNL     1       2.673   2.746  18.438  0.00  0.00    +0.000 HD
ENDBRANCH  19  28
ENDBRANCH   1  19
TORSDOF 5
ENDMDL
MODEL 7
REMARK VINA RESULT:      -8.5      6.359      8.666
REMARK  Name = 
REMARK  5 active torsions:
REMARK  status: ('A' for Active; 'I' for Inactive)
REMARK    1  A    between atoms: N_1  and  C_2
REMARK    2  A    between atoms: C_2  and  C_3
REMARK    3  A    between atoms: C_2  and  C_11
REMARK    4  A    between atoms: C_14  and  N_15
REMARK    5  A    between atoms: C_16  and  C_18
REMARK                            x       y       z     vdW  Elec       q    Type
REMARK                         _______ _______ _______ _____ _____    ______ ____
ROOT
ATOM      1  C   UNL     1       2.195   7.286  18.404  0.00  0.00    +0.000 C 
ATOM      2  C   UNL     1       2.243   7.377  19.944  0.00  0.00    +0.000 C 
ATOM      3  C   UNL     1       1.121   8.240  20.516  0.00  0.00    +0.000 C 
ATOM      4  C   UNL     1       1.138   9.644  19.906  0.00  0.00    +0.000 C 
ATOM      5  C   UNL     1       1.021   9.562  18.382  0.00  0.00    +0.000 C 
ATOM      6  C   UNL     1       2.129   8.699  17.782  0.00  0.00    +0.000 C 
ENDROOT
BRANCH   4   7
ATOM      7  N   UNL     1       0.068  10.461  20.461  0.00  0.00    +0.000 N 
ATOM      8  C   UNL     1       0.337  11.630  21.145  0.00  0.00    +0.000 C 
ATOM      9  O   UNL     1       1.461  12.088  21.302  0.00  0.00    +0.000 OA
ATOM     10  H   UNL     1      -0.882  10.140  20.348  0.00  0.00    +0.000 HD
BRANCH   8  11
ATOM     11  C   UNL     1      -0.837  12.373  21.676  0.00  0.00    +0.000 A 
ATOM     12  C   UNL     1      -1.190  13.651  21.209  0.00  0.00    +0.000 A 
ATOM     13  C   UNL     1      -2.303  14.306  21.744  0.00  0.00    +0.000 A 
ATOM     14  C   UNL     1      -3.061  13.685  22.730  0.00  0.00    +0.000 A 
ATOM     15  F   UNL     1      -4.125  14.320  23.238  0.00  0.00    +0.000 F 
ATOM     16  C   UNL     1      -2.723  12.414  23.182  0.00  0.00    +0.000 A 
ATOM     17  F   UNL     1      -3.463  11.817  24.124  0.00  0.00    +0.000 F 
ATOM     18  C   UNL     1      -1.620  11.749  22.656  0.00  0.00    +0.000 A 
ENDBRANCH   8  11
ENDBRANCH   4   7
BRANCH   1  19
ATOM     19  C   UNL     1       3.375   6.471  17.801  0.00  0.00    +0.000 C 
BRANCH  19  20
ATOM     20  C   UNL     1       3.811   5.317  18.750  0.00  0.00    +0.000 C 
ATOM     21  O   UNL     1       4.887   5.377  19.355  0.00  0.00    +0.000 OA
ATOM     22  N   UNL     1       2.950   4.255  18.931  0.00  0.00    +0.000 N 
ATOM     23  C   UNL     1       3.284   3.190  19.864  0.00  0.00    +0.000 C 
ATOM     24  C   UNL     1       2.146   2.186  19.745  0.00  0.00    +0.000 C 
ATOM     25  C   UNL     1       1.734   2.333  18.292  0.00  0.00    +0.000 C 
ATOM     26  F   UNL     1       2.624   1.652  17.517  0.00  0.00    +0.000 F 
ATOM     27  C   UNL     1       1.886   3.829  18.025  0.00  0.00    +0.000 C 
ENDBRANCH  19  20
BRANCH  19  28
ATOM     28  N   UNL     1       4.547   7.325  17.499  0.00  0.00    +0.000 NA
ATOM     29  H   UNL     1       4.280   8.298  17.669  0.00  0.00    +0.000 HD
ATOM     30  H   UNL     1       4.705   7.303  16.490  0.00  0.00    +0.000 HD
ENDBRANCH  19  28
ENDBRANCH   1  19
TORSDOF 5
ENDMDL
MODEL 8
REMARK VINA RESULT:      -8.5      1.205      1.310
REMARK  Name = 
REMARK  5 active torsions:
REMARK  status: ('A' for Active; 'I' for Inactive)
REMARK    1  A    between atoms: N_1  and  C_2
REMARK    2  A    between atoms: C_2  and  C_3
REMARK    3  A    between atoms: C_2  and  C_11
REMARK    4  A    between atoms: C_14  and  N_15
REMARK    5  A    between atoms: C_16  and  C_18
REMARK                            x       y       z     vdW  Elec       q    Type
REMARK                         _______ _______ _______ _____ _____    ______ ____
ROOT
ATOM      1  C   UNL     1       4.874   5.111  17.944  0.00  0.00    +0.000 C 
ATOM      2  C   UNL     1       6.192   4.573  18.541  0.00  0.00    +0.000 C 
ATOM      3  C   UNL     1       7.080   5.684  19.096  0.00  0.00    +0.000 C 
ATOM      4  C   UNL     1       7.379   6.738  18.027  0.00  0.00    +0.000 C 
ATOM      5  C   UNL     1       6.075   7.324  17.481  0.00  0.00    +0.000 C 
ATOM      6  C   UNL     1       5.163   6.233  16.923  0.00  0.00    +0.000 C 
ENDROOT
BRANCH   4   7
ATOM      7  N   UNL     1       8.231   7.789  18.564  0.00  0.00    +0.000 N 
ATOM      8  C   UNL     1       8.210   9.069  18.042  0.00  0.00    +0.000 C 
ATOM      9  O   UNL     1       7.466   9.427  17.140  0.00  0.00    +0.000 OA
ATOM     10  H   UNL     1       8.855   7.555  19.322  0.00  0.00    +0.000 HD
BRANCH   8  11
ATOM     11  C   UNL     1       9.133  10.054  18.667  0.00  0.00    +0.000 A 
ATOM     12  C   UNL     1       9.171  10.272  20.055  0.00  0.00    +0.000 A 
ATOM     13  C   UNL     1      10.056  11.213  20.589  0.00  0.00    +0.000 A 
ATOM     14  C   UNL     1      10.902  11.921  19.744  0.00  0.00    +0.000 A 
ATOM     15  F   UNL     1      11.747  12.821  20.264  0.00  0.00    +0.000 F 
ATOM     16  C   UNL     1      10.878  11.696  18.372  0.00  0.00    +0.000 A 
ATOM     17  F   UNL     1      11.702  12.374  17.565  0.00  0.00    +0.000 F 
ATOM     18  C   UNL     1      10.004  10.761  17.827  0.00  0.00    +0.000 A 
ENDBRANCH   8  11
ENDBRANCH   4   7
BRANCH   1  19
ATOM     19  C   UNL     1       3.990   3.998  17.308  0.00  0.00    +0.000 C 
BRANCH  19  20
ATOM     20  C   UNL     1       2.551   4.009  17.899  0.00  0.00    +0.000 C 
ATOM     21  O   UNL     1       1.611   4.477  17.248  0.00  0.00    +0.000 OA
ATOM     22  N   UNL     1       2.347   3.448  19.142  0.00  0.00    +0.000 N 
ATOM     23  C   UNL     1       1.007   3.370  19.702  0.00  0.00    +0.000 C 
ATOM     24  C   UNL     1       1.188   2.759  21.084  0.00  0.00    +0.000 C 
ATOM     25  C   UNL     1       2.558   3.270  21.489  0.00  0.00    +0.000 C 
ATOM     26  F   UNL     1       2.435   4.562  21.904  0.00  0.00    +0.000 F 
ATOM     27  C   UNL     1       3.351   3.243  20.183  0.00  0.00    +0.000 C 
ENDBRANCH  19  20
BRANCH  19  28
ATOM     28  N   UNL     1       4.580   2.650  17.483  0.00  0.00    +0.000 NA
ATOM     29  H   UNL     1       5.597   2.754  17.525  0.00  0.00    +0.000 HD
ATOM     30  H   UNL     1       4.439   2.126  16.617  0.00  0.00    +0.000 HD
ENDBRANCH  19  28
ENDBRANCH   1  19
TORSDOF 5
ENDMDL
MODEL 9
REMARK VINA RESULT:      -8.4      5.289      8.320
REMARK  Name = 
REMARK  5 active torsions:
REMARK  status: ('A' for Active; 'I' for Inactive)
REMARK    1  A    between atoms: N_1  and  C_2
REMARK    2  A    between atoms: C_2  and  C_3
REMARK    3  A    between atoms: C_2  and  C_11
REMARK    4  A    between atoms: C_14  and  N_15
REMARK    5  A    between atoms: C_16  and  C_18
REMARK                            x       y       z     vdW  Elec       q    Type
REMARK                         _______ _______ _______ _____ _____    ______ ____
ROOT
ATOM      1  C   UNL     1       2.767   4.933  19.500  0.00  0.00    +0.000 C 
ATOM      2  C   UNL     1       2.060   4.975  20.872  0.00  0.00    +0.000 C 
ATOM      3  C   UNL     1       1.042   6.109  20.973  0.00  0.00    +0.000 C 
ATOM      4  C   UNL     1       1.691   7.462  20.674  0.00  0.00    +0.000 C 
ATOM      5  C   UNL     1       2.334   7.448  19.286  0.00  0.00    +0.000 C 
ATOM      6  C   UNL     1       3.355   6.319  19.154  0.00  0.00    +0.000 C 
ENDROOT
BRANCH   4   7
ATOM      7  N   UNL     1       0.715   8.536  20.778  0.00  0.00    +0.000 N 
ATOM      8  C   UNL     1       0.763   9.455  21.809  0.00  0.00    +0.000 C 
ATOM      9  O   UNL     1       1.630   9.470  22.672  0.00  0.00    +0.000 OA
ATOM     10  H   UNL     1      -0.015   8.584  20.083  0.00  0.00    +0.000 HD
BRANCH   8  11
ATOM     11  C   UNL     1      -0.295  10.501  21.815  0.00  0.00    +0.000 A 
ATOM     12  C   UNL     1      -0.971  10.877  22.988  0.00  0.00    +0.000 A 
ATOM     13  C   UNL     1      -1.960  11.864  22.937  0.00  0.00    +0.000 A 
ATOM     14  C   UNL     1      -2.262  12.476  21.726  0.00  0.00    +0.000 A 
ATOM     15  F   UNL     1      -3.211  13.420  21.687  0.00  0.00    +0.000 F 
ATOM     16  C   UNL     1      -1.583  12.117  20.567  0.00  0.00    +0.000 A 
ATOM     17  F   UNL     1      -1.872  12.717  19.406  0.00  0.00    +0.000 F 
ATOM     18  C   UNL     1      -0.595  11.138  20.604  0.00  0.00    +0.000 A 
ENDBRANCH   8  11
ENDBRANCH   4   7
BRANCH   1  19
ATOM     19  C   UNL     1       3.860   3.829  19.407  0.00  0.00    +0.000 C 
BRANCH  19  20
ATOM     20  C   UNL     1       4.255   3.544  17.930  0.00  0.00    +0.000 C 
ATOM     21  O   UNL     1       3.692   2.649  17.292  0.00  0.00    +0.000 OA
ATOM     22  N   UNL     1       5.215   4.342  17.342  0.00  0.00    +0.000 N 
ATOM     23  C   UNL     1       5.565   4.159  15.942  0.00  0.00    +0.000 C 
ATOM     24  C   UNL     1       6.683   5.158  15.677  0.00  0.00    +0.000 C 
ATOM     25  C   UNL     1       7.383   5.225  17.022  0.00  0.00    +0.000 C 
ATOM     26  F   UNL     1       8.182   4.129  17.151  0.00  0.00    +0.000 F 
ATOM     27  C   UNL     1       6.239   5.127  18.028  0.00  0.00    +0.000 C 
ENDBRANCH  19  20
BRANCH  19  28
ATOM     28  N   UNL     1       3.431   2.566  20.051  0.00  0.00    +0.000 NA
ATOM     29  H   UNL     1       3.418   2.716  21.063  0.00  0.00    +0.000 HD
ATOM     30  H   UNL     1       4.178   1.878  19.931  0.00  0.00    +0.000 HD
ENDBRANCH  19  28
ENDBRANCH   1  19
TORSDOF 5
ENDMDL
