MODEL 1
REMARK VINA RESULT:      -7.6      0.000      0.000
REMARK  Name = 
REMARK  5 active torsions:
REMARK  status: ('A' for Active; 'I' for Inactive)
REMARK    1  A    between atoms: C_1  and  C_2
REMARK    2  A    between atoms: C_8  and  O_9
REMARK    3  A    between atoms: C_14  and  C_15
REMARK    4  A    between atoms: N_17  and  C_18
REMARK    5  A    between atoms: C_18  and  C_19
REMARK                            x       y       z     vdW  Elec       q    Type
REMARK                         _______ _______ _______ _____ _____    ______ ____
ROOT
ATOM      1  C   UNL     1       2.544   8.409  17.843  0.00  0.00    +0.000 C 
ATOM      2  C   UNL     1       1.776   8.479  19.117  0.00  0.00    +0.000 A 
ATOM      3  N   UNL     1       1.055   9.647  19.378  0.00  0.00    +0.000 NA
ATOM      4  C   UNL     1       0.529   9.612  20.586  0.00  0.00    +0.000 A 
ATOM      5  N   UNL     1      -0.270  10.601  21.165  0.00  0.00    +0.000 N 
ATOM      6  C   UNL     1      -0.885  11.470  20.274  0.00  0.00    +0.000 A 
ATOM      7  C   UNL     1      -1.716  12.431  20.704  0.00  0.00    +0.000 A 
ATOM      8  C   UNL     1      -1.950  12.583  22.116  0.00  0.00    +0.000 A 
ATOM      9  C   UNL     1      -1.358  11.781  23.004  0.00  0.00    +0.000 A 
ATOM     10  C   UNL     1      -0.427  10.713  22.551  0.00  0.00    +0.000 A 
ATOM     11  O   UNL     1       0.136  10.062  23.428  0.00  0.00    +0.000 OA
ATOM     12  S   UNL     1       0.769   8.135  21.412  0.00  0.00    +0.000 S 
ATOM     13  C   UNL     1       1.671   7.504  20.099  0.00  0.00    +0.000 A 
ENDROOT
BRANCH  13  14
ATOM     14  C   UNL     1       2.187   6.142  20.134  0.00  0.00    +0.000 C 
ATOM     15  O   UNL     1       1.533   5.184  20.531  0.00  0.00    +0.000 OA
ATOM     16  N   UNL     1       3.494   6.008  19.706  0.00  0.00    +0.000 N 
ATOM     17  H   UNL     1       3.972   6.838  19.380  0.00  0.00    +0.000 HD
BRANCH  16  18
ATOM     18  C   UNL     1       4.228   4.764  19.691  0.00  0.00    +0.000 C 
BRANCH  18  19
ATOM     19  C   UNL     1       5.383   4.819  18.721  0.00  0.00    +0.000 A 
ATOM     20  C   UNL     1       5.248   4.307  17.427  0.00  0.00    +0.000 A 
ATOM     21  C   UNL     1       6.320   4.403  16.552  0.00  0.00    +0.000 A 
ATOM     22  N   UNL     1       7.505   4.967  16.877  0.00  0.00    +0.000 NA
ATOM     23  C   UNL     1       7.618   5.459  18.126  0.00  0.00    +0.000 A 
ATOM     24  C   UNL     1       6.604   5.408  19.073  0.00  0.00    +0.000 A 
ENDBRANCH  18  19
ENDBRANCH  16  18
ENDBRANCH  13  14
BRANCH   8  25
ATOM     25  O   UNL     1      -2.796  13.585  22.527  0.00  0.00    +0.000 OA
ATOM     26  H   UNL     1      -2.784  14.306  21.877  0.00  0.00    +0.000 HD
ENDBRANCH   8  25
TORSDOF 4
ENDMDL
MODEL 2
REMARK VINA RESULT:      -7.6      6.137      7.918
REMARK  Name = 
REMARK  5 active torsions:
REMARK  status: ('A' for Active; 'I' for Inactive)
REMARK    1  A    between atoms: C_1  and  C_2
REMARK    2  A    between atoms: C_8  and  O_9
REMARK    3  A    between atoms: C_14  and  C_15
REMARK    4  A    between atoms: N_17  and  C_18
REMARK    5  A    between atoms: C_18  and  C_19
REMARK                            x       y       z     vdW  Elec       q    Type
REMARK                         _______ _______ _______ _____ _____    ______ ____
ROOT
ATOM      1  C   UNL     1       8.153   5.618  20.009  0.00  0.00    +0.000 C 
ATOM      2  C   UNL     1       6.902   5.604  19.200  0.00  0.00    +0.000 A 
ATOM      3  N   UNL     1       5.822   4.866  19.686  0.00  0.00    +0.000 NA
ATOM      4  C   UNL     1       4.835   4.849  18.812  0.00  0.00    +0.000 A 
ATOM      5  N   UNL     1       3.597   4.224  18.981  0.00  0.00    +0.000 N 
ATOM      6  C   UNL     1       3.231   3.966  20.295  0.00  0.00    +0.000 A 
ATOM      7  C   UNL     1       2.044   3.415  20.589  0.00  0.00    +0.000 A 
ATOM      8  C   UNL     1       1.147   3.057  19.522  0.00  0.00    +0.000 A 
ATOM      9  C   UNL     1       1.475   3.268  18.245  0.00  0.00    +0.000 A 
ATOM     10  C   UNL     1       2.788   3.872  17.895  0.00  0.00    +0.000 A 
ATOM     11  O   UNL     1       3.050   3.969  16.697  0.00  0.00    +0.000 OA
ATOM     12  S   UNL     1       5.108   5.815  17.429  0.00  0.00    +0.000 S 
ATOM     13  C   UNL     1       6.662   6.258  17.999  0.00  0.00    +0.000 A 
ENDROOT
BRANCH  13  14
ATOM     14  C   UNL     1       7.496   7.186  17.248  0.00  0.00    +0.000 C 
ATOM     15  O   UNL     1       8.026   6.901  16.179  0.00  0.00    +0.000 OA
ATOM     16  N   UNL     1       7.671   8.421  17.844  0.00  0.00    +0.000 N 
ATOM     17  H   UNL     1       7.194   8.593  18.720  0.00  0.00    +0.000 HD
BRANCH  16  18
ATOM     18  C   UNL     1       8.487   9.483  17.306  0.00  0.00    +0.000 C 
BRANCH  18  19
ATOM     19  C   UNL     1       8.853  10.488  18.370  0.00  0.00    +0.000 A 
ATOM     20  C   UNL     1       9.166  10.068  19.666  0.00  0.00    +0.000 A 
ATOM     21  C   UNL     1       9.529  11.017  20.611  0.00  0.00    +0.000 A 
ATOM     22  N   UNL     1       9.599  12.342  20.354  0.00  0.00    +0.000 NA
ATOM     23  C   UNL     1       9.299  12.731  19.099  0.00  0.00    +0.000 A 
ATOM     24  C   UNL     1       8.922  11.858  18.087  0.00  0.00    +0.000 A 
ENDBRANCH  18  19
ENDBRANCH  16  18
ENDBRANCH  13  14
BRANCH   8  25
ATOM     25  O   UNL     1      -0.055   2.482  19.854  0.00  0.00    +0.000 OA
ATOM     26  H   UNL     1      -0.694   3.175  20.088  0.00  0.00    +0.000 HD
ENDBRANCH   8  25
TORSDOF 4
ENDMDL
MODEL 3
REMARK VINA RESULT:      -7.6      2.291      3.655
REMARK  Name = 
REMARK  5 active torsions:
REMARK  status: ('A' for Active; 'I' for Inactive)
REMARK    1  A    between atoms: C_1  and  C_2
REMARK    2  A    between atoms: C_8  and  O_9
REMARK    3  A    between atoms: C_14  and  C_15
REMARK    4  A    between atoms: N_17  and  C_18
REMARK    5  A    between atoms: C_18  and  C_19
REMARK                            x       y       z     vdW  Elec       q    Type
REMARK                         _______ _______ _______ _____ _____    ______ ____
ROOT
ATOM      1  C   UNL     1       1.823   3.612  21.371  0.00  0.00    +0.000 C 
ATOM      2  C   UNL     1       2.114   4.867  20.623  0.00  0.00    +0.000 A 
ATOM      3  N   UNL     1       1.517   6.046  21.074  0.00  0.00    +0.000 NA
ATOM      4  C   UNL     1       1.767   7.043  20.249  0.00  0.00    +0.000 A 
ATOM      5  N   UNL     1       1.344   8.366  20.404  0.00  0.00    +0.000 N 
ATOM      6  C   UNL     1       1.002   8.736  21.697  0.00  0.00    +0.000 A 
ATOM      7  C   UNL     1       0.628   9.992  21.983  0.00  0.00    +0.000 A 
ATOM      8  C   UNL     1       0.552  10.965  20.925  0.00  0.00    +0.000 A 
ATOM      9  C   UNL     1       0.851  10.639  19.665  0.00  0.00    +0.000 A 
ATOM     10  C   UNL     1       1.260   9.251  19.324  0.00  0.00    +0.000 A 
ATOM     11  O   UNL     1       1.449   9.008  18.134  0.00  0.00    +0.000 OA
ATOM     12  S   UNL     1       2.826   6.643  18.969  0.00  0.00    +0.000 S 
ATOM     13  C   UNL     1       2.933   5.022  19.512  0.00  0.00    +0.000 A 
ENDROOT
BRANCH  13  14
ATOM     14  C   UNL     1       3.787   4.061  18.830  0.00  0.00    +0.000 C 
ATOM     15  O   UNL     1       4.565   3.316  19.417  0.00  0.00    +0.000 OA
ATOM     16  N   UNL     1       3.676   4.063  17.452  0.00  0.00    +0.000 N 
ATOM     17  H   UNL     1       3.005   4.694  17.034  0.00  0.00    +0.000 HD
BRANCH  16  18
ATOM     18  C   UNL     1       4.452   3.227  16.566  0.00  0.00    +0.000 C 
BRANCH  18  19
ATOM     19  C   UNL     1       5.562   4.007  15.906  0.00  0.00    +0.000 A 
ATOM     20  C   UNL     1       6.463   4.750  16.677  0.00  0.00    +0.000 A 
ATOM     21  C   UNL     1       7.490   5.429  16.039  0.00  0.00    +0.000 A 
ATOM     22  N   UNL     1       7.678   5.420  14.701  0.00  0.00    +0.000 NA
ATOM     23  C   UNL     1       6.805   4.696  13.973  0.00  0.00    +0.000 A 
ATOM     24  C   UNL     1       5.744   3.986  14.518  0.00  0.00    +0.000 A 
ENDBRANCH  18  19
ENDBRANCH  16  18
ENDBRANCH  13  14
BRANCH   8  25
ATOM     25  O   UNL     1       0.153  12.240  21.246  0.00  0.00    +0.000 OA
ATOM     26  H   UNL     1       0.359  12.420  22.178  0.00  0.00    +0.000 HD
ENDBRANCH   8  25
TORSDOF 4
ENDMDL
MODEL 4
REMARK VINA RESULT:      -7.6      3.161      9.002
REMARK  Name = 
REMARK  5 active torsions:
REMARK  status: ('A' for Active; 'I' for Inactive)
REMARK    1  A    between atoms: C_1  and  C_2
REMARK    2  A    between atoms: C_8  and  O_9
REMARK    3  A    between atoms: C_14  and  C_15
REMARK    4  A    between atoms: N_17  and  C_18
REMARK    5  A    between atoms: C_18  and  C_19
REMARK                            x       y       z     vdW  Elec       q    Type
REMARK                         _______ _______ _______ _____ _____    ______ ____
ROOT
ATOM      1  C   UNL     1       0.889   8.806  21.750  0.00  0.00    +0.000 C 
ATOM      2  C   UNL     1       1.402   8.262  20.461  0.00  0.00    +0.000 A 
ATOM      3  N   UNL     1       1.827   6.933  20.440  0.00  0.00    +0.000 NA
ATOM      4  C   UNL     1       2.362   6.630  19.274  0.00  0.00    +0.000 A 
ATOM      5  N   UNL     1       2.870   5.383  18.900  0.00  0.00    +0.000 N 
ATOM      6  C   UNL     1       2.409   4.304  19.640  0.00  0.00    +0.000 A 
ATOM      7  C   UNL     1       2.785   3.050  19.346  0.00  0.00    +0.000 A 
ATOM      8  C   UNL     1       3.705   2.824  18.263  0.00  0.00    +0.000 A 
ATOM      9  C   UNL     1       4.188   3.840  17.544  0.00  0.00    +0.000 A 
ATOM     10  C   UNL     1       3.791   5.239  17.857  0.00  0.00    +0.000 A 
ATOM     11  O   UNL     1       4.332   6.127  17.200  0.00  0.00    +0.000 OA
ATOM     12  S   UNL     1       2.267   7.882  18.115  0.00  0.00    +0.000 S 
ATOM     13  C   UNL     1       1.502   8.920  19.242  0.00  0.00    +0.000 A 
ENDROOT
BRANCH  13  14
ATOM     14  C   UNL     1       1.071  10.256  18.854  0.00  0.00    +0.000 C 
ATOM     15  O   UNL     1       1.849  11.150  18.540  0.00  0.00    +0.000 OA
ATOM     16  N   UNL     1      -0.297  10.456  18.889  0.00  0.00    +0.000 N 
ATOM     17  H   UNL     1      -0.882   9.672  19.145  0.00  0.00    +0.000 HD
BRANCH  16  18
ATOM     18  C   UNL     1      -0.949  11.708  18.586  0.00  0.00    +0.000 C 
BRANCH  18  19
ATOM     19  C   UNL     1      -2.288  11.484  17.927  0.00  0.00    +0.000 A 
ATOM     20  C   UNL     1      -3.473  11.773  18.611  0.00  0.00    +0.000 A 
ATOM     21  C   UNL     1      -4.685  11.585  17.963  0.00  0.00    +0.000 A 
ATOM     22  N   UNL     1      -4.795  11.133  16.695  0.00  0.00    +0.000 NA
ATOM     23  C   UNL     1      -3.644  10.864  16.047  0.00  0.00    +0.000 A 
ATOM     24  C   UNL     1      -2.385  11.016  16.611  0.00  0.00    +0.000 A 
ENDBRANCH  18  19
ENDBRANCH  16  18
ENDBRANCH  13  14
BRANCH   8  25
ATOM     25  O   UNL     1       4.082   1.531  17.994  0.00  0.00    +0.000 OA
ATOM     26  H   UNL     1       3.547   1.181  17.264  0.00  0.00    +0.000 HD
ENDBRANCH   8  25
TORSDOF 4
ENDMDL
MODEL 5
REMARK VINA RESULT:      -7.6      0.560      1.083
REMARK  Name = 
REMARK  5 active torsions:
REMARK  status: ('A' for Active; 'I' for Inactive)
REMARK    1  A    between atoms: C_1  and  C_2
REMARK    2  A    between atoms: C_8  and  O_9
REMARK    3  A    between atoms: C_14  and  C_15
REMARK    4  A    between atoms: N_17  and  C_18
REMARK    5  A    between atoms: C_18  and  C_19
REMARK                            x       y       z     vdW  Elec       q    Type
REMARK                         _______ _______ _______ _____ _____    ______ ____
ROOT
ATOM      1  C   UNL     1       2.573   8.454  17.772  0.00  0.00    +0.000 C 
ATOM      2  C   UNL     1       1.826   8.488  19.061  0.00  0.00    +0.000 A 
ATOM      3  N   UNL     1       1.067   9.626  19.342  0.00  0.00    +0.000 NA
ATOM      4  C   UNL     1       0.565   9.564  20.559  0.00  0.00    +0.000 A 
ATOM      5  N   UNL     1      -0.260  10.520  21.158  0.00  0.00    +0.000 N 
ATOM      6  C   UNL     1      -0.923  11.369  20.284  0.00  0.00    +0.000 A 
ATOM      7  C   UNL     1      -1.782  12.296  20.735  0.00  0.00    +0.000 A 
ATOM      8  C   UNL     1      -1.997  12.431  22.152  0.00  0.00    +0.000 A 
ATOM      9  C   UNL     1      -1.358  11.647  23.024  0.00  0.00    +0.000 A 
ATOM     10  C   UNL     1      -0.396  10.617  22.547  0.00  0.00    +0.000 A 
ATOM     11  O   UNL     1       0.207   9.983  23.411  0.00  0.00    +0.000 OA
ATOM     12  S   UNL     1       0.875   8.093  21.371  0.00  0.00    +0.000 S 
ATOM     13  C   UNL     1       1.777   7.504  20.039  0.00  0.00    +0.000 A 
ENDROOT
BRANCH  13  14
ATOM     14  C   UNL     1       2.344   6.163  20.056  0.00  0.00    +0.000 C 
ATOM     15  O   UNL     1       1.735   5.179  20.461  0.00  0.00    +0.000 OA
ATOM     16  N   UNL     1       3.646   6.080  19.599  0.00  0.00    +0.000 N 
ATOM     17  H   UNL     1       4.085   6.929  19.267  0.00  0.00    +0.000 HD
BRANCH  16  18
ATOM     18  C   UNL     1       4.426   4.864  19.562  0.00  0.00    +0.000 C 
BRANCH  18  19
ATOM     19  C   UNL     1       5.162   4.723  18.252  0.00  0.00    +0.000 A 
ATOM     20  C   UNL     1       6.557   4.810  18.209  0.00  0.00    +0.000 A 
ATOM     21  C   UNL     1       7.202   4.643  16.992  0.00  0.00    +0.000 A 
ATOM     22  N   UNL     1       6.559   4.399  15.830  0.00  0.00    +0.000 NA
ATOM     23  C   UNL     1       5.215   4.313  15.889  0.00  0.00    +0.000 A 
ATOM     24  C   UNL     1       4.480   4.468  17.056  0.00  0.00    +0.000 A 
ENDBRANCH  18  19
ENDBRANCH  16  18
ENDBRANCH  13  14
BRANCH   8  25
ATOM     25  O   UNL     1      -2.871  13.398  22.584  0.00  0.00    +0.000 OA
ATOM     26  H   UNL     1      -2.666  13.634  23.503  0.00  0.00    +0.000 HD
ENDBRANCH   8  25
TORSDOF 4
ENDMDL
MODEL 6
REMARK VINA RESULT:      -7.5      3.140      8.856
REMARK  Name = 
REMARK  5 active torsions:
REMARK  status: ('A' for Active; 'I' for Inactive)
REMARK    1  A    between atoms: C_1  and  C_2
REMARK    2  A    between atoms: C_8  and  O_9
REMARK    3  A    between atoms: C_14  and  C_15
REMARK    4  A    between atoms: N_17  and  C_18
REMARK    5  A    between atoms: C_18  and  C_19
REMARK                            x       y       z     vdW  Elec       q    Type
REMARK                         _______ _______ _______ _____ _____    ______ ____
ROOT
ATOM      1  C   UNL     1       0.628   9.106  22.211  0.00  0.00    +0.000 C 
ATOM      2  C   UNL     1       1.133   8.669  20.880  0.00  0.00    +0.000 A 
ATOM      3  N   UNL     1       1.734   7.412  20.794  0.00  0.00    +0.000 NA
ATOM      4  C   UNL     1       2.237   7.214  19.592  0.00  0.00    +0.000 A 
ATOM      5  N   UNL     1       2.887   6.058  19.152  0.00  0.00    +0.000 N 
ATOM      6  C   UNL     1       2.622   4.908  19.881  0.00  0.00    +0.000 A 
ATOM      7  C   UNL     1       3.148   3.726  19.528  0.00  0.00    +0.000 A 
ATOM      8  C   UNL     1       4.025   3.655  18.390  0.00  0.00    +0.000 A 
ATOM      9  C   UNL     1       4.322   4.744  17.677  0.00  0.00    +0.000 A 
ATOM     10  C   UNL     1       3.757   6.067  18.055  0.00  0.00    +0.000 A 
ATOM     11  O   UNL     1       4.131   7.036  17.398  0.00  0.00    +0.000 OA
ATOM     12  S   UNL     1       1.903   8.467  18.479  0.00  0.00    +0.000 S 
ATOM     13  C   UNL     1       1.071   9.363  19.679  0.00  0.00    +0.000 A 
ENDROOT
BRANCH  13  14
ATOM     14  C   UNL     1       0.439  10.635  19.357  0.00  0.00    +0.000 C 
ATOM     15  O   UNL     1       1.069  11.637  19.035  0.00  0.00    +0.000 OA
ATOM     16  N   UNL     1      -0.938  10.641  19.466  0.00  0.00    +0.000 N 
ATOM     17  H   UNL     1      -1.396   9.777  19.725  0.00  0.00    +0.000 HD
BRANCH  16  18
ATOM     18  C   UNL     1      -1.773  11.797  19.237  0.00  0.00    +0.000 C 
BRANCH  18  19
ATOM     19  C   UNL     1      -2.724  11.570  18.088  0.00  0.00    +0.000 A 
ATOM     20  C   UNL     1      -2.254  11.086  16.863  0.00  0.00    +0.000 A 
ATOM     21  C   UNL     1      -3.161  10.858  15.839  0.00  0.00    +0.000 A 
ATOM     22  N   UNL     1      -4.489  11.079  15.950  0.00  0.00    +0.000 NA
ATOM     23  C   UNL     1      -4.928  11.540  17.139  0.00  0.00    +0.000 A 
ATOM     24  C   UNL     1      -4.098  11.802  18.221  0.00  0.00    +0.000 A 
ENDBRANCH  18  19
ENDBRANCH  16  18
ENDBRANCH  13  14
BRANCH   8  25
ATOM     25  O   UNL     1       4.559   2.432  18.060  0.00  0.00    +0.000 OA
ATOM     26  H   UNL     1       5.457   2.553  17.712  0.00  0.00    +0.000 HD
ENDBRANCH   8  25
TORSDOF 4
ENDMDL
MODEL 7
REMARK VINA RESULT:      -7.5      3.387      9.045
REMARK  Name = 
REMARK  5 active torsions:
REMARK  status: ('A' for Active; 'I' for Inactive)
REMARK    1  A    between atoms: C_1  and  C_2
REMARK    2  A    between atoms: C_8  and  O_9
REMARK    3  A    between atoms: C_14  and  C_15
REMARK    4  A    between atoms: N_17  and  C_18
REMARK    5  A    between atoms: C_18  and  C_19
REMARK                            x       y       z     vdW  Elec       q    Type
REMARK                         _______ _______ _______ _____ _____    ______ ____
ROOT
ATOM      1  C   UNL     1       1.153   7.755  21.363  0.00  0.00    +0.000 C 
ATOM      2  C   UNL     1       1.748   7.746  19.997  0.00  0.00    +0.000 A 
ATOM      3  N   UNL     1       2.479   6.620  19.614  0.00  0.00    +0.000 NA
ATOM      4  C   UNL     1       3.041   6.806  18.436  0.00  0.00    +0.000 A 
ATOM      5  N   UNL     1       3.823   5.878  17.742  0.00  0.00    +0.000 N 
ATOM      6  C   UNL     1       3.652   4.553  18.117  0.00  0.00    +0.000 A 
ATOM      7  C   UNL     1       4.309   3.565  17.491  0.00  0.00    +0.000 A 
ATOM      8  C   UNL     1       5.229   3.888  16.433  0.00  0.00    +0.000 A 
ATOM      9  C   UNL     1       5.437   5.154  16.061  0.00  0.00    +0.000 A 
ATOM     10  C   UNL     1       4.725   6.266  16.745  0.00  0.00    +0.000 A 
ATOM     11  O   UNL     1       5.021   7.408  16.398  0.00  0.00    +0.000 OA
ATOM     12  S   UNL     1       2.620   8.281  17.684  0.00  0.00    +0.000 S 
ATOM     13  C   UNL     1       1.657   8.735  19.027  0.00  0.00    +0.000 A 
ENDROOT
BRANCH  13  14
ATOM     14  C   UNL     1       0.910   9.984  19.021  0.00  0.00    +0.000 C 
ATOM     15  O   UNL     1       1.443  11.088  18.999  0.00  0.00    +0.000 OA
ATOM     16  N   UNL     1      -0.464   9.838  19.068  0.00  0.00    +0.000 N 
ATOM     17  H   UNL     1      -0.838   8.898  19.072  0.00  0.00    +0.000 HD
BRANCH  16  18
ATOM     18  C   UNL     1      -1.404  10.933  19.113  0.00  0.00    +0.000 C 
BRANCH  18  19
ATOM     19  C   UNL     1      -2.345  10.898  17.934  0.00  0.00    +0.000 A 
ATOM     20  C   UNL     1      -2.054  10.108  16.817  0.00  0.00    +0.000 A 
ATOM     21  C   UNL     1      -2.957  10.076  15.764  0.00  0.00    +0.000 A 
ATOM     22  N   UNL     1      -4.116  10.770  15.749  0.00  0.00    +0.000 NA
ATOM     23  C   UNL     1      -4.385  11.523  16.835  0.00  0.00    +0.000 A 
ATOM     24  C   UNL     1      -3.543  11.623  17.934  0.00  0.00    +0.000 A 
ENDBRANCH  18  19
ENDBRANCH  16  18
ENDBRANCH  13  14
BRANCH   8  25
ATOM     25  O   UNL     1       5.898   2.857  15.820  0.00  0.00    +0.000 OA
ATOM     26  H   UNL     1       5.974   2.108  16.434  0.00  0.00    +0.000 HD
ENDBRANCH   8  25
TORSDOF 4
ENDMDL
MODEL 8
REMARK VINA RESULT:      -7.4      5.691      7.605
REMARK  Name = 
REMARK  5 active torsions:
REMARK  status: ('A' for Active; 'I' for Inactive)
REMARK    1  A    between atoms: C_1  and  C_2
REMARK    2  A    between atoms: C_8  and  O_9
REMARK    3  A    between atoms: C_14  and  C_15
REMARK    4  A    between atoms: N_17  and  C_18
REMARK    5  A    between atoms: C_18  and  C_19
REMARK                            x       y       z     vdW  Elec       q    Type
REMARK                         _______ _______ _______ _____ _____    ______ ____
ROOT
ATOM      1  C   UNL     1       4.970   7.391  16.606  0.00  0.00    +0.000 C 
ATOM      2  C   UNL     1       4.911   6.011  17.164  0.00  0.00    +0.000 A 
ATOM      3  N   UNL     1       3.979   5.757  18.172  0.00  0.00    +0.000 NA
ATOM      4  C   UNL     1       4.125   4.536  18.648  0.00  0.00    +0.000 A 
ATOM      5  N   UNL     1       3.347   3.944  19.646  0.00  0.00    +0.000 N 
ATOM      6  C   UNL     1       2.100   4.516  19.851  0.00  0.00    +0.000 A 
ATOM      7  C   UNL     1       1.242   4.006  20.748  0.00  0.00    +0.000 A 
ATOM      8  C   UNL     1       1.634   2.864  21.531  0.00  0.00    +0.000 A 
ATOM      9  C   UNL     1       2.835   2.301  21.377  0.00  0.00    +0.000 A 
ATOM     10  C   UNL     1       3.805   2.854  20.395  0.00  0.00    +0.000 A 
ATOM     11  O   UNL     1       4.916   2.328  20.360  0.00  0.00    +0.000 OA
ATOM     12  S   UNL     1       5.297   3.601  17.827  0.00  0.00    +0.000 S 
ATOM     13  C   UNL     1       5.675   4.913  16.793  0.00  0.00    +0.000 A 
ENDROOT
BRANCH  13  14
ATOM     14  C   UNL     1       6.660   4.766  15.730  0.00  0.00    +0.000 C 
ATOM     15  O   UNL     1       7.850   4.557  15.939  0.00  0.00    +0.000 OA
ATOM     16  N   UNL     1       6.155   4.904  14.451  0.00  0.00    +0.000 N 
ATOM     17  H   UNL     1       5.161   5.062  14.349  0.00  0.00    +0.000 HD
BRANCH  16  18
ATOM     18  C   UNL     1       6.948   4.838  13.246  0.00  0.00    +0.000 C 
BRANCH  18  19
ATOM     19  C   UNL     1       6.557   3.656  12.393  0.00  0.00    +0.000 A 
ATOM     20  C   UNL     1       7.537   2.830  11.834  0.00  0.00    +0.000 A 
ATOM     21  C   UNL     1       7.141   1.733  11.082  0.00  0.00    +0.000 A 
ATOM     22  N   UNL     1       5.849   1.409  10.853  0.00  0.00    +0.000 NA
ATOM     23  C   UNL     1       4.917   2.212  11.403  0.00  0.00    +0.000 A 
ATOM     24  C   UNL     1       5.214   3.332  12.167  0.00  0.00    +0.000 A 
ENDBRANCH  18  19
ENDBRANCH  16  18
ENDBRANCH  13  14
BRANCH   8  25
ATOM     25  O   UNL     1       0.739   2.373  22.450  0.00  0.00    +0.000 OA
ATOM     26  H   UNL     1       0.005   3.000  22.556  0.00  0.00    +0.000 HD
ENDBRANCH   8  25
TORSDOF 4
ENDMDL
MODEL 9
REMARK VINA RESULT:      -7.4      2.419      2.832
REMARK  Name = 
REMARK  5 active torsions:
REMARK  status: ('A' for Active; 'I' for Inactive)
REMARK    1  A    between atoms: C_1  and  C_2
REMARK    2  A    between atoms: C_8  and  O_9
REMARK    3  A    between atoms: C_14  and  C_15
REMARK    4  A    between atoms: N_17  and  C_18
REMARK    5  A    between atoms: C_18  and  C_19
REMARK                            x       y       z     vdW  Elec       q    Type
REMARK                         _______ _______ _______ _____ _____    ______ ____
ROOT
ATOM      1  C   UNL     1       2.255   8.949  17.685  0.00  0.00    +0.000 C 
ATOM      2  C   UNL     1       1.555   8.960  19.000  0.00  0.00    +0.000 A 
ATOM      3  N   UNL     1       0.675  10.012  19.260  0.00  0.00    +0.000 NA
ATOM      4  C   UNL     1       0.227   9.954  20.498  0.00  0.00    +0.000 A 
ATOM      5  N   UNL     1      -0.685  10.834  21.086  0.00  0.00    +0.000 N 
ATOM      6  C   UNL     1      -1.476  11.553  20.201  0.00  0.00    +0.000 A 
ATOM      7  C   UNL     1      -2.424  12.393  20.644  0.00  0.00    +0.000 A 
ATOM      8  C   UNL     1      -2.602  12.574  22.061  0.00  0.00    +0.000 A 
ATOM      9  C   UNL     1      -1.844  11.916  22.941  0.00  0.00    +0.000 A 
ATOM     10  C   UNL     1      -0.783  10.985  22.473  0.00  0.00    +0.000 A 
ATOM     11  O   UNL     1      -0.078  10.471  23.340  0.00  0.00    +0.000 OA
ATOM     12  S   UNL     1       0.741   8.572  21.363  0.00  0.00    +0.000 S 
ATOM     13  C   UNL     1       1.659   8.027  20.024  0.00  0.00    +0.000 A 
ENDROOT
BRANCH  13  14
ATOM     14  C   UNL     1       2.384   6.766  20.079  0.00  0.00    +0.000 C 
ATOM     15  O   UNL     1       3.297   6.480  19.313  0.00  0.00    +0.000 OA
ATOM     16  N   UNL     1       1.948   5.890  21.055  0.00  0.00    +0.000 N 
ATOM     17  H   UNL     1       1.197   6.194  21.662  0.00  0.00    +0.000 HD
BRANCH  16  18
ATOM     18  C   UNL     1       2.487   4.568  21.270  0.00  0.00    +0.000 C 
BRANCH  18  19
ATOM     19  C   UNL     1       2.201   3.660  20.099  0.00  0.00    +0.000 A 
ATOM     20  C   UNL     1       0.886   3.308  19.779  0.00  0.00    +0.000 A 
ATOM     21  C   UNL     1       0.657   2.497  18.677  0.00  0.00    +0.000 A 
ATOM     22  N   UNL     1       1.639   2.019  17.882  0.00  0.00    +0.000 NA
ATOM     23  C   UNL     1       2.901   2.370  18.200  0.00  0.00    +0.000 A 
ATOM     24  C   UNL     1       3.230   3.173  19.284  0.00  0.00    +0.000 A 
ENDBRANCH  18  19
ENDBRANCH  16  18
ENDBRANCH  13  14
BRANCH   8  25
ATOM     25  O   UNL     1      -3.571  13.451  22.484  0.00  0.00    +0.000 OA
ATOM     26  H   UNL     1      -3.970  13.123  23.306  0.00  0.00    +0.000 HD
ENDBRANCH   8  25
TORSDOF 4
ENDMDL
