MODEL 1
REMARK VINA RESULT:      -7.0      0.000      0.000
REMARK  Name = 
REMARK  8 active torsions:
REMARK  status: ('A' for Active; 'I' for Inactive)
REMARK    1  A    between atoms: C_1  and  O_2
REMARK    2  A    between atoms: O_2  and  C_3
REMARK    3  A    between atoms: C_9  and  C_10
REMARK    4  A    between atoms: N_12  and  N_13
REMARK    5  A    between atoms: C_14  and  C_16
REMARK    6  A    between atoms: C_16  and  C_17
REMARK    7  A    between atoms: C_17  and  N_18
REMARK    8  A    between atoms: C_19  and  C_20
REMARK                            x       y       z     vdW  Elec       q    Type
REMARK                         _______ _______ _______ _____ _____    ______ ____
ROOT
ATOM      1  C   UNL     1       3.579   4.485  17.273  0.00  0.00    +0.000 C 
ATOM      2  O   UNL     1       3.184   3.495  16.658  0.00  0.00    +0.000 OA
ATOM      3  N   UNL     1       4.607   5.272  16.805  0.00  0.00    +0.000 N 
ATOM      4  H   UNL     1       4.944   6.092  17.310  0.00  0.00    +0.000 HD
ENDROOT
BRANCH   1  11
ATOM      5  C   UNL     1       2.741   6.219  18.990  0.00  0.00    +0.000 A 
ATOM      6  C   UNL     1       2.106   6.473  20.216  0.00  0.00    +0.000 A 
ATOM      7  C   UNL     1       1.711   5.424  21.046  0.00  0.00    +0.000 A 
ATOM      8  C   UNL     1       1.939   4.110  20.651  0.00  0.00    +0.000 A 
ATOM      9 CL   UNL     1       1.460   2.821  21.684  0.00  0.00    +0.000 Cl
ATOM     10  C   UNL     1       2.545   3.836  19.427  0.00  0.00    +0.000 A 
ATOM     11  C   UNL     1       2.946   4.884  18.577  0.00  0.00    +0.000 A 
BRANCH   5  13
ATOM     12  C   UNL     1       2.183   8.258  17.896  0.00  0.00    +0.000 C 
ATOM     13  O   UNL     1       3.137   7.231  18.153  0.00  0.00    +0.000 OA
ENDBRANCH   5  13
ENDBRANCH   1  11
BRANCH   3  14
ATOM     14  N   UNL     1       5.233   4.970  15.592  0.00  0.00    +0.000 N 
ATOM     15  C   UNL     1       6.613   4.966  15.564  0.00  0.00    +0.000 C 
ATOM     16  O   UNL     1       7.298   5.298  16.532  0.00  0.00    +0.000 OA
ATOM     17  H   UNL     1       4.645   4.580  14.856  0.00  0.00    +0.000 HD
BRANCH  15  18
ATOM     18  C   UNL     1       7.206   4.593  14.224  0.00  0.00    +0.000 C 
BRANCH  18  19
ATOM     19  C   UNL     1       6.121   4.069  13.287  0.00  0.00    +0.000 C 
BRANCH  19  20
ATOM     20  N   UNL     1       6.531   2.901  12.523  0.00  0.00    +0.000 N 
ATOM     21  C   UNL     1       5.680   2.274  11.640  0.00  0.00    +0.000 C 
ATOM     22  C   UNL     1       6.228   1.009  11.033  0.00  0.00    +0.000 C 
ATOM     23  O   UNL     1       4.570   2.705  11.346  0.00  0.00    +0.000 OA
ATOM     24  H   UNL     1       7.349   2.397  12.841  0.00  0.00    +0.000 HD
ENDBRANCH  19  20
ENDBRANCH  18  19
ENDBRANCH  15  18
ENDBRANCH   3  14
TORSDOF 6
ENDMDL
MODEL 2
REMARK VINA RESULT:      -7.0      5.314      7.585
REMARK  Name = 
REMARK  8 active torsions:
REMARK  status: ('A' for Active; 'I' for Inactive)
REMARK    1  A    between atoms: C_1  and  O_2
REMARK    2  A    between atoms: O_2  and  C_3
REMARK    3  A    between atoms: C_9  and  C_10
REMARK    4  A    between atoms: N_12  and  N_13
REMARK    5  A    between atoms: C_14  and  C_16
REMARK    6  A    between atoms: C_16  and  C_17
REMARK    7  A    between atoms: C_17  and  N_18
REMARK    8  A    between atoms: C_19  and  C_20
REMARK                            x       y       z     vdW  Elec       q    Type
REMARK                         _______ _______ _______ _____ _____    ______ ____
ROOT
ATOM      1  C   UNL     1       7.226   5.844  18.940  0.00  0.00    +0.000 C 
ATOM      2  O   UNL     1       7.677   5.543  20.046  0.00  0.00    +0.000 OA
ATOM      3  N   UNL     1       7.631   6.976  18.271  0.00  0.00    +0.000 N 
ATOM      4  H   UNL     1       7.260   7.236  17.357  0.00  0.00    +0.000 HD
ENDROOT
BRANCH   1  11
ATOM      5  C   UNL     1       6.204   4.661  16.888  0.00  0.00    +0.000 A 
ATOM      6  C   UNL     1       5.216   3.807  16.372  0.00  0.00    +0.000 A 
ATOM      7  C   UNL     1       4.212   3.298  17.196  0.00  0.00    +0.000 A 
ATOM      8  C   UNL     1       4.195   3.630  18.546  0.00  0.00    +0.000 A 
ATOM      9 CL   UNL     1       2.948   3.009  19.555  0.00  0.00    +0.000 Cl
ATOM     10  C   UNL     1       5.181   4.456  19.083  0.00  0.00    +0.000 A 
ATOM     11  C   UNL     1       6.203   4.974  18.265  0.00  0.00    +0.000 A 
BRANCH   5  13
ATOM     12  C   UNL     1       7.129   4.890  14.707  0.00  0.00    +0.000 C 
ATOM     13  O   UNL     1       7.205   5.173  16.102  0.00  0.00    +0.000 OA
ENDBRANCH   5  13
ENDBRANCH   1  11
BRANCH   3  14
ATOM     14  N   UNL     1       8.591   7.824  18.831  0.00  0.00    +0.000 N 
ATOM     15  C   UNL     1       8.531   9.165  18.509  0.00  0.00    +0.000 C 
ATOM     16  O   UNL     1       7.729   9.616  17.691  0.00  0.00    +0.000 OA
ATOM     17  H   UNL     1       9.150   7.443  19.594  0.00  0.00    +0.000 HD
BRANCH  15  18
ATOM     18  C   UNL     1       9.582  10.014  19.188  0.00  0.00    +0.000 C 
BRANCH  18  19
ATOM     19  C   UNL     1       9.270  11.497  19.005  0.00  0.00    +0.000 C 
BRANCH  19  20
ATOM     20  N   UNL     1       9.867  12.072  17.809  0.00  0.00    +0.000 N 
ATOM     21  C   UNL     1      11.073  12.735  17.843  0.00  0.00    +0.000 C 
ATOM     22  C   UNL     1      11.474  13.374  16.540  0.00  0.00    +0.000 C 
ATOM     23  O   UNL     1      11.785  12.795  18.841  0.00  0.00    +0.000 OA
ATOM     24  H   UNL     1       9.264  12.213  17.009  0.00  0.00    +0.000 HD
ENDBRANCH  19  20
ENDBRANCH  18  19
ENDBRANCH  15  18
ENDBRANCH   3  14
TORSDOF 6
ENDMDL
MODEL 3
REMARK VINA RESULT:      -7.0      1.030      1.159
REMARK  Name = 
REMARK  8 active torsions:
REMARK  status: ('A' for Active; 'I' for Inactive)
REMARK    1  A    between atoms: C_1  and  O_2
REMARK    2  A    between atoms: O_2  and  C_3
REMARK    3  A    between atoms: C_9  and  C_10
REMARK    4  A    between atoms: N_12  and  N_13
REMARK    5  A    between atoms: C_14  and  C_16
REMARK    6  A    between atoms: C_16  and  C_17
REMARK    7  A    between atoms: C_17  and  N_18
REMARK    8  A    between atoms: C_19  and  C_20
REMARK                            x       y       z     vdW  Elec       q    Type
REMARK                         _______ _______ _______ _____ _____    ______ ____
ROOT
ATOM      1  C   UNL     1       4.043   4.330  17.525  0.00  0.00    +0.000 C 
ATOM      2  O   UNL     1       3.609   3.513  16.712  0.00  0.00    +0.000 OA
ATOM      3  N   UNL     1       5.297   4.884  17.403  0.00  0.00    +0.000 N 
ATOM      4  H   UNL     1       5.666   5.558  18.074  0.00  0.00    +0.000 HD
ENDROOT
BRANCH   1  11
ATOM      5  C   UNL     1       2.809   6.095  18.944  0.00  0.00    +0.000 A 
ATOM      6  C   UNL     1       1.999   6.379  20.056  0.00  0.00    +0.000 A 
ATOM      7  C   UNL     1       1.619   5.368  20.938  0.00  0.00    +0.000 A 
ATOM      8  C   UNL     1       2.037   4.062  20.710  0.00  0.00    +0.000 A 
ATOM      9 CL   UNL     1       1.574   2.821  21.808  0.00  0.00    +0.000 Cl
ATOM     10  C   UNL     1       2.820   3.755  19.599  0.00  0.00    +0.000 A 
ATOM     11  C   UNL     1       3.209   4.764  18.698  0.00  0.00    +0.000 A 
BRANCH   5  13
ATOM     12  C   UNL     1       2.479   8.300  18.110  0.00  0.00    +0.000 C 
ATOM     13  O   UNL     1       3.196   7.069  18.059  0.00  0.00    +0.000 OA
ENDBRANCH   5  13
ENDBRANCH   1  11
BRANCH   3  14
ATOM     14  N   UNL     1       6.122   4.539  16.329  0.00  0.00    +0.000 N 
ATOM     15  C   UNL     1       6.080   5.336  15.204  0.00  0.00    +0.000 C 
ATOM     16  O   UNL     1       5.291   6.273  15.082  0.00  0.00    +0.000 OA
ATOM     17  H   UNL     1       6.846   3.844  16.512  0.00  0.00    +0.000 HD
BRANCH  15  18
ATOM     18  C   UNL     1       7.031   4.912  14.106  0.00  0.00    +0.000 C 
BRANCH  18  19
ATOM     19  C   UNL     1       6.538   3.632  13.438  0.00  0.00    +0.000 C 
BRANCH  19  20
ATOM     20  N   UNL     1       5.327   3.817  12.653  0.00  0.00    +0.000 N 
ATOM     21  C   UNL     1       4.952   2.926  11.672  0.00  0.00    +0.000 C 
ATOM     22  C   UNL     1       3.743   3.342  10.877  0.00  0.00    +0.000 C 
ATOM     23  O   UNL     1       5.533   1.866  11.461  0.00  0.00    +0.000 OA
ATOM     24  H   UNL     1       4.909   4.738  12.650  0.00  0.00    +0.000 HD
ENDBRANCH  19  20
ENDBRANCH  18  19
ENDBRANCH  15  18
ENDBRANCH   3  14
TORSDOF 6
ENDMDL
MODEL 4
REMARK VINA RESULT:      -6.8      3.515      7.176
REMARK  Name = 
REMARK  8 active torsions:
REMARK  status: ('A' for Active; 'I' for Inactive)
REMARK    1  A    between atoms: C_1  and  O_2
REMARK    2  A    between atoms: O_2  and  C_3
REMARK    3  A    between atoms: C_9  and  C_10
REMARK    4  A    between atoms: N_12  and  N_13
REMARK    5  A    between atoms: C_14  and  C_16
REMARK    6  A    between atoms: C_16  and  C_17
REMARK    7  A    between atoms: C_17  and  N_18
REMARK    8  A    between atoms: C_19  and  C_20
REMARK                            x       y       z     vdW  Elec       q    Type
REMARK                         _______ _______ _______ _____ _____    ______ ____
ROOT
ATOM      1  C   UNL     1       5.040   4.365  17.458  0.00  0.00    +0.000 C 
ATOM      2  O   UNL     1       3.968   4.935  17.661  0.00  0.00    +0.000 OA
ATOM      3  N   UNL     1       5.631   3.563  18.409  0.00  0.00    +0.000 N 
ATOM      4  H   UNL     1       6.521   3.090  18.250  0.00  0.00    +0.000 HD
ENDROOT
BRANCH   1  11
ATOM      5  C   UNL     1       7.006   5.156  15.987  0.00  0.00    +0.000 A 
ATOM      6  C   UNL     1       7.598   5.212  14.716  0.00  0.00    +0.000 A 
ATOM      7  C   UNL     1       6.948   4.679  13.602  0.00  0.00    +0.000 A 
ATOM      8  C   UNL     1       5.703   4.078  13.754  0.00  0.00    +0.000 A 
ATOM      9 CL   UNL     1       4.901   3.433  12.376  0.00  0.00    +0.000 Cl
ATOM     10  C   UNL     1       5.110   3.990  15.012  0.00  0.00    +0.000 A 
ATOM     11  C   UNL     1       5.756   4.519  16.145  0.00  0.00    +0.000 A 
BRANCH   5  13
ATOM     12  C   UNL     1       7.398   7.049  17.378  0.00  0.00    +0.000 C 
ATOM     13  O   UNL     1       7.624   5.669  17.100  0.00  0.00    +0.000 OA
ENDBRANCH   5  13
ENDBRANCH   1  11
BRANCH   3  14
ATOM     14  N   UNL     1       5.015   3.362  19.647  0.00  0.00    +0.000 N 
ATOM     15  C   UNL     1       4.165   2.282  19.774  0.00  0.00    +0.000 C 
ATOM     16  O   UNL     1       3.869   1.554  18.826  0.00  0.00    +0.000 OA
ATOM     17  H   UNL     1       5.379   3.900  20.433  0.00  0.00    +0.000 HD
BRANCH  15  18
ATOM     18  C   UNL     1       3.572   2.118  21.156  0.00  0.00    +0.000 C 
BRANCH  18  19
ATOM     19  C   UNL     1       2.130   2.615  21.180  0.00  0.00    +0.000 C 
BRANCH  19  20
ATOM     20  N   UNL     1       2.016   4.058  21.325  0.00  0.00    +0.000 N 
ATOM     21  C   UNL     1       1.618   4.866  20.284  0.00  0.00    +0.000 C 
ATOM     22  C   UNL     1       1.681   6.342  20.576  0.00  0.00    +0.000 C 
ATOM     23  O   UNL     1       1.225   4.435  19.204  0.00  0.00    +0.000 OA
ATOM     24  H   UNL     1       2.486   4.487  22.113  0.00  0.00    +0.000 HD
ENDBRANCH  19  20
ENDBRANCH  18  19
ENDBRANCH  15  18
ENDBRANCH   3  14
TORSDOF 6
ENDMDL
MODEL 5
REMARK VINA RESULT:      -6.8      1.227      1.240
REMARK  Name = 
REMARK  8 active torsions:
REMARK  status: ('A' for Active; 'I' for Inactive)
REMARK    1  A    between atoms: C_1  and  O_2
REMARK    2  A    between atoms: O_2  and  C_3
REMARK    3  A    between atoms: C_9  and  C_10
REMARK    4  A    between atoms: N_12  and  N_13
REMARK    5  A    between atoms: C_14  and  C_16
REMARK    6  A    between atoms: C_16  and  C_17
REMARK    7  A    between atoms: C_17  and  N_18
REMARK    8  A    between atoms: C_19  and  C_20
REMARK                            x       y       z     vdW  Elec       q    Type
REMARK                         _______ _______ _______ _____ _____    ______ ____
ROOT
ATOM      1  C   UNL     1       4.910   4.213  18.188  0.00  0.00    +0.000 C 
ATOM      2  O   UNL     1       6.042   4.155  18.669  0.00  0.00    +0.000 OA
ATOM      3  N   UNL     1       4.681   4.045  16.841  0.00  0.00    +0.000 N 
ATOM      4  H   UNL     1       3.746   4.096  16.434  0.00  0.00    +0.000 HD
ENDROOT
BRANCH   1  11
ATOM      5  C   UNL     1       2.947   5.654  19.039  0.00  0.00    +0.000 A 
ATOM      6  C   UNL     1       1.829   5.770  19.880  0.00  0.00    +0.000 A 
ATOM      7  C   UNL     1       1.493   4.746  20.766  0.00  0.00    +0.000 A 
ATOM      8  C   UNL     1       2.268   3.592  20.811  0.00  0.00    +0.000 A 
ATOM      9 CL   UNL     1       1.857   2.338  21.913  0.00  0.00    +0.000 Cl
ATOM     10  C   UNL     1       3.368   3.448  19.966  0.00  0.00    +0.000 A 
ATOM     11  C   UNL     1       3.716   4.470  19.064  0.00  0.00    +0.000 A 
BRANCH   5  13
ATOM     12  C   UNL     1       2.475   7.807  18.139  0.00  0.00    +0.000 C 
ATOM     13  O   UNL     1       3.298   6.643  18.156  0.00  0.00    +0.000 OA
ENDBRANCH   5  13
ENDBRANCH   1  11
BRANCH   3  14
ATOM     14  N   UNL     1       5.742   3.788  15.969  0.00  0.00    +0.000 N 
ATOM     15  C   UNL     1       6.130   4.798  15.113  0.00  0.00    +0.000 C 
ATOM     16  O   UNL     1       5.527   5.869  15.033  0.00  0.00    +0.000 OA
ATOM     17  H   UNL     1       6.292   2.949  16.150  0.00  0.00    +0.000 HD
BRANCH  15  18
ATOM     18  C   UNL     1       7.308   4.447  14.231  0.00  0.00    +0.000 C 
BRANCH  18  19
ATOM     19  C   UNL     1       6.910   4.509  12.759  0.00  0.00    +0.000 C 
BRANCH  19  20
ATOM     20  N   UNL     1       6.916   3.211  12.102  0.00  0.00    +0.000 N 
ATOM     21  C   UNL     1       5.753   2.581  11.723  0.00  0.00    +0.000 C 
ATOM     22  C   UNL     1       5.943   1.191  11.173  0.00  0.00    +0.000 C 
ATOM     23  O   UNL     1       4.644   3.100  11.802  0.00  0.00    +0.000 OA
ATOM     24  H   UNL     1       7.762   2.659  12.167  0.00  0.00    +0.000 HD
ENDBRANCH  19  20
ENDBRANCH  18  19
ENDBRANCH  15  18
ENDBRANCH   3  14
TORSDOF 6
ENDMDL
MODEL 6
REMARK VINA RESULT:      -6.8      2.000      2.776
REMARK  Name = 
REMARK  8 active torsions:
REMARK  status: ('A' for Active; 'I' for Inactive)
REMARK    1  A    between atoms: C_1  and  O_2
REMARK    2  A    between atoms: O_2  and  C_3
REMARK    3  A    between atoms: C_9  and  C_10
REMARK    4  A    between atoms: N_12  and  N_13
REMARK    5  A    between atoms: C_14  and  C_16
REMARK    6  A    between atoms: C_16  and  C_17
REMARK    7  A    between atoms: C_17  and  N_18
REMARK    8  A    between atoms: C_19  and  C_20
REMARK                            x       y       z     vdW  Elec       q    Type
REMARK                         _______ _______ _______ _____ _____    ______ ____
ROOT
ATOM      1  C   UNL     1       5.200   4.269  18.152  0.00  0.00    +0.000 C 
ATOM      2  O   UNL     1       6.363   4.367  18.546  0.00  0.00    +0.000 OA
ATOM      3  N   UNL     1       4.896   3.993  16.838  0.00  0.00    +0.000 N 
ATOM      4  H   UNL     1       3.936   3.914  16.502  0.00  0.00    +0.000 HD
ENDROOT
BRANCH   1  11
ATOM      5  C   UNL     1       3.462   3.401  19.848  0.00  0.00    +0.000 A 
ATOM      6  C   UNL     1       2.411   3.690  20.735  0.00  0.00    +0.000 A 
ATOM      7  C   UNL     1       1.918   4.989  20.856  0.00  0.00    +0.000 A 
ATOM      8  C   UNL     1       2.479   6.012  20.100  0.00  0.00    +0.000 A 
ATOM      9 CL   UNL     1       1.859   7.610  20.247  0.00  0.00    +0.000 Cl
ATOM     10  C   UNL     1       3.539   5.750  19.234  0.00  0.00    +0.000 A 
ATOM     11  C   UNL     1       4.050   4.446  19.103  0.00  0.00    +0.000 A 
BRANCH   5  13
ATOM     12  C   UNL     1       3.429   1.341  18.655  0.00  0.00    +0.000 C 
ATOM     13  O   UNL     1       3.968   2.133  19.711  0.00  0.00    +0.000 OA
ENDBRANCH   5  13
ENDBRANCH   1  11
BRANCH   3  14
ATOM     14  N   UNL     1       5.915   3.801  15.901  0.00  0.00    +0.000 N 
ATOM     15  C   UNL     1       6.207   4.844  15.046  0.00  0.00    +0.000 C 
ATOM     16  O   UNL     1       5.554   5.887  15.023  0.00  0.00    +0.000 OA
ATOM     17  H   UNL     1       6.512   2.985  16.033  0.00  0.00    +0.000 HD
BRANCH  15  18
ATOM     18  C   UNL     1       7.346   4.564  14.091  0.00  0.00    +0.000 C 
BRANCH  18  19
ATOM     19  C   UNL     1       6.832   4.482  12.656  0.00  0.00    +0.000 C 
BRANCH  19  20
ATOM     20  N   UNL     1       6.901   3.144  12.091  0.00  0.00    +0.000 N 
ATOM     21  C   UNL     1       5.776   2.477  11.658  0.00  0.00    +0.000 C 
ATOM     22  C   UNL     1       6.019   1.056  11.222  0.00  0.00    +0.000 C 
ATOM     23  O   UNL     1       4.662   2.989  11.609  0.00  0.00    +0.000 OA
ATOM     24  H   UNL     1       7.741   2.606  12.265  0.00  0.00    +0.000 HD
ENDBRANCH  19  20
ENDBRANCH  18  19
ENDBRANCH  15  18
ENDBRANCH   3  14
TORSDOF 6
ENDMDL
MODEL 7
REMARK VINA RESULT:      -6.8      3.423      7.294
REMARK  Name = 
REMARK  8 active torsions:
REMARK  status: ('A' for Active; 'I' for Inactive)
REMARK    1  A    between atoms: C_1  and  O_2
REMARK    2  A    between atoms: O_2  and  C_3
REMARK    3  A    between atoms: C_9  and  C_10
REMARK    4  A    between atoms: N_12  and  N_13
REMARK    5  A    between atoms: C_14  and  C_16
REMARK    6  A    between atoms: C_16  and  C_17
REMARK    7  A    between atoms: C_17  and  N_18
REMARK    8  A    between atoms: C_19  and  C_20
REMARK                            x       y       z     vdW  Elec       q    Type
REMARK                         _______ _______ _______ _____ _____    ______ ____
ROOT
ATOM      1  C   UNL     1       4.933   4.120  17.074  0.00  0.00    +0.000 C 
ATOM      2  O   UNL     1       4.486   5.066  17.723  0.00  0.00    +0.000 OA
ATOM      3  N   UNL     1       4.703   2.812  17.438  0.00  0.00    +0.000 N 
ATOM      4  H   UNL     1       5.073   2.022  16.909  0.00  0.00    +0.000 HD
ENDROOT
BRANCH   1  11
ATOM      5  C   UNL     1       6.978   5.063  15.817  0.00  0.00    +0.000 A 
ATOM      6  C   UNL     1       7.680   5.193  14.608  0.00  0.00    +0.000 A 
ATOM      7  C   UNL     1       7.164   4.665  13.424  0.00  0.00    +0.000 A 
ATOM      8  C   UNL     1       5.946   3.995  13.441  0.00  0.00    +0.000 A 
ATOM      9 CL   UNL     1       5.310   3.357  11.976  0.00  0.00    +0.000 Cl
ATOM     10  C   UNL     1       5.247   3.834  14.636  0.00  0.00    +0.000 A 
ATOM     11  C   UNL     1       5.756   4.356  15.839  0.00  0.00    +0.000 A 
BRANCH   5  13
ATOM     12  C   UNL     1       7.340   6.976  17.186  0.00  0.00    +0.000 C 
ATOM     13  O   UNL     1       7.463   5.569  16.996  0.00  0.00    +0.000 OA
ENDBRANCH   5  13
ENDBRANCH   1  11
BRANCH   3  14
ATOM     14  N   UNL     1       3.934   2.517  18.567  0.00  0.00    +0.000 N 
ATOM     15  C   UNL     1       2.584   2.293  18.385  0.00  0.00    +0.000 C 
ATOM     16  O   UNL     1       2.030   2.429  17.294  0.00  0.00    +0.000 OA
ATOM     17  H   UNL     1       4.442   2.289  19.422  0.00  0.00    +0.000 HD
BRANCH  15  18
ATOM     18  C   UNL     1       1.836   1.944  19.652  0.00  0.00    +0.000 C 
BRANCH  18  19
ATOM     19  C   UNL     1       0.771   2.996  19.951  0.00  0.00    +0.000 C 
BRANCH  19  20
ATOM     20  N   UNL     1       1.186   4.351  19.620  0.00  0.00    +0.000 N 
ATOM     21  C   UNL     1       1.923   5.120  20.492  0.00  0.00    +0.000 C 
ATOM     22  C   UNL     1       2.152   6.537  20.038  0.00  0.00    +0.000 C 
ATOM     23  O   UNL     1       2.378   4.697  21.550  0.00  0.00    +0.000 OA
ATOM     24  H   UNL     1       0.703   4.814  18.861  0.00  0.00    +0.000 HD
ENDBRANCH  19  20
ENDBRANCH  18  19
ENDBRANCH  15  18
ENDBRANCH   3  14
TORSDOF 6
ENDMDL
MODEL 8
REMARK VINA RESULT:      -6.8      2.065      3.043
REMARK  Name = 
REMARK  8 active torsions:
REMARK  status: ('A' for Active; 'I' for Inactive)
REMARK    1  A    between atoms: C_1  and  O_2
REMARK    2  A    between atoms: O_2  and  C_3
REMARK    3  A    between atoms: C_9  and  C_10
REMARK    4  A    between atoms: N_12  and  N_13
REMARK    5  A    between atoms: C_14  and  C_16
REMARK    6  A    between atoms: C_16  and  C_17
REMARK    7  A    between atoms: C_17  and  N_18
REMARK    8  A    between atoms: C_19  and  C_20
REMARK                            x       y       z     vdW  Elec       q    Type
REMARK                         _______ _______ _______ _____ _____    ______ ____
ROOT
ATOM      1  C   UNL     1       5.137   4.210  18.400  0.00  0.00    +0.000 C 
ATOM      2  O   UNL     1       6.216   4.659  18.788  0.00  0.00    +0.000 OA
ATOM      3  N   UNL     1       4.960   3.743  17.118  0.00  0.00    +0.000 N 
ATOM      4  H   UNL     1       4.069   3.373  16.787  0.00  0.00    +0.000 HD
ENDROOT
BRANCH   1  11
ATOM      5  C   UNL     1       3.431   2.962  19.879  0.00  0.00    +0.000 A 
ATOM      6  C   UNL     1       2.340   3.031  20.760  0.00  0.00    +0.000 A 
ATOM      7  C   UNL     1       1.743   4.255  21.061  0.00  0.00    +0.000 A 
ATOM      8  C   UNL     1       2.239   5.422  20.492  0.00  0.00    +0.000 A 
ATOM      9 CL   UNL     1       1.492   6.927  20.859  0.00  0.00    +0.000 Cl
ATOM     10  C   UNL     1       3.337   5.378  19.635  0.00  0.00    +0.000 A 
ATOM     11  C   UNL     1       3.953   4.151  19.324  0.00  0.00    +0.000 A 
BRANCH   5  13
ATOM     12  C   UNL     1       5.031   1.304  20.477  0.00  0.00    +0.000 C 
ATOM     13  O   UNL     1       4.039   1.773  19.566  0.00  0.00    +0.000 OA
ENDBRANCH   5  13
ENDBRANCH   1  11
BRANCH   3  14
ATOM     14  N   UNL     1       6.022   3.753  16.208  0.00  0.00    +0.000 N 
ATOM     15  C   UNL     1       5.958   4.643  15.156  0.00  0.00    +0.000 C 
ATOM     16  O   UNL     1       4.975   5.354  14.946  0.00  0.00    +0.000 OA
ATOM     17  H   UNL     1       6.865   3.249  16.482  0.00  0.00    +0.000 HD
BRANCH  15  18
ATOM     18  C   UNL     1       7.163   4.612  14.242  0.00  0.00    +0.000 C 
BRANCH  18  19
ATOM     19  C   UNL     1       6.919   3.671  13.067  0.00  0.00    +0.000 C 
BRANCH  19  20
ATOM     20  N   UNL     1       5.594   3.806  12.481  0.00  0.00    +0.000 N 
ATOM     21  C   UNL     1       5.064   2.845  11.650  0.00  0.00    +0.000 C 
ATOM     22  C   UNL     1       3.738   3.210  11.035  0.00  0.00    +0.000 C 
ATOM     23  O   UNL     1       5.605   1.766  11.430  0.00  0.00    +0.000 OA
ATOM     24  H   UNL     1       5.179   4.729  12.474  0.00  0.00    +0.000 HD
ENDBRANCH  19  20
ENDBRANCH  18  19
ENDBRANCH  15  18
ENDBRANCH   3  14
TORSDOF 6
ENDMDL
MODEL 9
REMARK VINA RESULT:      -6.7      1.938      2.696
REMARK  Name = 
REMARK  8 active torsions:
REMARK  status: ('A' for Active; 'I' for Inactive)
REMARK    1  A    between atoms: C_1  and  O_2
REMARK    2  A    between atoms: O_2  and  C_3
REMARK    3  A    between atoms: C_9  and  C_10
REMARK    4  A    between atoms: N_12  and  N_13
REMARK    5  A    between atoms: C_14  and  C_16
REMARK    6  A    between atoms: C_16  and  C_17
REMARK    7  A    between atoms: C_17  and  N_18
REMARK    8  A    between atoms: C_19  and  C_20
REMARK                            x       y       z     vdW  Elec       q    Type
REMARK                         _______ _______ _______ _____ _____    ______ ____
ROOT
ATOM      1  C   UNL     1       3.750   4.458  17.515  0.00  0.00    +0.000 C 
ATOM      2  O   UNL     1       3.242   3.656  16.733  0.00  0.00    +0.000 OA
ATOM      3  N   UNL     1       5.034   4.926  17.348  0.00  0.00    +0.000 N 
ATOM      4  H   UNL     1       5.466   5.587  17.994  0.00  0.00    +0.000 HD
ENDROOT
BRANCH   1  11
ATOM      5  C   UNL     1       2.528   4.164  19.768  0.00  0.00    +0.000 A 
ATOM      6  C   UNL     1       1.846   4.758  20.842  0.00  0.00    +0.000 A 
ATOM      7  C   UNL     1       1.576   6.127  20.846  0.00  0.00    +0.000 A 
ATOM      8  C   UNL     1       1.996   6.915  19.780  0.00  0.00    +0.000 A 
ATOM      9 CL   UNL     1       1.650   8.600  19.785  0.00  0.00    +0.000 Cl
ATOM     10  C   UNL     1       2.696   6.348  18.716  0.00  0.00    +0.000 A 
ATOM     11  C   UNL     1       2.980   4.970  18.700  0.00  0.00    +0.000 A 
BRANCH   5  13
ATOM     12  C   UNL     1       1.736   1.951  19.392  0.00  0.00    +0.000 C 
ATOM     13  O   UNL     1       2.810   2.822  19.739  0.00  0.00    +0.000 OA
ENDBRANCH   5  13
ENDBRANCH   1  11
BRANCH   3  14
ATOM     14  N   UNL     1       5.805   4.505  16.261  0.00  0.00    +0.000 N 
ATOM     15  C   UNL     1       5.990   5.394  15.221  0.00  0.00    +0.000 C 
ATOM     16  O   UNL     1       5.438   6.493  15.181  0.00  0.00    +0.000 OA
ATOM     17  H   UNL     1       6.345   3.649  16.385  0.00  0.00    +0.000 HD
BRANCH  15  18
ATOM     18  C   UNL     1       6.866   4.870  14.105  0.00  0.00    +0.000 C 
BRANCH  18  19
ATOM     19  C   UNL     1       6.298   3.569  13.546  0.00  0.00    +0.000 C 
BRANCH  19  20
ATOM     20  N   UNL     1       5.134   3.763  12.695  0.00  0.00    +0.000 N 
ATOM     21  C   UNL     1       4.851   2.919  11.644  0.00  0.00    +0.000 C 
ATOM     22  C   UNL     1       3.681   3.345  10.797  0.00  0.00    +0.000 C 
ATOM     23  O   UNL     1       5.479   1.891  11.413  0.00  0.00    +0.000 OA
ATOM     24  H   UNL     1       4.686   4.670  12.716  0.00  0.00    +0.000 HD
ENDBRANCH  19  20
ENDBRANCH  18  19
ENDBRANCH  15  18
ENDBRANCH   3  14
TORSDOF 6
ENDMDL
