MODEL 1
REMARK VINA RESULT:      -6.4      0.000      0.000
REMARK  Name = 
REMARK  4 active torsions:
REMARK  status: ('A' for Active; 'I' for Inactive)
REMARK    1  A    between atoms: C_1  and  C_2
REMARK    2  A    between atoms: C_8  and  N_9
REMARK    3  A    between atoms: C_10  and  S_11
REMARK    4  A    between atoms: N_12  and  N_13
REMARK                            x       y       z     vdW  Elec       q    Type
REMARK                         _______ _______ _______ _____ _____    ______ ____
ROOT
ATOM      1  N   UNL     1       5.732   5.281  19.651  0.00  0.00    +0.000 NA
ATOM      2  C   UNL     1       6.843   5.244  18.969  0.00  0.00    +0.000 C 
ATOM      3  N   UNL     1       8.085   5.412  19.561  0.00  0.00    +0.000 N 
ATOM      4  H   UNL     1       8.873   5.104  18.991  0.00  0.00    +0.000 HD
ENDROOT
BRANCH   1  12
ATOM      5  C   UNL     1       4.526   2.658  19.770  0.00  0.00    +0.000 C 
ATOM      6  C   UNL     1       3.801   3.849  19.193  0.00  0.00    +0.000 A 
ATOM      7  C   UNL     1       2.521   3.698  18.615  0.00  0.00    +0.000 A 
ATOM      8 CL   UNL     1       1.706   2.171  18.567  0.00  0.00    +0.000 Cl
ATOM      9  C   UNL     1       1.868   4.778  18.020  0.00  0.00    +0.000 A 
ATOM     10  C   UNL     1       2.509   6.007  17.921  0.00  0.00    +0.000 A 
ATOM     11  C   UNL     1       3.802   6.149  18.421  0.00  0.00    +0.000 A 
ATOM     12  C   UNL     1       4.435   5.111  19.126  0.00  0.00    +0.000 A 
ENDBRANCH   1  12
BRANCH   3  13
ATOM     13  N   UNL     1       8.186   5.250  20.963  0.00  0.00    +0.000 NA
ATOM     14  H   UNL     1       8.121   4.245  21.173  0.00  0.00    +0.000 HD
ATOM     15  H   UNL     1       7.355   5.654  21.404  0.00  0.00    +0.000 HD
ENDBRANCH   3  13
BRANCH   2  16
ATOM     16  S   UNL     1       7.028   5.006  17.234  0.00  0.00    +0.000 S 
ATOM     17  H   UNL     1       7.883   6.003  16.992  0.00  0.00    +0.000 HD
ENDBRANCH   2  16
TORSDOF 3
ENDMDL
MODEL 2
REMARK VINA RESULT:      -6.0      1.189      2.294
REMARK  Name = 
REMARK  4 active torsions:
REMARK  status: ('A' for Active; 'I' for Inactive)
REMARK    1  A    between atoms: C_1  and  C_2
REMARK    2  A    between atoms: C_8  and  N_9
REMARK    3  A    between atoms: C_10  and  S_11
REMARK    4  A    between atoms: N_12  and  N_13
REMARK                            x       y       z     vdW  Elec       q    Type
REMARK                         _______ _______ _______ _____ _____    ______ ____
ROOT
ATOM      1  N   UNL     1       5.820   4.445  19.353  0.00  0.00    +0.000 NA
ATOM      2  C   UNL     1       6.836   4.822  18.628  0.00  0.00    +0.000 C 
ATOM      3  N   UNL     1       7.930   5.483  19.165  0.00  0.00    +0.000 N 
ATOM      4  H   UNL     1       8.757   5.489  18.569  0.00  0.00    +0.000 HD
ENDROOT
BRANCH   1  12
ATOM      5  C   UNL     1       3.612   5.993  18.315  0.00  0.00    +0.000 C 
ATOM      6  C   UNL     1       3.591   4.485  18.343  0.00  0.00    +0.000 A 
ATOM      7  C   UNL     1       2.443   3.776  17.927  0.00  0.00    +0.000 A 
ATOM      8 CL   UNL     1       1.027   4.580  17.336  0.00  0.00    +0.000 Cl
ATOM      9  C   UNL     1       2.386   2.384  18.009  0.00  0.00    +0.000 A 
ATOM     10  C   UNL     1       3.441   1.680  18.577  0.00  0.00    +0.000 A 
ATOM     11  C   UNL     1       4.549   2.374  19.060  0.00  0.00    +0.000 A 
ATOM     12  C   UNL     1       4.679   3.762  18.885  0.00  0.00    +0.000 A 
ENDBRANCH   1  12
BRANCH   3  13
ATOM     13  N   UNL     1       8.126   5.423  20.564  0.00  0.00    +0.000 NA
ATOM     14  H   UNL     1       9.140   5.387  20.742  0.00  0.00    +0.000 HD
ATOM     15  H   UNL     1       7.777   4.526  20.911  0.00  0.00    +0.000 HD
ENDBRANCH   3  13
BRANCH   2  16
ATOM     16  S   UNL     1       7.048   4.616  16.892  0.00  0.00    +0.000 S 
ATOM     17  H   UNL     1       6.263   5.614  16.480  0.00  0.00    +0.000 HD
ENDBRANCH   2  16
TORSDOF 3
ENDMDL
MODEL 3
REMARK VINA RESULT:      -5.9      1.928      2.052
REMARK  Name = 
REMARK  4 active torsions:
REMARK  status: ('A' for Active; 'I' for Inactive)
REMARK    1  A    between atoms: C_1  and  C_2
REMARK    2  A    between atoms: C_8  and  N_9
REMARK    3  A    between atoms: C_10  and  S_11
REMARK    4  A    between atoms: N_12  and  N_13
REMARK                            x       y       z     vdW  Elec       q    Type
REMARK                         _______ _______ _______ _____ _____    ______ ____
ROOT
ATOM      1  N   UNL     1       5.582   4.704  18.735  0.00  0.00    +0.000 NA
ATOM      2  C   UNL     1       5.808   4.436  17.479  0.00  0.00    +0.000 C 
ATOM      3  N   UNL     1       7.089   4.322  16.961  0.00  0.00    +0.000 N 
ATOM      4  H   UNL     1       7.141   3.858  16.054  0.00  0.00    +0.000 HD
ENDROOT
BRANCH   1  12
ATOM      5  C   UNL     1       4.380   2.356  19.916  0.00  0.00    +0.000 C 
ATOM      6  C   UNL     1       3.708   3.706  19.952  0.00  0.00    +0.000 A 
ATOM      7  C   UNL     1       2.416   3.849  20.505  0.00  0.00    +0.000 A 
ATOM      8 CL   UNL     1       1.556   2.512  21.195  0.00  0.00    +0.000 Cl
ATOM      9  C   UNL     1       1.756   5.077  20.486  0.00  0.00    +0.000 A 
ATOM     10  C   UNL     1       2.337   6.167  19.848  0.00  0.00    +0.000 A 
ATOM     11  C   UNL     1       3.579   6.020  19.234  0.00  0.00    +0.000 A 
ATOM     12  C   UNL     1       4.314   4.826  19.338  0.00  0.00    +0.000 A 
ENDBRANCH   1  12
BRANCH   3  13
ATOM     13  N   UNL     1       8.160   4.124  17.863  0.00  0.00    +0.000 NA
ATOM     14  H   UNL     1       9.038   4.164  17.328  0.00  0.00    +0.000 HD
ATOM     15  H   UNL     1       8.124   3.164  18.217  0.00  0.00    +0.000 HD
ENDBRANCH   3  13
BRANCH   2  16
ATOM     16  S   UNL     1       4.617   4.186  16.206  0.00  0.00    +0.000 S 
ATOM     17  H   UNL     1       4.453   5.460  15.842  0.00  0.00    +0.000 HD
ENDBRANCH   2  16
TORSDOF 3
ENDMDL
MODEL 4
REMARK VINA RESULT:      -5.9      1.827      1.908
REMARK  Name = 
REMARK  4 active torsions:
REMARK  status: ('A' for Active; 'I' for Inactive)
REMARK    1  A    between atoms: C_1  and  C_2
REMARK    2  A    between atoms: C_8  and  N_9
REMARK    3  A    between atoms: C_10  and  S_11
REMARK    4  A    between atoms: N_12  and  N_13
REMARK                            x       y       z     vdW  Elec       q    Type
REMARK                         _______ _______ _______ _____ _____    ______ ____
ROOT
ATOM      1  N   UNL     1       5.519   4.540  18.560  0.00  0.00    +0.000 NA
ATOM      2  C   UNL     1       5.967   5.171  17.510  0.00  0.00    +0.000 C 
ATOM      3  N   UNL     1       7.297   5.122  17.122  0.00  0.00    +0.000 N 
ATOM      4  H   UNL     1       7.472   5.425  16.165  0.00  0.00    +0.000 HD
ENDROOT
BRANCH   1  12
ATOM      5  C   UNL     1       3.813   2.335  17.799  0.00  0.00    +0.000 C 
ATOM      6  C   UNL     1       3.329   3.456  18.685  0.00  0.00    +0.000 A 
ATOM      7  C   UNL     1       1.983   3.501  19.113  0.00  0.00    +0.000 A 
ATOM      8 CL   UNL     1       0.838   2.275  18.683  0.00  0.00    +0.000 Cl
ATOM      9  C   UNL     1       1.506   4.565  19.878  0.00  0.00    +0.000 A 
ATOM     10  C   UNL     1       2.338   5.640  20.166  0.00  0.00    +0.000 A 
ATOM     11  C   UNL     1       3.647   5.643  19.686  0.00  0.00    +0.000 A 
ATOM     12  C   UNL     1       4.184   4.533  19.013  0.00  0.00    +0.000 A 
ENDBRANCH   1  12
BRANCH   3  13
ATOM     13  N   UNL     1       8.107   4.087  17.643  0.00  0.00    +0.000 NA
ATOM     14  H   UNL     1       8.037   4.113  18.670  0.00  0.00    +0.000 HD
ATOM     15  H   UNL     1       9.089   4.304  17.452  0.00  0.00    +0.000 HD
ENDBRANCH   3  13
BRANCH   2  16
ATOM     16  S   UNL     1       5.053   6.194  16.405  0.00  0.00    +0.000 S 
ATOM     17  H   UNL     1       4.319   5.242  15.823  0.00  0.00    +0.000 HD
ENDBRANCH   2  16
TORSDOF 3
ENDMDL
MODEL 5
REMARK VINA RESULT:      -5.8      2.555      2.866
REMARK  Name = 
REMARK  4 active torsions:
REMARK  status: ('A' for Active; 'I' for Inactive)
REMARK    1  A    between atoms: C_1  and  C_2
REMARK    2  A    between atoms: C_8  and  N_9
REMARK    3  A    between atoms: C_10  and  S_11
REMARK    4  A    between atoms: N_12  and  N_13
REMARK                            x       y       z     vdW  Elec       q    Type
REMARK                         _______ _______ _______ _____ _____    ______ ____
ROOT
ATOM      1  N   UNL     1       5.396   5.446  16.261  0.00  0.00    +0.000 NA
ATOM      2  C   UNL     1       6.632   5.239  16.620  0.00  0.00    +0.000 C 
ATOM      3  N   UNL     1       7.631   4.931  15.708  0.00  0.00    +0.000 N 
ATOM      4  H   UNL     1       8.580   5.053  16.061  0.00  0.00    +0.000 HD
ENDROOT
BRANCH   1  12
ATOM      5  C   UNL     1       3.720   3.311  17.253  0.00  0.00    +0.000 C 
ATOM      6  C   UNL     1       3.506   4.750  17.651  0.00  0.00    +0.000 A 
ATOM      7  C   UNL     1       2.416   5.112  18.473  0.00  0.00    +0.000 A 
ATOM      8 CL   UNL     1       1.299   3.941  19.091  0.00  0.00    +0.000 Cl
ATOM      9  C   UNL     1       2.168   6.446  18.795  0.00  0.00    +0.000 A 
ATOM     10  C   UNL     1       2.955   7.450  18.243  0.00  0.00    +0.000 A 
ATOM     11  C   UNL     1       3.988   7.111  17.371  0.00  0.00    +0.000 A 
ATOM     12  C   UNL     1       4.329   5.771  17.122  0.00  0.00    +0.000 A 
ENDBRANCH   1  12
BRANCH   3  13
ATOM     13  N   UNL     1       7.396   5.207  14.341  0.00  0.00    +0.000 NA
ATOM     14  H   UNL     1       6.593   4.639  14.035  0.00  0.00    +0.000 HD
ATOM     15  H   UNL     1       8.181   4.850  13.790  0.00  0.00    +0.000 HD
ENDBRANCH   3  13
BRANCH   2  16
ATOM     16  S   UNL     1       7.295   5.278  18.251  0.00  0.00    +0.000 S 
ATOM     17  H   UNL     1       7.709   4.011  18.322  0.00  0.00    +0.000 HD
ENDBRANCH   2  16
TORSDOF 3
ENDMDL
MODEL 6
REMARK VINA RESULT:      -5.7      2.119      2.719
REMARK  Name = 
REMARK  4 active torsions:
REMARK  status: ('A' for Active; 'I' for Inactive)
REMARK    1  A    between atoms: C_1  and  C_2
REMARK    2  A    between atoms: C_8  and  N_9
REMARK    3  A    between atoms: C_10  and  S_11
REMARK    4  A    between atoms: N_12  and  N_13
REMARK                            x       y       z     vdW  Elec       q    Type
REMARK                         _______ _______ _______ _____ _____    ______ ____
ROOT
ATOM      1  N   UNL     1       5.547   3.910  17.988  0.00  0.00    +0.000 NA
ATOM      2  C   UNL     1       6.063   4.418  16.903  0.00  0.00    +0.000 C 
ATOM      3  N   UNL     1       7.411   4.722  16.792  0.00  0.00    +0.000 N 
ATOM      4  H   UNL     1       7.739   4.858  15.836  0.00  0.00    +0.000 HD
ENDROOT
BRANCH   1  12
ATOM      5  C   UNL     1       3.929   5.562  19.721  0.00  0.00    +0.000 C 
ATOM      6  C   UNL     1       3.363   4.368  18.993  0.00  0.00    +0.000 A 
ATOM      7  C   UNL     1       2.023   3.971  19.200  0.00  0.00    +0.000 A 
ATOM      8 CL   UNL     1       0.959   4.837  20.256  0.00  0.00    +0.000 Cl
ATOM      9  C   UNL     1       1.506   2.832  18.583  0.00  0.00    +0.000 A 
ATOM     10  C   UNL     1       2.334   2.025  17.812  0.00  0.00    +0.000 A 
ATOM     11  C   UNL     1       3.677   2.365  17.660  0.00  0.00    +0.000 A 
ATOM     12  C   UNL     1       4.193   3.567  18.175  0.00  0.00    +0.000 A 
ENDBRANCH   1  12
BRANCH   3  13
ATOM     13  N   UNL     1       8.307   4.136  17.717  0.00  0.00    +0.000 NA
ATOM     14  H   UNL     1       8.284   4.696  18.580  0.00  0.00    +0.000 HD
ATOM     15  H   UNL     1       9.264   4.247  17.370  0.00  0.00    +0.000 HD
ENDBRANCH   3  13
BRANCH   2  16
ATOM     16  S   UNL     1       5.225   4.836  15.412  0.00  0.00    +0.000 S 
ATOM     17  H   UNL     1       6.285   4.884  14.601  0.00  0.00    +0.000 HD
ENDBRANCH   2  16
TORSDOF 3
ENDMDL
MODEL 7
REMARK VINA RESULT:      -5.7      2.484      2.948
REMARK  Name = 
REMARK  4 active torsions:
REMARK  status: ('A' for Active; 'I' for Inactive)
REMARK    1  A    between atoms: C_1  and  C_2
REMARK    2  A    between atoms: C_8  and  N_9
REMARK    3  A    between atoms: C_10  and  S_11
REMARK    4  A    between atoms: N_12  and  N_13
REMARK                            x       y       z     vdW  Elec       q    Type
REMARK                         _______ _______ _______ _____ _____    ______ ____
ROOT
ATOM      1  N   UNL     1       3.853   5.773  17.377  0.00  0.00    +0.000 NA
ATOM      2  C   UNL     1       5.156   5.800  17.419  0.00  0.00    +0.000 C 
ATOM      3  N   UNL     1       5.928   6.205  16.342  0.00  0.00    +0.000 N 
ATOM      4  H   UNL     1       6.895   6.434  16.574  0.00  0.00    +0.000 HD
ENDROOT
BRANCH   1  12
ATOM      5  C   UNL     1       2.506   3.224  17.194  0.00  0.00    +0.000 C 
ATOM      6  C   UNL     1       2.347   4.131  18.388  0.00  0.00    +0.000 A 
ATOM      7  C   UNL     1       1.461   3.791  19.434  0.00  0.00    +0.000 A 
ATOM      8 CL   UNL     1       0.547   2.320  19.426  0.00  0.00    +0.000 Cl
ATOM      9  C   UNL     1       1.255   4.651  20.513  0.00  0.00    +0.000 A 
ATOM     10  C   UNL     1       1.868   5.899  20.531  0.00  0.00    +0.000 A 
ATOM     11  C   UNL     1       2.687   6.277  19.469  0.00  0.00    +0.000 A 
ATOM     12  C   UNL     1       3.000   5.385  18.429  0.00  0.00    +0.000 A 
ENDBRANCH   1  12
BRANCH   3  13
ATOM     13  N   UNL     1       5.304   6.949  15.314  0.00  0.00    +0.000 NA
ATOM     14  H   UNL     1       4.528   7.481  15.732  0.00  0.00    +0.000 HD
ATOM     15  H   UNL     1       4.846   6.302  14.666  0.00  0.00    +0.000 HD
ENDBRANCH   3  13
BRANCH   2  16
ATOM     16  S   UNL     1       6.193   5.339  18.766  0.00  0.00    +0.000 S 
ATOM     17  H   UNL     1       6.916   4.405  18.143  0.00  0.00    +0.000 HD
ENDBRANCH   2  16
TORSDOF 3
ENDMDL
MODEL 8
REMARK VINA RESULT:      -5.7      2.658      3.007
REMARK  Name = 
REMARK  4 active torsions:
REMARK  status: ('A' for Active; 'I' for Inactive)
REMARK    1  A    between atoms: C_1  and  C_2
REMARK    2  A    between atoms: C_8  and  N_9
REMARK    3  A    between atoms: C_10  and  S_11
REMARK    4  A    between atoms: N_12  and  N_13
REMARK                            x       y       z     vdW  Elec       q    Type
REMARK                         _______ _______ _______ _____ _____    ______ ____
ROOT
ATOM      1  N   UNL     1       5.304   5.720  16.616  0.00  0.00    +0.000 NA
ATOM      2  C   UNL     1       6.576   6.006  16.641  0.00  0.00    +0.000 C 
ATOM      3  N   UNL     1       7.451   5.593  15.648  0.00  0.00    +0.000 N 
ATOM      4  H   UNL     1       8.342   6.089  15.634  0.00  0.00    +0.000 HD
ENDROOT
BRANCH   1  12
ATOM      5  C   UNL     1       4.644   3.871  18.736  0.00  0.00    +0.000 C 
ATOM      6  C   UNL     1       4.025   5.243  18.647  0.00  0.00    +0.000 A 
ATOM      7  C   UNL     1       3.031   5.643  19.568  0.00  0.00    +0.000 A 
ATOM      8 CL   UNL     1       2.499   4.611  20.854  0.00  0.00    +0.000 Cl
ATOM      9  C   UNL     1       2.403   6.883  19.458  0.00  0.00    +0.000 A 
ATOM     10  C   UNL     1       2.698   7.717  18.386  0.00  0.00    +0.000 A 
ATOM     11  C   UNL     1       3.623   7.303  17.429  0.00  0.00    +0.000 A 
ATOM     12  C   UNL     1       4.351   6.110  17.579  0.00  0.00    +0.000 A 
ENDBRANCH   1  12
BRANCH   3  13
ATOM     13  N   UNL     1       6.910   5.178  14.409  0.00  0.00    +0.000 NA
ATOM     14  H   UNL     1       7.387   4.310  14.128  0.00  0.00    +0.000 HD
ATOM     15  H   UNL     1       7.172   5.855  13.688  0.00  0.00    +0.000 HD
ENDBRANCH   3  13
BRANCH   2  16
ATOM     16  S   UNL     1       7.446   6.916  17.873  0.00  0.00    +0.000 S 
ATOM     17  H   UNL     1       7.220   6.103  18.908  0.00  0.00    +0.000 HD
ENDBRANCH   2  16
TORSDOF 3
ENDMDL
MODEL 9
REMARK VINA RESULT:      -5.6      2.306      2.552
REMARK  Name = 
REMARK  4 active torsions:
REMARK  status: ('A' for Active; 'I' for Inactive)
REMARK    1  A    between atoms: C_1  and  C_2
REMARK    2  A    between atoms: C_8  and  N_9
REMARK    3  A    between atoms: C_10  and  S_11
REMARK    4  A    between atoms: N_12  and  N_13
REMARK                            x       y       z     vdW  Elec       q    Type
REMARK                         _______ _______ _______ _____ _____    ______ ____
ROOT
ATOM      1  N   UNL     1       4.762   4.321  17.745  0.00  0.00    +0.000 NA
ATOM      2  C   UNL     1       6.033   4.614  17.769  0.00  0.00    +0.000 C 
ATOM      3  N   UNL     1       6.901   4.247  16.752  0.00  0.00    +0.000 N 
ATOM      4  H   UNL     1       7.789   4.748  16.750  0.00  0.00    +0.000 HD
ENDROOT
BRANCH   1  12
ATOM      5  C   UNL     1       3.844   2.267  19.558  0.00  0.00    +0.000 C 
ATOM      6  C   UNL     1       3.367   3.694  19.655  0.00  0.00    +0.000 A 
ATOM      7  C   UNL     1       2.383   4.058  20.602  0.00  0.00    +0.000 A 
ATOM      8 CL   UNL     1       1.705   2.914  21.711  0.00  0.00    +0.000 Cl
ATOM      9  C   UNL     1       1.885   5.360  20.659  0.00  0.00    +0.000 A 
ATOM     10  C   UNL     1       2.300   6.302  19.726  0.00  0.00    +0.000 A 
ATOM     11  C   UNL     1       3.215   5.936  18.740  0.00  0.00    +0.000 A 
ATOM     12  C   UNL     1       3.817   4.666  18.732  0.00  0.00    +0.000 A 
ENDBRANCH   1  12
BRANCH   3  13
ATOM     13  N   UNL     1       6.349   3.879  15.503  0.00  0.00    +0.000 NA
ATOM     14  H   UNL     1       5.437   4.346  15.408  0.00  0.00    +0.000 HD
ATOM     15  H   UNL     1       6.121   2.882  15.520  0.00  0.00    +0.000 HD
ENDBRANCH   3  13
BRANCH   2  16
ATOM     16  S   UNL     1       6.910   5.478  19.029  0.00  0.00    +0.000 S 
ATOM     17  H   UNL     1       7.576   6.333  18.249  0.00  0.00    +0.000 HD
ENDBRANCH   2  16
TORSDOF 3
ENDMDL
