MODEL 1
REMARK VINA RESULT:      -8.1      0.000      0.000
REMARK  Name = 
REMARK  12 active torsions:
REMARK  status: ('A' for Active; 'I' for Inactive)
REMARK    1  A    between atoms: C_1  and  C_2
REMARK    2  A    between atoms: C_2  and  O_3
REMARK    3  A    between atoms: O_3  and  C_4
REMARK    4  A    between atoms: C_4  and  C_6
REMARK    5  A    between atoms: C_6  and  C_7
REMARK    6  A    between atoms: C_7  and  C_8
REMARK    7  A    between atoms: C_8  and  N_9
REMARK    8  A    between atoms: N_20  and  C_21
REMARK    9  A    between atoms: C_24  and  C_25
REMARK   10  A    between atoms: C_25  and  C_26
REMARK   11  A    between atoms: C_25  and  C_27
REMARK   12  A    between atoms: C_25  and  C_28
REMARK                            x       y       z     vdW  Elec       q    Type
REMARK                         _______ _______ _______ _____ _____    ______ ____
ROOT
ATOM      1  N   UNL     1       3.468   5.866  18.361  0.00  0.00    +0.000 N 
ATOM      2  C   UNL     1       3.513   4.735  19.156  0.00  0.00    +0.000 A 
ATOM      3  O   UNL     1       4.126   3.708  18.910  0.00  0.00    +0.000 OA
ATOM      4  O   UNL     1       2.752   4.913  20.317  0.00  0.00    +0.000 OA
ATOM      5  C   UNL     1       2.261   6.198  20.160  0.00  0.00    +0.000 A 
ATOM      6  C   UNL     1       1.474   6.859  21.075  0.00  0.00    +0.000 A 
ATOM      7  C   UNL     1       1.084   8.161  20.811  0.00  0.00    +0.000 A 
ATOM      8  N   UNL     1       0.368   8.771  21.752  0.00  0.00    +0.000 NA
ATOM      9  C   UNL     1       0.032  10.038  21.522  0.00  0.00    +0.000 A 
ATOM     10  N   UNL     1       0.341  10.739  20.433  0.00  0.00    +0.000 NA
ATOM     11  C   UNL     1       1.078  10.131  19.481  0.00  0.00    +0.000 A 
ATOM     12  N   UNL     1       1.461  10.915  18.353  0.00  0.00    +0.000 N 
ATOM     13  C   UNL     1       1.483   8.789  19.599  0.00  0.00    +0.000 A 
ATOM     14  C   UNL     1       2.284   8.077  18.660  0.00  0.00    +0.000 A 
ATOM     15  C   UNL     1       2.666   6.794  18.986  0.00  0.00    +0.000 A 
ATOM     16  H   UNL     1       0.922  10.618  17.546  0.00  0.00    +0.000 HD
ENDROOT
BRANCH  12  17
ATOM     17  C   UNL     1       1.592  12.328  18.428  0.00  0.00    +0.000 A 
ATOM     18  C   UNL     1       0.460  13.125  18.620  0.00  0.00    +0.000 A 
ATOM     19  C   UNL     1       0.535  14.518  18.621  0.00  0.00    +0.000 A 
ATOM     20  C   UNL     1       1.756  15.183  18.460  0.00  0.00    +0.000 A 
ATOM     21  C   UNL     1       2.910  14.376  18.372  0.00  0.00    +0.000 A 
ATOM     22  C   UNL     1       2.831  12.968  18.367  0.00  0.00    +0.000 A 
BRANCH  20  23
ATOM     23  C   UNL     1       1.830  16.718  18.359  0.00  0.00    +0.000 C 
ATOM     24  C   UNL     1       0.444  17.383  18.171  0.00  0.00    +0.000 C 
ATOM     25  C   UNL     1       2.453  17.307  19.639  0.00  0.00    +0.000 C 
ATOM     26  C   UNL     1       2.689  17.130  17.143  0.00  0.00    +0.000 C 
ENDBRANCH  20  23
ENDBRANCH  12  17
BRANCH   1  27
ATOM     27  C   UNL     1       4.144   6.006  17.098  0.00  0.00    +0.000 C 
BRANCH  27  28
ATOM     28  C   UNL     1       5.461   6.759  17.246  0.00  0.00    +0.000 C 
BRANCH  28  29
ATOM     29  C   UNL     1       6.516   5.912  17.954  0.00  0.00    +0.000 C 
BRANCH  29  30
ATOM     30  C   UNL     1       7.341   5.168  16.934  0.00  0.00    +0.000 C 
ATOM     31  O   UNL     1       8.077   4.226  17.190  0.00  0.00    +0.000 OA
BRANCH  30  32
ATOM     32  O   UNL     1       7.182   5.737  15.709  0.00  0.00    +0.000 OA
BRANCH  32  34
ATOM     33  C   UNL     1       5.831   4.290  14.381  0.00  0.00    +0.000 C 
ATOM     34  C   UNL     1       7.236   4.823  14.606  0.00  0.00    +0.000 C 
ENDBRANCH  32  34
ENDBRANCH  30  32
ENDBRANCH  29  30
ENDBRANCH  28  29
ENDBRANCH  27  28
ENDBRANCH   1  27
TORSDOF 8
ENDMDL
MODEL 2
REMARK VINA RESULT:      -8.0      0.885      1.400
REMARK  Name = 
REMARK  12 active torsions:
REMARK  status: ('A' for Active; 'I' for Inactive)
REMARK    1  A    between atoms: C_1  and  C_2
REMARK    2  A    between atoms: C_2  and  O_3
REMARK    3  A    between atoms: O_3  and  C_4
REMARK    4  A    between atoms: C_4  and  C_6
REMARK    5  A    between atoms: C_6  and  C_7
REMARK    6  A    between atoms: C_7  and  C_8
REMARK    7  A    between atoms: C_8  and  N_9
REMARK    8  A    between atoms: N_20  and  C_21
REMARK    9  A    between atoms: C_24  and  C_25
REMARK   10  A    between atoms: C_25  and  C_26
REMARK   11  A    between atoms: C_25  and  C_27
REMARK   12  A    between atoms: C_25  and  C_28
REMARK                            x       y       z     vdW  Elec       q    Type
REMARK                         _______ _______ _______ _____ _____    ______ ____
ROOT
ATOM      1  N   UNL     1       3.873   5.531  18.001  0.00  0.00    +0.000 N 
ATOM      2  C   UNL     1       3.999   4.382  18.762  0.00  0.00    +0.000 A 
ATOM      3  O   UNL     1       4.670   3.403  18.477  0.00  0.00    +0.000 OA
ATOM      4  O   UNL     1       3.245   4.479  19.937  0.00  0.00    +0.000 OA
ATOM      5  C   UNL     1       2.675   5.736  19.825  0.00  0.00    +0.000 A 
ATOM      6  C   UNL     1       1.862   6.320  20.769  0.00  0.00    +0.000 A 
ATOM      7  C   UNL     1       1.389   7.603  20.549  0.00  0.00    +0.000 A 
ATOM      8  N   UNL     1       0.652   8.140  21.517  0.00  0.00    +0.000 NA
ATOM      9  C   UNL     1       0.235   9.390  21.329  0.00  0.00    +0.000 A 
ATOM     10  N   UNL     1       0.484  10.140  20.258  0.00  0.00    +0.000 NA
ATOM     11  C   UNL     1       1.242   9.606  19.278  0.00  0.00    +0.000 A 
ATOM     12  N   UNL     1       1.560  10.445  18.170  0.00  0.00    +0.000 N 
ATOM     13  C   UNL     1       1.731   8.289  19.352  0.00  0.00    +0.000 A 
ATOM     14  C   UNL     1       2.560   7.655  18.381  0.00  0.00    +0.000 A 
ATOM     15  C   UNL     1       3.025   6.389  18.664  0.00  0.00    +0.000 A 
ATOM     16  H   UNL     1       1.029  10.138  17.361  0.00  0.00    +0.000 HD
ENDROOT
BRANCH  12  17
ATOM     17  C   UNL     1       1.606  11.860  18.285  0.00  0.00    +0.000 A 
ATOM     18  C   UNL     1       2.815  12.536  18.100  0.00  0.00    +0.000 A 
ATOM     19  C   UNL     1       2.919  13.916  18.280  0.00  0.00    +0.000 A 
ATOM     20  C   UNL     1       1.807  14.692  18.626  0.00  0.00    +0.000 A 
ATOM     21  C   UNL     1       0.569  14.023  18.709  0.00  0.00    +0.000 A 
ATOM     22  C   UNL     1       0.467  12.628  18.530  0.00  0.00    +0.000 A 
BRANCH  20  23
ATOM     23  C   UNL     1       1.938  16.197  18.924  0.00  0.00    +0.000 C 
ATOM     24  C   UNL     1       0.606  16.969  18.758  0.00  0.00    +0.000 C 
ATOM     25  C   UNL     1       2.418  16.414  20.372  0.00  0.00    +0.000 C 
ATOM     26  C   UNL     1       2.951  16.846  17.955  0.00  0.00    +0.000 C 
ENDBRANCH  20  23
ENDBRANCH  12  17
BRANCH   1  27
ATOM     27  C   UNL     1       4.520   5.749  16.734  0.00  0.00    +0.000 C 
BRANCH  27  28
ATOM     28  C   UNL     1       5.963   6.205  16.912  0.00  0.00    +0.000 C 
BRANCH  28  29
ATOM     29  C   UNL     1       6.948   5.062  16.670  0.00  0.00    +0.000 C 
BRANCH  29  30
ATOM     30  C   UNL     1       7.159   4.876  15.189  0.00  0.00    +0.000 C 
ATOM     31  O   UNL     1       7.815   5.627  14.482  0.00  0.00    +0.000 OA
BRANCH  30  32
ATOM     32  O   UNL     1       6.468   3.786  14.759  0.00  0.00    +0.000 OA
BRANCH  32  34
ATOM     33  C   UNL     1       6.217   3.336  12.431  0.00  0.00    +0.000 C 
ATOM     34  C   UNL     1       5.604   4.023  13.640  0.00  0.00    +0.000 C 
ENDBRANCH  32  34
ENDBRANCH  30  32
ENDBRANCH  29  30
ENDBRANCH  28  29
ENDBRANCH  27  28
ENDBRANCH   1  27
TORSDOF 8
ENDMDL
MODEL 3
REMARK VINA RESULT:      -7.9      0.965      1.675
REMARK  Name = 
REMARK  12 active torsions:
REMARK  status: ('A' for Active; 'I' for Inactive)
REMARK    1  A    between atoms: C_1  and  C_2
REMARK    2  A    between atoms: C_2  and  O_3
REMARK    3  A    between atoms: O_3  and  C_4
REMARK    4  A    between atoms: C_4  and  C_6
REMARK    5  A    between atoms: C_6  and  C_7
REMARK    6  A    between atoms: C_7  and  C_8
REMARK    7  A    between atoms: C_8  and  N_9
REMARK    8  A    between atoms: N_20  and  C_21
REMARK    9  A    between atoms: C_24  and  C_25
REMARK   10  A    between atoms: C_25  and  C_26
REMARK   11  A    between atoms: C_25  and  C_27
REMARK   12  A    between atoms: C_25  and  C_28
REMARK                            x       y       z     vdW  Elec       q    Type
REMARK                         _______ _______ _______ _____ _____    ______ ____
ROOT
ATOM      1  N   UNL     1       3.855   5.951  17.956  0.00  0.00    +0.000 N 
ATOM      2  C   UNL     1       4.047   4.779  18.666  0.00  0.00    +0.000 A 
ATOM      3  O   UNL     1       4.774   3.854  18.341  0.00  0.00    +0.000 OA
ATOM      4  O   UNL     1       3.287   4.780  19.841  0.00  0.00    +0.000 OA
ATOM      5  C   UNL     1       2.644   6.005  19.782  0.00  0.00    +0.000 A 
ATOM      6  C   UNL     1       1.797   6.499  20.748  0.00  0.00    +0.000 A 
ATOM      7  C   UNL     1       1.251   7.760  20.582  0.00  0.00    +0.000 A 
ATOM      8  N   UNL     1       0.481   8.210  21.570  0.00  0.00    +0.000 NA
ATOM      9  C   UNL     1      -0.008   9.441  21.436  0.00  0.00    +0.000 A 
ATOM     10  N   UNL     1       0.199  10.251  20.400  0.00  0.00    +0.000 NA
ATOM     11  C   UNL     1       0.989   9.806  19.401  0.00  0.00    +0.000 A 
ATOM     12  N   UNL     1       1.259  10.709  18.331  0.00  0.00    +0.000 N 
ATOM     13  C   UNL     1       1.554   8.517  19.418  0.00  0.00    +0.000 A 
ATOM     14  C   UNL     1       2.419   7.976  18.424  0.00  0.00    +0.000 A 
ATOM     15  C   UNL     1       2.957   6.728  18.653  0.00  0.00    +0.000 A 
ATOM     16  H   UNL     1       0.748  10.409  17.507  0.00  0.00    +0.000 HD
ENDROOT
BRANCH  12  17
ATOM     17  C   UNL     1       1.222  12.119  18.509  0.00  0.00    +0.000 A 
ATOM     18  C   UNL     1      -0.007  12.781  18.580  0.00  0.00    +0.000 A 
ATOM     19  C   UNL     1      -0.087  14.171  18.676  0.00  0.00    +0.000 A 
ATOM     20  C   UNL     1       1.063  14.965  18.734  0.00  0.00    +0.000 A 
ATOM     21  C   UNL     1       2.300  14.288  18.768  0.00  0.00    +0.000 A 
ATOM     22  C   UNL     1       2.379  12.884  18.667  0.00  0.00    +0.000 A 
BRANCH  20  23
ATOM     23  C   UNL     1       0.980  16.503  18.737  0.00  0.00    +0.000 C 
ATOM     24  C   UNL     1       1.103  17.116  20.154  0.00  0.00    +0.000 C 
ATOM     25  C   UNL     1       2.111  17.100  17.877  0.00  0.00    +0.000 C 
ATOM     26  C   UNL     1      -0.381  16.963  18.171  0.00  0.00    +0.000 C 
ENDBRANCH  20  23
ENDBRANCH  12  17
BRANCH   1  27
ATOM     27  C   UNL     1       4.490   6.262  16.703  0.00  0.00    +0.000 C 
BRANCH  27  28
ATOM     28  C   UNL     1       4.911   5.000  15.959  0.00  0.00    +0.000 C 
BRANCH  28  29
ATOM     29  C   UNL     1       6.282   5.163  15.306  0.00  0.00    +0.000 C 
BRANCH  29  30
ATOM     30  C   UNL     1       7.337   5.326  16.371  0.00  0.00    +0.000 C 
ATOM     31  O   UNL     1       7.785   4.413  17.050  0.00  0.00    +0.000 OA
BRANCH  30  32
ATOM     32  O   UNL     1       7.668   6.640  16.494  0.00  0.00    +0.000 OA
BRANCH  32  34
ATOM     33  C   UNL     1       8.047   8.609  17.784  0.00  0.00    +0.000 C 
ATOM     34  C   UNL     1       7.660   7.141  17.837  0.00  0.00    +0.000 C 
ENDBRANCH  32  34
ENDBRANCH  30  32
ENDBRANCH  29  30
ENDBRANCH  28  29
ENDBRANCH  27  28
ENDBRANCH   1  27
TORSDOF 8
ENDMDL
MODEL 4
REMARK VINA RESULT:      -7.8      0.974      1.432
REMARK  Name = 
REMARK  12 active torsions:
REMARK  status: ('A' for Active; 'I' for Inactive)
REMARK    1  A    between atoms: C_1  and  C_2
REMARK    2  A    between atoms: C_2  and  O_3
REMARK    3  A    between atoms: O_3  and  C_4
REMARK    4  A    between atoms: C_4  and  C_6
REMARK    5  A    between atoms: C_6  and  C_7
REMARK    6  A    between atoms: C_7  and  C_8
REMARK    7  A    between atoms: C_8  and  N_9
REMARK    8  A    between atoms: N_20  and  C_21
REMARK    9  A    between atoms: C_24  and  C_25
REMARK   10  A    between atoms: C_25  and  C_26
REMARK   11  A    between atoms: C_25  and  C_27
REMARK   12  A    between atoms: C_25  and  C_28
REMARK                            x       y       z     vdW  Elec       q    Type
REMARK                         _______ _______ _______ _____ _____    ______ ____
ROOT
ATOM      1  N   UNL     1       3.834   5.625  17.894  0.00  0.00    +0.000 N 
ATOM      2  C   UNL     1       3.903   4.458  18.634  0.00  0.00    +0.000 A 
ATOM      3  O   UNL     1       4.532   3.456  18.336  0.00  0.00    +0.000 OA
ATOM      4  O   UNL     1       3.145   4.567  19.805  0.00  0.00    +0.000 OA
ATOM      5  C   UNL     1       2.631   5.850  19.712  0.00  0.00    +0.000 A 
ATOM      6  C   UNL     1       1.838   6.453  20.661  0.00  0.00    +0.000 A 
ATOM      7  C   UNL     1       1.424   7.759  20.461  0.00  0.00    +0.000 A 
ATOM      8  N   UNL     1       0.703   8.310  21.433  0.00  0.00    +0.000 NA
ATOM      9  C   UNL     1       0.343   9.581  21.266  0.00  0.00    +0.000 A 
ATOM     10  N   UNL     1       0.634  10.339  20.210  0.00  0.00    +0.000 NA
ATOM     11  C   UNL     1       1.376   9.790  19.227  0.00  0.00    +0.000 A 
ATOM     12  N   UNL     1       1.739  10.633  18.136  0.00  0.00    +0.000 N 
ATOM     13  C   UNL     1       1.805   8.451  19.279  0.00  0.00    +0.000 A 
ATOM     14  C   UNL     1       2.613   7.798  18.303  0.00  0.00    +0.000 A 
ATOM     15  C   UNL     1       3.019   6.508  18.566  0.00  0.00    +0.000 A 
ATOM     16  H   UNL     1       1.201  10.365  17.317  0.00  0.00    +0.000 HD
ENDROOT
BRANCH  12  17
ATOM     17  C   UNL     1       1.846  12.042  18.277  0.00  0.00    +0.000 A 
ATOM     18  C   UNL     1       0.735  12.790  18.676  0.00  0.00    +0.000 A 
ATOM     19  C   UNL     1       0.777  14.183  18.752  0.00  0.00    +0.000 A 
ATOM     20  C   UNL     1       1.946  14.894  18.460  0.00  0.00    +0.000 A 
ATOM     21  C   UNL     1       3.093  14.132  18.159  0.00  0.00    +0.000 A 
ATOM     22  C   UNL     1       3.048  12.725  18.079  0.00  0.00    +0.000 A 
BRANCH  20  23
ATOM     23  C   UNL     1       1.968  16.434  18.443  0.00  0.00    +0.000 C 
ATOM     24  C   UNL     1       2.529  17.049  19.749  0.00  0.00    +0.000 C 
ATOM     25  C   UNL     1       2.842  16.943  17.282  0.00  0.00    +0.000 C 
ATOM     26  C   UNL     1       0.534  16.985  18.274  0.00  0.00    +0.000 C 
ENDBRANCH  20  23
ENDBRANCH  12  17
BRANCH   1  27
ATOM     27  C   UNL     1       4.500   5.837  16.636  0.00  0.00    +0.000 C 
BRANCH  27  28
ATOM     28  C   UNL     1       6.016   5.834  16.796  0.00  0.00    +0.000 C 
BRANCH  28  29
ATOM     29  C   UNL     1       6.645   4.590  16.171  0.00  0.00    +0.000 C 
BRANCH  29  30
ATOM     30  C   UNL     1       6.949   4.848  14.717  0.00  0.00    +0.000 C 
ATOM     31  O   UNL     1       7.844   5.577  14.313  0.00  0.00    +0.000 OA
BRANCH  30  32
ATOM     32  O   UNL     1       6.047   4.196  13.935  0.00  0.00    +0.000 OA
BRANCH  32  34
ATOM     33  C   UNL     1       5.674   2.808  12.032  0.00  0.00    +0.000 C 
ATOM     34  C   UNL     1       6.464   3.984  12.580  0.00  0.00    +0.000 C 
ENDBRANCH  32  34
ENDBRANCH  30  32
ENDBRANCH  29  30
ENDBRANCH  28  29
ENDBRANCH  27  28
ENDBRANCH   1  27
TORSDOF 8
ENDMDL
MODEL 5
REMARK VINA RESULT:      -7.8      1.256      2.040
REMARK  Name = 
REMARK  12 active torsions:
REMARK  status: ('A' for Active; 'I' for Inactive)
REMARK    1  A    between atoms: C_1  and  C_2
REMARK    2  A    between atoms: C_2  and  O_3
REMARK    3  A    between atoms: O_3  and  C_4
REMARK    4  A    between atoms: C_4  and  C_6
REMARK    5  A    between atoms: C_6  and  C_7
REMARK    6  A    between atoms: C_7  and  C_8
REMARK    7  A    between atoms: C_8  and  N_9
REMARK    8  A    between atoms: N_20  and  C_21
REMARK    9  A    between atoms: C_24  and  C_25
REMARK   10  A    between atoms: C_25  and  C_26
REMARK   11  A    between atoms: C_25  and  C_27
REMARK   12  A    between atoms: C_25  and  C_28
REMARK                            x       y       z     vdW  Elec       q    Type
REMARK                         _______ _______ _______ _____ _____    ______ ____
ROOT
ATOM      1  N   UNL     1       3.584   5.756  18.377  0.00  0.00    +0.000 N 
ATOM      2  C   UNL     1       3.644   4.629  19.178  0.00  0.00    +0.000 A 
ATOM      3  O   UNL     1       4.293   3.621  18.951  0.00  0.00    +0.000 OA
ATOM      4  O   UNL     1       2.849   4.788  20.319  0.00  0.00    +0.000 OA
ATOM      5  C   UNL     1       2.324   6.057  20.145  0.00  0.00    +0.000 A 
ATOM      6  C   UNL     1       1.495   6.697  21.038  0.00  0.00    +0.000 A 
ATOM      7  C   UNL     1       1.072   7.986  20.759  0.00  0.00    +0.000 A 
ATOM      8  N   UNL     1       0.316   8.577  21.679  0.00  0.00    +0.000 NA
ATOM      9  C   UNL     1      -0.053   9.833  21.436  0.00  0.00    +0.000 A 
ATOM     10  N   UNL     1       0.260  10.539  20.352  0.00  0.00    +0.000 NA
ATOM     11  C   UNL     1       1.038   9.950  19.421  0.00  0.00    +0.000 A 
ATOM     12  N   UNL     1       1.425  10.741  18.299  0.00  0.00    +0.000 N 
ATOM     13  C   UNL     1       1.482   8.621  19.555  0.00  0.00    +0.000 A 
ATOM     14  C   UNL     1       2.326   7.930  18.638  0.00  0.00    +0.000 A 
ATOM     15  C   UNL     1       2.739   6.661  18.979  0.00  0.00    +0.000 A 
ATOM     16  H   UNL     1       0.915  10.425  17.480  0.00  0.00    +0.000 HD
ENDROOT
BRANCH  12  17
ATOM     17  C   UNL     1       1.512  12.157  18.371  0.00  0.00    +0.000 A 
ATOM     18  C   UNL     1       2.741  12.792  18.168  0.00  0.00    +0.000 A 
ATOM     19  C   UNL     1       2.885  14.173  18.306  0.00  0.00    +0.000 A 
ATOM     20  C   UNL     1       1.795  14.992  18.626  0.00  0.00    +0.000 A 
ATOM     21  C   UNL     1       0.538  14.362  18.727  0.00  0.00    +0.000 A 
ATOM     22  C   UNL     1       0.395  12.966  18.590  0.00  0.00    +0.000 A 
BRANCH  20  23
ATOM     23  C   UNL     1       1.970  16.501  18.879  0.00  0.00    +0.000 C 
ATOM     24  C   UNL     1       2.159  17.318  17.577  0.00  0.00    +0.000 C 
ATOM     25  C   UNL     1       0.733  17.067  19.602  0.00  0.00    +0.000 C 
ATOM     26  C   UNL     1       3.222  16.754  19.747  0.00  0.00    +0.000 C 
ENDBRANCH  20  23
ENDBRANCH  12  17
BRANCH   1  27
ATOM     27  C   UNL     1       4.285   5.912  17.131  0.00  0.00    +0.000 C 
BRANCH  27  28
ATOM     28  C   UNL     1       5.395   6.951  17.237  0.00  0.00    +0.000 C 
BRANCH  28  29
ATOM     29  C   UNL     1       6.777   6.312  17.116  0.00  0.00    +0.000 C 
BRANCH  29  30
ATOM     30  C   UNL     1       7.420   6.226  18.477  0.00  0.00    +0.000 C 
ATOM     31  O   UNL     1       7.134   5.397  19.329  0.00  0.00    +0.000 OA
BRANCH  30  32
ATOM     32  O   UNL     1       8.317   7.238  18.628  0.00  0.00    +0.000 OA
BRANCH  32  34
ATOM     33  C   UNL     1       8.660   9.593  18.494  0.00  0.00    +0.000 C 
ATOM     34  C   UNL     1       8.092   8.375  17.785  0.00  0.00    +0.000 C 
ENDBRANCH  32  34
ENDBRANCH  30  32
ENDBRANCH  29  30
ENDBRANCH  28  29
ENDBRANCH  27  28
ENDBRANCH   1  27
TORSDOF 8
ENDMDL
MODEL 6
REMARK VINA RESULT:      -7.6      0.895      1.252
REMARK  Name = 
REMARK  12 active torsions:
REMARK  status: ('A' for Active; 'I' for Inactive)
REMARK    1  A    between atoms: C_1  and  C_2
REMARK    2  A    between atoms: C_2  and  O_3
REMARK    3  A    between atoms: O_3  and  C_4
REMARK    4  A    between atoms: C_4  and  C_6
REMARK    5  A    between atoms: C_6  and  C_7
REMARK    6  A    between atoms: C_7  and  C_8
REMARK    7  A    between atoms: C_8  and  N_9
REMARK    8  A    between atoms: N_20  and  C_21
REMARK    9  A    between atoms: C_24  and  C_25
REMARK   10  A    between atoms: C_25  and  C_26
REMARK   11  A    between atoms: C_25  and  C_27
REMARK   12  A    between atoms: C_25  and  C_28
REMARK                            x       y       z     vdW  Elec       q    Type
REMARK                         _______ _______ _______ _____ _____    ______ ____
ROOT
ATOM      1  N   UNL     1       3.925   5.883  17.838  0.00  0.00    +0.000 N 
ATOM      2  C   UNL     1       4.067   4.702  18.546  0.00  0.00    +0.000 A 
ATOM      3  O   UNL     1       4.769   3.756  18.229  0.00  0.00    +0.000 OA
ATOM      4  O   UNL     1       3.289   4.723  19.708  0.00  0.00    +0.000 OA
ATOM      5  C   UNL     1       2.687   5.969  19.644  0.00  0.00    +0.000 A 
ATOM      6  C   UNL     1       1.841   6.486  20.598  0.00  0.00    +0.000 A 
ATOM      7  C   UNL     1       1.338   7.765  20.429  0.00  0.00    +0.000 A 
ATOM      8  N   UNL     1       0.568   8.236  21.406  0.00  0.00    +0.000 NA
ATOM      9  C   UNL     1       0.121   9.482  21.270  0.00  0.00    +0.000 A 
ATOM     10  N   UNL     1       0.370  10.289  20.241  0.00  0.00    +0.000 NA
ATOM     11  C   UNL     1       1.162   9.822  19.253  0.00  0.00    +0.000 A 
ATOM     12  N   UNL     1       1.478  10.721  18.192  0.00  0.00    +0.000 N 
ATOM     13  C   UNL     1       1.685   8.516  19.273  0.00  0.00    +0.000 A 
ATOM     14  C   UNL     1       2.548   7.951  18.291  0.00  0.00    +0.000 A 
ATOM     15  C   UNL     1       3.042   6.685  18.523  0.00  0.00    +0.000 A 
ATOM     16  H   UNL     1       0.971  10.440  17.358  0.00  0.00    +0.000 HD
ENDROOT
BRANCH  12  17
ATOM     17  C   UNL     1       1.484  12.130  18.374  0.00  0.00    +0.000 A 
ATOM     18  C   UNL     1       0.277  12.817  18.538  0.00  0.00    +0.000 A 
ATOM     19  C   UNL     1       0.233  14.208  18.642  0.00  0.00    +0.000 A 
ATOM     20  C   UNL     1       1.401  14.978  18.618  0.00  0.00    +0.000 A 
ATOM     21  C   UNL     1       2.623  14.275  18.558  0.00  0.00    +0.000 A 
ATOM     22  C   UNL     1       2.664  12.870  18.449  0.00  0.00    +0.000 A 
BRANCH  20  23
ATOM     23  C   UNL     1       1.351  16.517  18.630  0.00  0.00    +0.000 C 
ATOM     24  C   UNL     1       1.648  17.125  20.024  0.00  0.00    +0.000 C 
ATOM     25  C   UNL     1       2.387  17.093  17.647  0.00  0.00    +0.000 C 
ATOM     26  C   UNL     1      -0.057  17.006  18.224  0.00  0.00    +0.000 C 
ENDBRANCH  20  23
ENDBRANCH  12  17
BRANCH   1  27
ATOM     27  C   UNL     1       4.590   6.177  16.596  0.00  0.00    +0.000 C 
BRANCH  27  28
ATOM     28  C   UNL     1       5.993   6.728  16.827  0.00  0.00    +0.000 C 
BRANCH  28  29
ATOM     29  C   UNL     1       7.039   5.615  16.835  0.00  0.00    +0.000 C 
BRANCH  29  30
ATOM     30  C   UNL     1       6.967   4.839  15.544  0.00  0.00    +0.000 C 
ATOM     31  O   UNL     1       6.363   3.786  15.400  0.00  0.00    +0.000 OA
BRANCH  30  32
ATOM     32  O   UNL     1       7.716   5.457  14.592  0.00  0.00    +0.000 OA
BRANCH  32  34
ATOM     33  C   UNL     1       8.089   5.931  12.285  0.00  0.00    +0.000 C 
ATOM     34  C   UNL     1       7.619   4.885  13.282  0.00  0.00    +0.000 C 
ENDBRANCH  32  34
ENDBRANCH  30  32
ENDBRANCH  29  30
ENDBRANCH  28  29
ENDBRANCH  27  28
ENDBRANCH   1  27
TORSDOF 8
ENDMDL
MODEL 7
REMARK VINA RESULT:      -7.6      0.802      1.445
REMARK  Name = 
REMARK  12 active torsions:
REMARK  status: ('A' for Active; 'I' for Inactive)
REMARK    1  A    between atoms: C_1  and  C_2
REMARK    2  A    between atoms: C_2  and  O_3
REMARK    3  A    between atoms: O_3  and  C_4
REMARK    4  A    between atoms: C_4  and  C_6
REMARK    5  A    between atoms: C_6  and  C_7
REMARK    6  A    between atoms: C_7  and  C_8
REMARK    7  A    between atoms: C_8  and  N_9
REMARK    8  A    between atoms: N_20  and  C_21
REMARK    9  A    between atoms: C_24  and  C_25
REMARK   10  A    between atoms: C_25  and  C_26
REMARK   11  A    between atoms: C_25  and  C_27
REMARK   12  A    between atoms: C_25  and  C_28
REMARK                            x       y       z     vdW  Elec       q    Type
REMARK                         _______ _______ _______ _____ _____    ______ ____
ROOT
ATOM      1  N   UNL     1       2.980   6.066  18.735  0.00  0.00    +0.000 N 
ATOM      2  C   UNL     1       3.042   4.973  19.581  0.00  0.00    +0.000 A 
ATOM      3  O   UNL     1       3.631   3.927  19.359  0.00  0.00    +0.000 OA
ATOM      4  O   UNL     1       2.330   5.216  20.760  0.00  0.00    +0.000 OA
ATOM      5  C   UNL     1       1.850   6.499  20.562  0.00  0.00    +0.000 A 
ATOM      6  C   UNL     1       1.109   7.214  21.475  0.00  0.00    +0.000 A 
ATOM      7  C   UNL     1       0.725   8.508  21.165  0.00  0.00    +0.000 A 
ATOM      8  N   UNL     1       0.056   9.172  22.103  0.00  0.00    +0.000 NA
ATOM      9  C   UNL     1      -0.274  10.431  21.827  0.00  0.00    +0.000 A 
ATOM     10  N   UNL     1       0.000  11.076  20.695  0.00  0.00    +0.000 NA
ATOM     11  C   UNL     1       0.691  10.413  19.744  0.00  0.00    +0.000 A 
ATOM     12  N   UNL     1       1.038  11.138  18.566  0.00  0.00    +0.000 N 
ATOM     13  C   UNL     1       1.084   9.072  19.910  0.00  0.00    +0.000 A 
ATOM     14  C   UNL     1       1.836   8.305  18.975  0.00  0.00    +0.000 A 
ATOM     15  C   UNL     1       2.215   7.033  19.347  0.00  0.00    +0.000 A 
ATOM     16  H   UNL     1       0.464  10.811  17.796  0.00  0.00    +0.000 HD
ENDROOT
BRANCH  12  17
ATOM     17  C   UNL     1       1.191  12.550  18.569  0.00  0.00    +0.000 A 
ATOM     18  C   UNL     1       2.470  13.114  18.561  0.00  0.00    +0.000 A 
ATOM     19  C   UNL     1       2.665  14.493  18.641  0.00  0.00    +0.000 A 
ATOM     20  C   UNL     1       1.584  15.380  18.702  0.00  0.00    +0.000 A 
ATOM     21  C   UNL     1       0.295  14.815  18.605  0.00  0.00    +0.000 A 
ATOM     22  C   UNL     1       0.101  13.421  18.528  0.00  0.00    +0.000 A 
BRANCH  20  23
ATOM     23  C   UNL     1       1.794  16.893  18.893  0.00  0.00    +0.000 C 
ATOM     24  C   UNL     1       3.126  17.238  19.604  0.00  0.00    +0.000 C 
ATOM     25  C   UNL     1       1.803  17.607  17.528  0.00  0.00    +0.000 C 
ATOM     26  C   UNL     1       0.661  17.482  19.763  0.00  0.00    +0.000 C 
ENDBRANCH  20  23
ENDBRANCH  12  17
BRANCH   1  27
ATOM     27  C   UNL     1       3.605   6.136  17.441  0.00  0.00    +0.000 C 
BRANCH  27  28
ATOM     28  C   UNL     1       5.045   6.627  17.540  0.00  0.00    +0.000 C 
BRANCH  28  29
ATOM     29  C   UNL     1       6.041   5.520  17.201  0.00  0.00    +0.000 C 
BRANCH  29  30
ATOM     30  C   UNL     1       7.189   6.091  16.409  0.00  0.00    +0.000 C 
ATOM     31  O   UNL     1       7.781   7.124  16.689  0.00  0.00    +0.000 OA
BRANCH  30  32
ATOM     32  O   UNL     1       7.424   5.318  15.314  0.00  0.00    +0.000 OA
BRANCH  32  34
ATOM     33  C   UNL     1       6.203   3.968  13.774  0.00  0.00    +0.000 C 
ATOM     34  C   UNL     1       6.618   4.136  15.227  0.00  0.00    +0.000 C 
ENDBRANCH  32  34
ENDBRANCH  30  32
ENDBRANCH  29  30
ENDBRANCH  28  29
ENDBRANCH  27  28
ENDBRANCH   1  27
TORSDOF 8
ENDMDL
MODEL 8
REMARK VINA RESULT:      -7.6      1.363      2.037
REMARK  Name = 
REMARK  12 active torsions:
REMARK  status: ('A' for Active; 'I' for Inactive)
REMARK    1  A    between atoms: C_1  and  C_2
REMARK    2  A    between atoms: C_2  and  O_3
REMARK    3  A    between atoms: O_3  and  C_4
REMARK    4  A    between atoms: C_4  and  C_6
REMARK    5  A    between atoms: C_6  and  C_7
REMARK    6  A    between atoms: C_7  and  C_8
REMARK    7  A    between atoms: C_8  and  N_9
REMARK    8  A    between atoms: N_20  and  C_21
REMARK    9  A    between atoms: C_24  and  C_25
REMARK   10  A    between atoms: C_25  and  C_26
REMARK   11  A    between atoms: C_25  and  C_27
REMARK   12  A    between atoms: C_25  and  C_28
REMARK                            x       y       z     vdW  Elec       q    Type
REMARK                         _______ _______ _______ _____ _____    ______ ____
ROOT
ATOM      1  N   UNL     1       4.837   6.025  18.060  0.00  0.00    +0.000 N 
ATOM      2  C   UNL     1       5.009   4.838  18.749  0.00  0.00    +0.000 A 
ATOM      3  O   UNL     1       5.878   4.006  18.542  0.00  0.00    +0.000 OA
ATOM      4  O   UNL     1       4.039   4.698  19.748  0.00  0.00    +0.000 OA
ATOM      5  C   UNL     1       3.295   5.858  19.608  0.00  0.00    +0.000 A 
ATOM      6  C   UNL     1       2.229   6.212  20.403  0.00  0.00    +0.000 A 
ATOM      7  C   UNL     1       1.596   7.423  20.179  0.00  0.00    +0.000 A 
ATOM      8  N   UNL     1       0.606   7.739  21.009  0.00  0.00    +0.000 NA
ATOM      9  C   UNL     1       0.026   8.923  20.827  0.00  0.00    +0.000 A 
ATOM     10  N   UNL     1       0.344   9.808  19.884  0.00  0.00    +0.000 NA
ATOM     11  C   UNL     1       1.356   9.499  19.047  0.00  0.00    +0.000 A 
ATOM     12  N   UNL     1       1.732  10.484  18.088  0.00  0.00    +0.000 N 
ATOM     13  C   UNL     1       2.039   8.271  19.128  0.00  0.00    +0.000 A 
ATOM     14  C   UNL     1       3.133   7.873  18.307  0.00  0.00    +0.000 A 
ATOM     15  C   UNL     1       3.744   6.671  18.592  0.00  0.00    +0.000 A 
ATOM     16  H   UNL     1       1.426  10.184  17.167  0.00  0.00    +0.000 HD
ENDROOT
BRANCH  12  17
ATOM     17  C   UNL     1       1.514  11.870  18.307  0.00  0.00    +0.000 A 
ATOM     18  C   UNL     1       2.597  12.754  18.315  0.00  0.00    +0.000 A 
ATOM     19  C   UNL     1       2.434  14.110  18.603  0.00  0.00    +0.000 A 
ATOM     20  C   UNL     1       1.172  14.654  18.868  0.00  0.00    +0.000 A 
ATOM     21  C   UNL     1       0.070  13.781  18.756  0.00  0.00    +0.000 A 
ATOM     22  C   UNL     1       0.237  12.410  18.469  0.00  0.00    +0.000 A 
BRANCH  20  23
ATOM     23  C   UNL     1       1.002  16.126  19.286  0.00  0.00    +0.000 C 
ATOM     24  C   UNL     1       1.776  16.486  20.578  0.00  0.00    +0.000 C 
ATOM     25  C   UNL     1       1.509  17.060  18.170  0.00  0.00    +0.000 C 
ATOM     26  C   UNL     1      -0.487  16.432  19.561  0.00  0.00    +0.000 C 
ENDBRANCH  20  23
ENDBRANCH  12  17
BRANCH   1  27
ATOM     27  C   UNL     1       5.668   6.466  16.971  0.00  0.00    +0.000 C 
BRANCH  27  28
ATOM     28  C   UNL     1       5.067   6.096  15.620  0.00  0.00    +0.000 C 
BRANCH  28  29
ATOM     29  C   UNL     1       5.312   4.628  15.279  0.00  0.00    +0.000 C 
BRANCH  29  30
ATOM     30  C   UNL     1       6.541   4.503  14.414  0.00  0.00    +0.000 C 
ATOM     31  O   UNL     1       7.439   5.331  14.360  0.00  0.00    +0.000 OA
BRANCH  30  32
ATOM     32  O   UNL     1       6.467   3.366  13.671  0.00  0.00    +0.000 OA
BRANCH  32  34
ATOM     33  C   UNL     1       4.930   3.238  11.852  0.00  0.00    +0.000 C 
ATOM     34  C   UNL     1       6.355   3.576  12.257  0.00  0.00    +0.000 C 
ENDBRANCH  32  34
ENDBRANCH  30  32
ENDBRANCH  29  30
ENDBRANCH  28  29
ENDBRANCH  27  28
ENDBRANCH   1  27
TORSDOF 8
ENDMDL
MODEL 9
REMARK VINA RESULT:      -7.5      0.951      1.751
REMARK  Name = 
REMARK  12 active torsions:
REMARK  status: ('A' for Active; 'I' for Inactive)
REMARK    1  A    between atoms: C_1  and  C_2
REMARK    2  A    between atoms: C_2  and  O_3
REMARK    3  A    between atoms: O_3  and  C_4
REMARK    4  A    between atoms: C_4  and  C_6
REMARK    5  A    between atoms: C_6  and  C_7
REMARK    6  A    between atoms: C_7  and  C_8
REMARK    7  A    between atoms: C_8  and  N_9
REMARK    8  A    between atoms: N_20  and  C_21
REMARK    9  A    between atoms: C_24  and  C_25
REMARK   10  A    between atoms: C_25  and  C_26
REMARK   11  A    between atoms: C_25  and  C_27
REMARK   12  A    between atoms: C_25  and  C_28
REMARK                            x       y       z     vdW  Elec       q    Type
REMARK                         _______ _______ _______ _____ _____    ______ ____
ROOT
ATOM      1  N   UNL     1       3.182   6.397  18.212  0.00  0.00    +0.000 N 
ATOM      2  C   UNL     1       3.386   5.271  18.990  0.00  0.00    +0.000 A 
ATOM      3  O   UNL     1       4.026   4.283  18.669  0.00  0.00    +0.000 OA
ATOM      4  O   UNL     1       2.752   5.404  20.231  0.00  0.00    +0.000 OA
ATOM      5  C   UNL     1       2.171   6.657  20.139  0.00  0.00    +0.000 A 
ATOM      6  C   UNL     1       1.456   7.270  21.142  0.00  0.00    +0.000 A 
ATOM      7  C   UNL     1       0.961   8.546  20.932  0.00  0.00    +0.000 A 
ATOM      8  N   UNL     1       0.322   9.112  21.953  0.00  0.00    +0.000 NA
ATOM      9  C   UNL     1      -0.114  10.357  21.771  0.00  0.00    +0.000 A 
ATOM     10  N   UNL     1       0.026  11.075  20.659  0.00  0.00    +0.000 NA
ATOM     11  C   UNL     1       0.684  10.512  19.625  0.00  0.00    +0.000 A 
ATOM     12  N   UNL     1       0.888  11.316  18.465  0.00  0.00    +0.000 N 
ATOM     13  C   UNL     1       1.181   9.196  19.687  0.00  0.00    +0.000 A 
ATOM     14  C   UNL     1       1.909   8.533  18.658  0.00  0.00    +0.000 A 
ATOM     15  C   UNL     1       2.403   7.275  18.931  0.00  0.00    +0.000 A 
ATOM     16  H   UNL     1       0.280  10.987  17.723  0.00  0.00    +0.000 HD
ENDROOT
BRANCH  12  17
ATOM     17  C   UNL     1       0.943  12.734  18.533  0.00  0.00    +0.000 A 
ATOM     18  C   UNL     1       2.178  13.381  18.641  0.00  0.00    +0.000 A 
ATOM     19  C   UNL     1       2.271  14.765  18.788  0.00  0.00    +0.000 A 
ATOM     20  C   UNL     1       1.130  15.575  18.805  0.00  0.00    +0.000 A 
ATOM     21  C   UNL     1      -0.107  14.932  18.592  0.00  0.00    +0.000 A 
ATOM     22  C   UNL     1      -0.199  13.532  18.447  0.00  0.00    +0.000 A 
BRANCH  20  23
ATOM     23  C   UNL     1       1.222  17.089  19.069  0.00  0.00    +0.000 C 
ATOM     24  C   UNL     1       1.173  17.937  17.774  0.00  0.00    +0.000 C 
ATOM     25  C   UNL     1       0.054  17.547  19.963  0.00  0.00    +0.000 C 
ATOM     26  C   UNL     1       2.556  17.427  19.770  0.00  0.00    +0.000 C 
ENDBRANCH  20  23
ENDBRANCH  12  17
BRANCH   1  27
ATOM     27  C   UNL     1       3.699   6.577  16.882  0.00  0.00    +0.000 C 
BRANCH  27  28
ATOM     28  C   UNL     1       5.207   6.799  16.890  0.00  0.00    +0.000 C 
BRANCH  28  29
ATOM     29  C   UNL     1       5.880   6.141  15.687  0.00  0.00    +0.000 C 
BRANCH  29  30
ATOM     30  C   UNL     1       6.493   4.827  16.101  0.00  0.00    +0.000 C 
ATOM     31  O   UNL     1       5.963   3.735  15.950  0.00  0.00    +0.000 OA
BRANCH  30  32
ATOM     32  O   UNL     1       7.688   5.048  16.711  0.00  0.00    +0.000 OA
BRANCH  32  34
ATOM     33  C   UNL     1       7.872   5.764  18.978  0.00  0.00    +0.000 C 
ATOM     34  C   UNL     1       7.778   4.560  18.056  0.00  0.00    +0.000 C 
ENDBRANCH  32  34
ENDBRANCH  30  32
ENDBRANCH  29  30
ENDBRANCH  28  29
ENDBRANCH  27  28
ENDBRANCH   1  27
TORSDOF 8
ENDMDL
