MODEL 1
REMARK VINA RESULT:      -7.3      0.000      0.000
REMARK  Name = 
REMARK  7 active torsions:
REMARK  status: ('A' for Active; 'I' for Inactive)
REMARK    1  A    between atoms: C_1  and  C_2
REMARK    2  A    between atoms: C_2  and  C_3
REMARK    3  A    between atoms: C_4  and  C_5
REMARK    4  A    between atoms: N_11  and  C_12
REMARK    5  A    between atoms: C_16  and  O_17
REMARK    6  A    between atoms: O_17  and  C_18
REMARK    7  A    between atoms: C_23  and  O_24
REMARK                            x       y       z     vdW  Elec       q    Type
REMARK                         _______ _______ _______ _____ _____    ______ ____
ROOT
ATOM      1  C   UNL     1      -0.554  11.216  22.194  0.00  0.00    +0.000 A 
ATOM      2  C   UNL     1      -0.431  11.318  20.823  0.00  0.00    +0.000 A 
ATOM      3  C   UNL     1      -1.057  12.414  20.012  0.00  0.00    +0.000 C 
ATOM      4  N   UNL     1       0.267  10.426  20.094  0.00  0.00    +0.000 NA
ATOM      5  C   UNL     1       0.818   9.360  20.704  0.00  0.00    +0.000 A 
ATOM      6  N   UNL     1       1.457   8.426  19.931  0.00  0.00    +0.000 N 
ATOM      7  C   UNL     1       2.063   7.251  20.562  0.00  0.00    +0.000 C 
ATOM      8  C   UNL     1       2.078   6.081  19.549  0.00  0.00    +0.000 C 
ATOM      9  N   UNL     1       2.740   6.508  18.302  0.00  0.00    +0.000 N 
ATOM     10  C   UNL     1       2.146   7.713  17.683  0.00  0.00    +0.000 C 
ATOM     11  C   UNL     1       2.122   8.875  18.703  0.00  0.00    +0.000 C 
ATOM     12  N   UNL     1       0.682   9.140  22.014  0.00  0.00    +0.000 NA
ATOM     13  C   UNL     1       0.012  10.070  22.705  0.00  0.00    +0.000 A 
ENDROOT
BRANCH   9  14
ATOM     14  C   UNL     1       3.568   5.665  17.586  0.00  0.00    +0.000 A 
ATOM     15  C   UNL     1       3.468   4.269  17.664  0.00  0.00    +0.000 A 
ATOM     16  C   UNL     1       4.372   3.435  17.002  0.00  0.00    +0.000 A 
ATOM     17  C   UNL     1       5.405   3.987  16.251  0.00  0.00    +0.000 A 
ATOM     18  C   UNL     1       5.532   5.369  16.147  0.00  0.00    +0.000 A 
ATOM     19  C   UNL     1       4.612   6.191  16.802  0.00  0.00    +0.000 A 
BRANCH  18  20
ATOM     20  O   UNL     1       6.603   5.794  15.407  0.00  0.00    +0.000 OA
ATOM     21  C   UNL     1       7.005   4.965  14.323  0.00  0.00    +0.000 C 
ENDBRANCH  18  20
ENDBRANCH   9  14
BRANCH   1  23
ATOM     22  C   UNL     1      -2.740  11.974  23.183  0.00  0.00    +0.000 C 
ATOM     23  C   UNL     1      -1.241  12.211  23.073  0.00  0.00    +0.000 C 
ENDBRANCH   1  23
BRANCH  13  24
ATOM     24  O   UNL     1      -0.081   9.769  24.026  0.00  0.00    +0.000 OA
ATOM     25  H   UNL     1       0.609   9.084  24.093  0.00  0.00    +0.000 HD
ENDBRANCH  13  24
TORSDOF 4
ENDMDL
MODEL 2
REMARK VINA RESULT:      -7.2      0.961      1.112
REMARK  Name = 
REMARK  7 active torsions:
REMARK  status: ('A' for Active; 'I' for Inactive)
REMARK    1  A    between atoms: C_1  and  C_2
REMARK    2  A    between atoms: C_2  and  C_3
REMARK    3  A    between atoms: C_4  and  C_5
REMARK    4  A    between atoms: N_11  and  C_12
REMARK    5  A    between atoms: C_16  and  O_17
REMARK    6  A    between atoms: O_17  and  C_18
REMARK    7  A    between atoms: C_23  and  O_24
REMARK                            x       y       z     vdW  Elec       q    Type
REMARK                         _______ _______ _______ _____ _____    ______ ____
ROOT
ATOM      1  C   UNL     1      -1.107  11.119  22.084  0.00  0.00    +0.000 A 
ATOM      2  C   UNL     1      -1.003  11.197  20.710  0.00  0.00    +0.000 A 
ATOM      3  C   UNL     1      -1.796  12.153  19.869  0.00  0.00    +0.000 C 
ATOM      4  N   UNL     1      -0.173  10.404  20.004  0.00  0.00    +0.000 NA
ATOM      5  C   UNL     1       0.540   9.458  20.644  0.00  0.00    +0.000 A 
ATOM      6  N   UNL     1       1.318   8.613  19.896  0.00  0.00    +0.000 N 
ATOM      7  C   UNL     1       2.104   7.570  20.559  0.00  0.00    +0.000 C 
ATOM      8  C   UNL     1       2.303   6.385  19.583  0.00  0.00    +0.000 C 
ATOM      9  N   UNL     1       2.888   6.873  18.319  0.00  0.00    +0.000 N 
ATOM     10  C   UNL     1       2.110   7.949  17.667  0.00  0.00    +0.000 C 
ATOM     11  C   UNL     1       1.903   9.123  18.651  0.00  0.00    +0.000 C 
ATOM     12  N   UNL     1       0.442   9.260  21.961  0.00  0.00    +0.000 NA
ATOM     13  C   UNL     1      -0.366  10.094  22.627  0.00  0.00    +0.000 A 
ENDROOT
BRANCH   9  14
ATOM     14  C   UNL     1       3.838   6.150  17.624  0.00  0.00    +0.000 A 
ATOM     15  C   UNL     1       3.623   4.828  17.212  0.00  0.00    +0.000 A 
ATOM     16  C   UNL     1       4.629   4.084  16.590  0.00  0.00    +0.000 A 
ATOM     17  C   UNL     1       5.881   4.653  16.375  0.00  0.00    +0.000 A 
ATOM     18  C   UNL     1       6.129   5.965  16.767  0.00  0.00    +0.000 A 
ATOM     19  C   UNL     1       5.108   6.701  17.374  0.00  0.00    +0.000 A 
BRANCH  18  20
ATOM     20  O   UNL     1       7.404   6.404  16.531  0.00  0.00    +0.000 OA
ATOM     21  C   UNL     1       7.860   7.505  17.309  0.00  0.00    +0.000 C 
ENDBRANCH  18  20
ENDBRANCH   9  14
BRANCH   1  23
ATOM     22  C   UNL     1      -1.255  13.335  23.265  0.00  0.00    +0.000 C 
ATOM     23  C   UNL     1      -1.943  12.019  22.936  0.00  0.00    +0.000 C 
ENDBRANCH   1  23
BRANCH  13  24
ATOM     24  O   UNL     1      -0.409   9.822  23.957  0.00  0.00    +0.000 OA
ATOM     25  H   UNL     1      -0.000   8.938  23.963  0.00  0.00    +0.000 HD
ENDBRANCH  13  24
TORSDOF 4
ENDMDL
MODEL 3
REMARK VINA RESULT:      -7.0      1.410      2.216
REMARK  Name = 
REMARK  7 active torsions:
REMARK  status: ('A' for Active; 'I' for Inactive)
REMARK    1  A    between atoms: C_1  and  C_2
REMARK    2  A    between atoms: C_2  and  C_3
REMARK    3  A    between atoms: C_4  and  C_5
REMARK    4  A    between atoms: N_11  and  C_12
REMARK    5  A    between atoms: C_16  and  O_17
REMARK    6  A    between atoms: O_17  and  C_18
REMARK    7  A    between atoms: C_23  and  O_24
REMARK                            x       y       z     vdW  Elec       q    Type
REMARK                         _______ _______ _______ _____ _____    ______ ____
ROOT
ATOM      1  C   UNL     1      -0.620  10.905  21.361  0.00  0.00    +0.000 A 
ATOM      2  C   UNL     1       0.020   9.836  21.953  0.00  0.00    +0.000 A 
ATOM      3  C   UNL     1      -0.072   9.516  23.416  0.00  0.00    +0.000 C 
ATOM      4  N   UNL     1       0.796   8.984  21.254  0.00  0.00    +0.000 NA
ATOM      5  C   UNL     1       1.009   9.209  19.943  0.00  0.00    +0.000 A 
ATOM      6  N   UNL     1       1.863   8.375  19.271  0.00  0.00    +0.000 N 
ATOM      7  C   UNL     1       2.122   8.593  17.846  0.00  0.00    +0.000 C 
ATOM      8  C   UNL     1       3.532   8.058  17.496  0.00  0.00    +0.000 C 
ATOM      9  N   UNL     1       3.652   6.651  17.925  0.00  0.00    +0.000 N 
ATOM     10  C   UNL     1       3.359   6.427  19.358  0.00  0.00    +0.000 C 
ATOM     11  C   UNL     1       1.956   6.976  19.704  0.00  0.00    +0.000 C 
ATOM     12  N   UNL     1       0.493  10.264  19.308  0.00  0.00    +0.000 NA
ATOM     13  C   UNL     1      -0.300  11.062  20.032  0.00  0.00    +0.000 A 
ENDROOT
BRANCH   9  14
ATOM     14  C   UNL     1       4.332   5.712  17.175  0.00  0.00    +0.000 A 
ATOM     15  C   UNL     1       4.029   4.345  17.228  0.00  0.00    +0.000 A 
ATOM     16  C   UNL     1       4.787   3.401  16.530  0.00  0.00    +0.000 A 
ATOM     17  C   UNL     1       5.876   3.812  15.767  0.00  0.00    +0.000 A 
ATOM     18  C   UNL     1       6.204   5.162  15.687  0.00  0.00    +0.000 A 
ATOM     19  C   UNL     1       5.427   6.096  16.378  0.00  0.00    +0.000 A 
BRANCH  18  20
ATOM     20  O   UNL     1       7.311   5.441  14.932  0.00  0.00    +0.000 OA
ATOM     21  C   UNL     1       7.328   4.934  13.603  0.00  0.00    +0.000 C 
ENDBRANCH  18  20
ENDBRANCH   9  14
BRANCH   1  23
ATOM     22  C   UNL     1      -0.860  13.054  22.648  0.00  0.00    +0.000 C 
ATOM     23  C   UNL     1      -1.558  11.839  22.058  0.00  0.00    +0.000 C 
ENDBRANCH   1  23
BRANCH  13  24
ATOM     24  O   UNL     1      -0.780  12.109  19.312  0.00  0.00    +0.000 OA
ATOM     25  H   UNL     1      -0.154  12.103  18.566  0.00  0.00    +0.000 HD
ENDBRANCH  13  24
TORSDOF 4
ENDMDL
MODEL 4
REMARK VINA RESULT:      -6.9      2.934      8.168
REMARK  Name = 
REMARK  7 active torsions:
REMARK  status: ('A' for Active; 'I' for Inactive)
REMARK    1  A    between atoms: C_1  and  C_2
REMARK    2  A    between atoms: C_2  and  C_3
REMARK    3  A    between atoms: C_4  and  C_5
REMARK    4  A    between atoms: N_11  and  C_12
REMARK    5  A    between atoms: C_16  and  O_17
REMARK    6  A    between atoms: O_17  and  C_18
REMARK    7  A    between atoms: C_23  and  O_24
REMARK                            x       y       z     vdW  Elec       q    Type
REMARK                         _______ _______ _______ _____ _____    ______ ____
ROOT
ATOM      1  C   UNL     1       3.606   3.735  19.512  0.00  0.00    +0.000 A 
ATOM      2  C   UNL     1       2.675   4.250  20.391  0.00  0.00    +0.000 A 
ATOM      3  C   UNL     1       2.053   3.459  21.503  0.00  0.00    +0.000 C 
ATOM      4  N   UNL     1       2.241   5.524  20.315  0.00  0.00    +0.000 NA
ATOM      5  C   UNL     1       2.678   6.312  19.314  0.00  0.00    +0.000 A 
ATOM      6  N   UNL     1       2.163   7.578  19.212  0.00  0.00    +0.000 N 
ATOM      7  C   UNL     1       2.613   8.461  18.133  0.00  0.00    +0.000 C 
ATOM      8  C   UNL     1       1.484   9.465  17.793  0.00  0.00    +0.000 C 
ATOM      9  N   UNL     1       1.060  10.172  19.017  0.00  0.00    +0.000 N 
ATOM     10  C   UNL     1       0.636   9.277  20.117  0.00  0.00    +0.000 C 
ATOM     11  C   UNL     1       1.762   8.269  20.443  0.00  0.00    +0.000 C 
ATOM     12  N   UNL     1       3.517   5.872  18.374  0.00  0.00    +0.000 NA
ATOM     13  C   UNL     1       3.951   4.612  18.510  0.00  0.00    +0.000 A 
ENDROOT
BRANCH   9  14
ATOM     14  C   UNL     1       0.726  11.512  19.010  0.00  0.00    +0.000 A 
ATOM     15  C   UNL     1      -0.603  11.955  19.022  0.00  0.00    +0.000 A 
ATOM     16  C   UNL     1      -0.921  13.312  18.924  0.00  0.00    +0.000 A 
ATOM     17  C   UNL     1       0.094  14.256  18.804  0.00  0.00    +0.000 A 
ATOM     18  C   UNL     1       1.426  13.853  18.794  0.00  0.00    +0.000 A 
ATOM     19  C   UNL     1       1.729  12.494  18.908  0.00  0.00    +0.000 A 
BRANCH  18  20
ATOM     20  O   UNL     1       2.333  14.867  18.641  0.00  0.00    +0.000 OA
ATOM     21  C   UNL     1       3.644  14.501  18.228  0.00  0.00    +0.000 C 
ENDBRANCH  18  20
ENDBRANCH   9  14
BRANCH   1  23
ATOM     22  C   UNL     1       3.550   1.385  18.613  0.00  0.00    +0.000 C 
ATOM     23  C   UNL     1       4.191   2.361  19.588  0.00  0.00    +0.000 C 
ENDBRANCH   1  23
BRANCH  13  24
ATOM     24  O   UNL     1       4.797   4.245  17.514  0.00  0.00    +0.000 OA
ATOM     25  H   UNL     1       5.363   5.036  17.471  0.00  0.00    +0.000 HD
ENDBRANCH  13  24
TORSDOF 4
ENDMDL
MODEL 5
REMARK VINA RESULT:      -6.8      1.167      1.922
REMARK  Name = 
REMARK  7 active torsions:
REMARK  status: ('A' for Active; 'I' for Inactive)
REMARK    1  A    between atoms: C_1  and  C_2
REMARK    2  A    between atoms: C_2  and  C_3
REMARK    3  A    between atoms: C_4  and  C_5
REMARK    4  A    between atoms: N_11  and  C_12
REMARK    5  A    between atoms: C_16  and  O_17
REMARK    6  A    between atoms: O_17  and  C_18
REMARK    7  A    between atoms: C_23  and  O_24
REMARK                            x       y       z     vdW  Elec       q    Type
REMARK                         _______ _______ _______ _____ _____    ______ ____
ROOT
ATOM      1  C   UNL     1      -1.109  11.546  21.900  0.00  0.00    +0.000 A 
ATOM      2  C   UNL     1      -0.907  11.630  20.537  0.00  0.00    +0.000 A 
ATOM      3  C   UNL     1      -1.552  12.663  19.662  0.00  0.00    +0.000 C 
ATOM      4  N   UNL     1      -0.105  10.774  19.875  0.00  0.00    +0.000 NA
ATOM      5  C   UNL     1       0.477   9.761  20.544  0.00  0.00    +0.000 A 
ATOM      6  N   UNL     1       1.225   8.858  19.835  0.00  0.00    +0.000 N 
ATOM      7  C   UNL     1       1.869   7.741  20.531  0.00  0.00    +0.000 C 
ATOM      8  C   UNL     1       2.027   6.554  19.550  0.00  0.00    +0.000 C 
ATOM      9  N   UNL     1       2.738   7.000  18.336  0.00  0.00    +0.000 N 
ATOM     10  C   UNL     1       2.104   8.150  17.652  0.00  0.00    +0.000 C 
ATOM     11  C   UNL     1       1.936   9.327  18.640  0.00  0.00    +0.000 C 
ATOM     12  N   UNL     1       0.273   9.558  21.848  0.00  0.00    +0.000 NA
ATOM     13  C   UNL     1      -0.501  10.453  22.473  0.00  0.00    +0.000 A 
ENDROOT
BRANCH   9  14
ATOM     14  C   UNL     1       3.664   6.203  17.694  0.00  0.00    +0.000 A 
ATOM     15  C   UNL     1       4.624   6.724  16.816  0.00  0.00    +0.000 A 
ATOM     16  C   UNL     1       5.493   5.891  16.107  0.00  0.00    +0.000 A 
ATOM     17  C   UNL     1       5.412   4.510  16.261  0.00  0.00    +0.000 A 
ATOM     18  C   UNL     1       4.474   3.958  17.128  0.00  0.00    +0.000 A 
ATOM     19  C   UNL     1       3.621   4.804  17.841  0.00  0.00    +0.000 A 
BRANCH  18  20
ATOM     20  O   UNL     1       4.469   2.589  17.173  0.00  0.00    +0.000 OA
ATOM     21  C   UNL     1       3.457   1.975  17.963  0.00  0.00    +0.000 C 
ENDBRANCH  18  20
ENDBRANCH   9  14
BRANCH   1  23
ATOM     22  C   UNL     1      -1.118  13.718  23.171  0.00  0.00    +0.000 C 
ATOM     23  C   UNL     1      -1.918  12.509  22.710  0.00  0.00    +0.000 C 
ENDBRANCH   1  23
BRANCH  13  24
ATOM     24  O   UNL     1      -0.658  10.173  23.792  0.00  0.00    +0.000 OA
ATOM     25  H   UNL     1      -0.320   9.260  23.813  0.00  0.00    +0.000 HD
ENDBRANCH  13  24
TORSDOF 4
ENDMDL
MODEL 6
REMARK VINA RESULT:      -6.8      1.785      9.011
REMARK  Name = 
REMARK  7 active torsions:
REMARK  status: ('A' for Active; 'I' for Inactive)
REMARK    1  A    between atoms: C_1  and  C_2
REMARK    2  A    between atoms: C_2  and  C_3
REMARK    3  A    between atoms: C_4  and  C_5
REMARK    4  A    between atoms: N_11  and  C_12
REMARK    5  A    between atoms: C_16  and  O_17
REMARK    6  A    between atoms: O_17  and  C_18
REMARK    7  A    between atoms: C_23  and  O_24
REMARK                            x       y       z     vdW  Elec       q    Type
REMARK                         _______ _______ _______ _____ _____    ______ ____
ROOT
ATOM      1  C   UNL     1       4.833   5.198  17.239  0.00  0.00    +0.000 A 
ATOM      2  C   UNL     1       4.100   4.868  18.360  0.00  0.00    +0.000 A 
ATOM      3  C   UNL     1       4.132   3.515  19.007  0.00  0.00    +0.000 C 
ATOM      4  N   UNL     1       3.280   5.747  18.969  0.00  0.00    +0.000 NA
ATOM      5  C   UNL     1       3.116   6.974  18.439  0.00  0.00    +0.000 A 
ATOM      6  N   UNL     1       2.218   7.823  19.031  0.00  0.00    +0.000 N 
ATOM      7  C   UNL     1       2.012   9.164  18.478  0.00  0.00    +0.000 C 
ATOM      8  C   UNL     1       0.575   9.635  18.809  0.00  0.00    +0.000 C 
ATOM      9  N   UNL     1       0.339   9.537  20.262  0.00  0.00    +0.000 N 
ATOM     10  C   UNL     1       0.579   8.189  20.825  0.00  0.00    +0.000 C 
ATOM     11  C   UNL     1       2.011   7.719  20.480  0.00  0.00    +0.000 C 
ATOM     12  N   UNL     1       3.725   7.351  17.312  0.00  0.00    +0.000 NA
ATOM     13  C   UNL     1       4.558   6.459  16.762  0.00  0.00    +0.000 A 
ENDROOT
BRANCH   9  14
ATOM     14  C   UNL     1      -0.391  10.484  20.952  0.00  0.00    +0.000 A 
ATOM     15  C   UNL     1      -0.480  10.493  22.350  0.00  0.00    +0.000 A 
ATOM     16  C   UNL     1      -1.296  11.405  23.024  0.00  0.00    +0.000 A 
ATOM     17  C   UNL     1      -2.050  12.327  22.304  0.00  0.00    +0.000 A 
ATOM     18  C   UNL     1      -1.982  12.351  20.914  0.00  0.00    +0.000 A 
ATOM     19  C   UNL     1      -1.151  11.442  20.255  0.00  0.00    +0.000 A 
BRANCH  18  20
ATOM     20  O   UNL     1      -2.790  13.280  20.315  0.00  0.00    +0.000 OA
ATOM     21  C   UNL     1      -4.193  13.054  20.386  0.00  0.00    +0.000 C 
ENDBRANCH  18  20
ENDBRANCH   9  14
BRANCH   1  23
ATOM     22  C   UNL     1       7.248   4.519  17.043  0.00  0.00    +0.000 C 
ATOM     23  C   UNL     1       5.821   4.302  16.563  0.00  0.00    +0.000 C 
ENDBRANCH   1  23
BRANCH  13  24
ATOM     24  O   UNL     1       5.133   6.921  15.622  0.00  0.00    +0.000 OA
ATOM     25  H   UNL     1       4.435   7.525  15.313  0.00  0.00    +0.000 HD
ENDBRANCH  13  24
TORSDOF 4
ENDMDL
MODEL 7
REMARK VINA RESULT:      -6.8      2.163      2.869
REMARK  Name = 
REMARK  7 active torsions:
REMARK  status: ('A' for Active; 'I' for Inactive)
REMARK    1  A    between atoms: C_1  and  C_2
REMARK    2  A    between atoms: C_2  and  C_3
REMARK    3  A    between atoms: C_4  and  C_5
REMARK    4  A    between atoms: N_11  and  C_12
REMARK    5  A    between atoms: C_16  and  O_17
REMARK    6  A    between atoms: O_17  and  C_18
REMARK    7  A    between atoms: C_23  and  O_24
REMARK                            x       y       z     vdW  Elec       q    Type
REMARK                         _______ _______ _______ _____ _____    ______ ____
ROOT
ATOM      1  C   UNL     1      -1.480  12.500  20.454  0.00  0.00    +0.000 A 
ATOM      2  C   UNL     1      -0.978  11.603  21.374  0.00  0.00    +0.000 A 
ATOM      3  C   UNL     1      -1.196  11.717  22.853  0.00  0.00    +0.000 C 
ATOM      4  N   UNL     1      -0.236  10.539  21.010  0.00  0.00    +0.000 NA
ATOM      5  C   UNL     1       0.085  10.368  19.713  0.00  0.00    +0.000 A 
ATOM      6  N   UNL     1       0.905   9.323  19.377  0.00  0.00    +0.000 N 
ATOM      7  C   UNL     1       1.277   9.111  17.976  0.00  0.00    +0.000 C 
ATOM      8  C   UNL     1       2.654   8.407  17.917  0.00  0.00    +0.000 C 
ATOM      9  N   UNL     1       2.620   7.174  18.727  0.00  0.00    +0.000 N 
ATOM     10  C   UNL     1       2.213   7.386  20.134  0.00  0.00    +0.000 C 
ATOM     11  C   UNL     1       0.844   8.101  20.187  0.00  0.00    +0.000 C 
ATOM     12  N   UNL     1      -0.293  11.231  18.766  0.00  0.00    +0.000 NA
ATOM     13  C   UNL     1      -1.059  12.253  19.167  0.00  0.00    +0.000 A 
ENDROOT
BRANCH   9  14
ATOM     14  C   UNL     1       3.263   6.018  18.330  0.00  0.00    +0.000 A 
ATOM     15  C   UNL     1       2.578   4.933  17.768  0.00  0.00    +0.000 A 
ATOM     16  C   UNL     1       3.234   3.738  17.457  0.00  0.00    +0.000 A 
ATOM     17  C   UNL     1       4.595   3.607  17.712  0.00  0.00    +0.000 A 
ATOM     18  C   UNL     1       5.309   4.666  18.265  0.00  0.00    +0.000 A 
ATOM     19  C   UNL     1       4.643   5.859  18.557  0.00  0.00    +0.000 A 
BRANCH  18  20
ATOM     20  O   UNL     1       6.633   4.408  18.498  0.00  0.00    +0.000 OA
ATOM     21  C   UNL     1       7.444   5.509  18.890  0.00  0.00    +0.000 C 
ENDBRANCH  18  20
ENDBRANCH   9  14
BRANCH   1  23
ATOM     22  C   UNL     1      -3.853  13.318  20.631  0.00  0.00    +0.000 C 
ATOM     23  C   UNL     1      -2.377  13.653  20.778  0.00  0.00    +0.000 C 
ENDBRANCH   1  23
BRANCH  13  24
ATOM     24  O   UNL     1      -1.395  13.082  18.146  0.00  0.00    +0.000 OA
ATOM     25  H   UNL     1      -1.379  13.938  18.609  0.00  0.00    +0.000 HD
ENDBRANCH  13  24
TORSDOF 4
ENDMDL
MODEL 8
REMARK VINA RESULT:      -6.7      2.211      3.298
REMARK  Name = 
REMARK  7 active torsions:
REMARK  status: ('A' for Active; 'I' for Inactive)
REMARK    1  A    between atoms: C_1  and  C_2
REMARK    2  A    between atoms: C_2  and  C_3
REMARK    3  A    between atoms: C_4  and  C_5
REMARK    4  A    between atoms: N_11  and  C_12
REMARK    5  A    between atoms: C_16  and  O_17
REMARK    6  A    between atoms: O_17  and  C_18
REMARK    7  A    between atoms: C_23  and  O_24
REMARK                            x       y       z     vdW  Elec       q    Type
REMARK                         _______ _______ _______ _____ _____    ______ ____
ROOT
ATOM      1  C   UNL     1      -1.329  12.530  20.653  0.00  0.00    +0.000 A 
ATOM      2  C   UNL     1      -0.853  11.555  21.504  0.00  0.00    +0.000 A 
ATOM      3  C   UNL     1      -1.070  11.567  22.989  0.00  0.00    +0.000 C 
ATOM      4  N   UNL     1      -0.139  10.500  21.064  0.00  0.00    +0.000 NA
ATOM      5  C   UNL     1       0.178  10.416  19.758  0.00  0.00    +0.000 A 
ATOM      6  N   UNL     1       0.970   9.376  19.346  0.00  0.00    +0.000 N 
ATOM      7  C   UNL     1       1.337   9.256  17.934  0.00  0.00    +0.000 C 
ATOM      8  C   UNL     1       2.695   8.520  17.822  0.00  0.00    +0.000 C 
ATOM      9  N   UNL     1       2.626   7.233  18.541  0.00  0.00    +0.000 N 
ATOM     10  C   UNL     1       2.223   7.353  19.960  0.00  0.00    +0.000 C 
ATOM     11  C   UNL     1       0.874   8.100  20.066  0.00  0.00    +0.000 C 
ATOM     12  N   UNL     1      -0.174  11.355  18.877  0.00  0.00    +0.000 NA
ATOM     13  C   UNL     1      -0.913  12.366  19.351  0.00  0.00    +0.000 A 
ENDROOT
BRANCH   9  14
ATOM     14  C   UNL     1       3.238   6.092  18.061  0.00  0.00    +0.000 A 
ATOM     15  C   UNL     1       4.392   6.136  17.267  0.00  0.00    +0.000 A 
ATOM     16  C   UNL     1       4.944   4.976  16.716  0.00  0.00    +0.000 A 
ATOM     17  C   UNL     1       4.340   3.743  16.947  0.00  0.00    +0.000 A 
ATOM     18  C   UNL     1       3.196   3.661  17.734  0.00  0.00    +0.000 A 
ATOM     19  C   UNL     1       2.664   4.827  18.290  0.00  0.00    +0.000 A 
BRANCH  18  20
ATOM     20  O   UNL     1       2.676   2.401  17.864  0.00  0.00    +0.000 OA
ATOM     21  C   UNL     1       1.446   2.282  18.569  0.00  0.00    +0.000 C 
ENDBRANCH  18  20
ENDBRANCH   9  14
BRANCH   1  23
ATOM     22  C   UNL     1      -3.680  13.371  20.963  0.00  0.00    +0.000 C 
ATOM     23  C   UNL     1      -2.194  13.680  21.060  0.00  0.00    +0.000 C 
ENDBRANCH   1  23
BRANCH  13  24
ATOM     24  O   UNL     1      -1.225  13.275  18.393  0.00  0.00    +0.000 OA
ATOM     25  H   UNL     1      -1.825  12.742  17.842  0.00  0.00    +0.000 HD
ENDBRANCH  13  24
TORSDOF 4
ENDMDL
MODEL 9
REMARK VINA RESULT:      -6.7      2.540      9.288
REMARK  Name = 
REMARK  7 active torsions:
REMARK  status: ('A' for Active; 'I' for Inactive)
REMARK    1  A    between atoms: C_1  and  C_2
REMARK    2  A    between atoms: C_2  and  C_3
REMARK    3  A    between atoms: C_4  and  C_5
REMARK    4  A    between atoms: N_11  and  C_12
REMARK    5  A    between atoms: C_16  and  O_17
REMARK    6  A    between atoms: O_17  and  C_18
REMARK    7  A    between atoms: C_23  and  O_24
REMARK                            x       y       z     vdW  Elec       q    Type
REMARK                         _______ _______ _______ _____ _____    ______ ____
ROOT
ATOM      1  C   UNL     1       2.833   5.359  19.119  0.00  0.00    +0.000 A 
ATOM      2  C   UNL     1       2.989   6.646  18.646  0.00  0.00    +0.000 A 
ATOM      3  C   UNL     1       3.889   7.009  17.502  0.00  0.00    +0.000 C 
ATOM      4  N   UNL     1       2.341   7.696  19.188  0.00  0.00    +0.000 NA
ATOM      5  C   UNL     1       1.557   7.504  20.266  0.00  0.00    +0.000 A 
ATOM      6  N   UNL     1       0.969   8.598  20.846  0.00  0.00    +0.000 N 
ATOM      7  C   UNL     1       0.114   8.426  22.022  0.00  0.00    +0.000 C 
ATOM      8  C   UNL     1       0.151   9.720  22.871  0.00  0.00    +0.000 C 
ATOM      9  N   UNL     1      -0.202  10.879  22.030  0.00  0.00    +0.000 N 
ATOM     10  C   UNL     1       0.643  11.033  20.825  0.00  0.00    +0.000 C 
ATOM     11  C   UNL     1       0.612   9.734  19.988  0.00  0.00    +0.000 C 
ATOM     12  N   UNL     1       1.411   6.306  20.836  0.00  0.00    +0.000 NA
ATOM     13  C   UNL     1       2.044   5.286  20.244  0.00  0.00    +0.000 A 
ENDROOT
BRANCH   9  14
ATOM     14  C   UNL     1      -0.973  11.922  22.506  0.00  0.00    +0.000 A 
ATOM     15  C   UNL     1      -0.553  13.257  22.443  0.00  0.00    +0.000 A 
ATOM     16  C   UNL     1      -1.307  14.287  23.011  0.00  0.00    +0.000 A 
ATOM     17  C   UNL     1      -2.501  13.995  23.663  0.00  0.00    +0.000 A 
ATOM     18  C   UNL     1      -2.952  12.681  23.741  0.00  0.00    +0.000 A 
ATOM     19  C   UNL     1      -2.195  11.663  23.156  0.00  0.00    +0.000 A 
BRANCH  18  20
ATOM     20  O   UNL     1      -4.122  12.515  24.432  0.00  0.00    +0.000 OA
ATOM     21  C   UNL     1      -5.290  13.104  23.872  0.00  0.00    +0.000 C 
ENDBRANCH  18  20
ENDBRANCH   9  14
BRANCH   1  23
ATOM     22  C   UNL     1       4.819   3.814  19.106  0.00  0.00    +0.000 C 
ATOM     23  C   UNL     1       3.455   4.140  18.517  0.00  0.00    +0.000 C 
ENDBRANCH   1  23
BRANCH  13  24
ATOM     24  O   UNL     1       1.844   4.107  20.888  0.00  0.00    +0.000 OA
ATOM     25  H   UNL     1       2.741   3.732  20.836  0.00  0.00    +0.000 HD
ENDBRANCH  13  24
TORSDOF 4
ENDMDL
