MODEL 1
REMARK VINA RESULT:      -8.3      0.000      0.000
REMARK  Name = 
REMARK  8 active torsions:
REMARK  status: ('A' for Active; 'I' for Inactive)
REMARK    1  A    between atoms: C_1  and  C_2
REMARK    2  A    between atoms: C_2  and  C_3
REMARK    3  A    between atoms: C_3  and  C_4
REMARK    4  A    between atoms: C_4  and  N_5
REMARK    5  A    between atoms: C_10  and  C_11
REMARK    6  A    between atoms: C_13  and  C_14
REMARK    7  A    between atoms: C_17  and  C_18
REMARK    8  A    between atoms: C_27  and  C_28
REMARK                            x       y       z     vdW  Elec       q    Type
REMARK                         _______ _______ _______ _____ _____    ______ ____
ROOT
ATOM      1  C   UNL     1       4.554   5.556  17.666  0.00  0.00    +0.000 A 
ATOM      2  S   UNL     1       3.938   7.161  17.727  0.00  0.00    +0.000 S 
ATOM      3  C   UNL     1       2.958   6.760  19.079  0.00  0.00    +0.000 A 
ATOM      4  N   UNL     1       3.110   5.524  19.513  0.00  0.00    +0.000 NA
ATOM      5  C   UNL     1       4.029   4.835  18.729  0.00  0.00    +0.000 A 
ATOM      6  C   UNL     1       4.299   3.411  19.068  0.00  0.00    +0.000 C 
ENDROOT
BRANCH   1  12
ATOM      7  N   UNL     1       5.062   4.076  13.254  0.00  0.00    +0.000 N 
ATOM      8  C   UNL     1       5.694   4.445  14.431  0.00  0.00    +0.000 A 
ATOM      9  N   UNL     1       7.032   4.426  14.510  0.00  0.00    +0.000 NA
ATOM     10  C   UNL     1       7.584   4.787  15.678  0.00  0.00    +0.000 A 
ATOM     11  C   UNL     1       6.850   5.162  16.770  0.00  0.00    +0.000 A 
ATOM     12  C   UNL     1       5.481   5.153  16.604  0.00  0.00    +0.000 A 
ATOM     13  N   UNL     1       4.893   4.799  15.442  0.00  0.00    +0.000 NA
ATOM     14  H   UNL     1       4.102   3.860  13.497  0.00  0.00    +0.000 HD
BRANCH   7  15
ATOM     15  C   UNL     1       5.770   3.060  12.495  0.00  0.00    +0.000 C 
BRANCH  15  16
ATOM     16  C   UNL     1       5.012   2.738  11.207  0.00  0.00    +0.000 C 
BRANCH  16  18
ATOM     17  C   UNL     1       3.192   3.856   9.871  0.00  0.00    +0.000 C 
ATOM     18  C   UNL     1       3.581   3.281  11.222  0.00  0.00    +0.000 C 
ENDBRANCH  16  18
ENDBRANCH  15  16
ENDBRANCH   7  15
ENDBRANCH   1  12
BRANCH   3  19
ATOM     19  C   UNL     1       1.973   7.714  19.611  0.00  0.00    +0.000 A 
ATOM     20  C   UNL     1       1.600   8.808  18.822  0.00  0.00    +0.000 A 
ATOM     21  C   UNL     1       0.739   9.793  19.319  0.00  0.00    +0.000 A 
ATOM     22  C   UNL     1       0.193   9.713  20.611  0.00  0.00    +0.000 A 
ATOM     23  C   UNL     1       0.536   8.585  21.377  0.00  0.00    +0.000 A 
ATOM     24  C   UNL     1       1.414   7.607  20.890  0.00  0.00    +0.000 A 
BRANCH  22  25
ATOM     25  C   UNL     1      -0.678  10.786  21.143  0.00  0.00    +0.000 A 
ATOM     26  C   UNL     1      -1.331  11.691  20.285  0.00  0.00    +0.000 A 
ATOM     27  C   UNL     1      -2.095  12.751  20.781  0.00  0.00    +0.000 A 
ATOM     28  C   UNL     1      -2.246  12.917  22.153  0.00  0.00    +0.000 A 
ATOM     29  C   UNL     1      -1.638  12.021  23.026  0.00  0.00    +0.000 A 
ATOM     30  C   UNL     1      -0.860  10.973  22.526  0.00  0.00    +0.000 A 
ENDBRANCH  22  25
ENDBRANCH   3  19
TORSDOF 6
ENDMDL
MODEL 2
REMARK VINA RESULT:      -8.1      0.517      1.029
REMARK  Name = 
REMARK  8 active torsions:
REMARK  status: ('A' for Active; 'I' for Inactive)
REMARK    1  A    between atoms: C_1  and  C_2
REMARK    2  A    between atoms: C_2  and  C_3
REMARK    3  A    between atoms: C_3  and  C_4
REMARK    4  A    between atoms: C_4  and  N_5
REMARK    5  A    between atoms: C_10  and  C_11
REMARK    6  A    between atoms: C_13  and  C_14
REMARK    7  A    between atoms: C_17  and  C_18
REMARK    8  A    between atoms: C_27  and  C_28
REMARK                            x       y       z     vdW  Elec       q    Type
REMARK                         _______ _______ _______ _____ _____    ______ ____
ROOT
ATOM      1  C   UNL     1       4.137   5.468  17.682  0.00  0.00    +0.000 A 
ATOM      2  S   UNL     1       4.008   7.137  18.075  0.00  0.00    +0.000 S 
ATOM      3  C   UNL     1       2.603   6.833  19.014  0.00  0.00    +0.000 A 
ATOM      4  N   UNL     1       2.267   5.561  19.092  0.00  0.00    +0.000 NA
ATOM      5  C   UNL     1       3.142   4.772  18.353  0.00  0.00    +0.000 A 
ATOM      6  C   UNL     1       2.889   3.306  18.314  0.00  0.00    +0.000 C 
ENDROOT
BRANCH   1  12
ATOM      7  N   UNL     1       5.275   4.272  13.301  0.00  0.00    +0.000 N 
ATOM      8  C   UNL     1       5.711   4.433  14.607  0.00  0.00    +0.000 A 
ATOM      9  N   UNL     1       6.987   4.178  14.926  0.00  0.00    +0.000 NA
ATOM     10  C   UNL     1       7.346   4.346  16.208  0.00  0.00    +0.000 A 
ATOM     11  C   UNL     1       6.477   4.756  17.183  0.00  0.00    +0.000 A 
ATOM     12  C   UNL     1       5.183   4.995  16.770  0.00  0.00    +0.000 A 
ATOM     13  N   UNL     1       4.790   4.840  15.488  0.00  0.00    +0.000 NA
ATOM     14  H   UNL     1       4.265   4.206  13.340  0.00  0.00    +0.000 HD
BRANCH   7  15
ATOM     15  C   UNL     1       5.955   3.212  12.577  0.00  0.00    +0.000 C 
BRANCH  15  16
ATOM     16  C   UNL     1       5.079   2.710  11.430  0.00  0.00    +0.000 C 
BRANCH  16  18
ATOM     17  C   UNL     1       3.181   3.391   9.919  0.00  0.00    +0.000 C 
ATOM     18  C   UNL     1       3.764   3.484  11.319  0.00  0.00    +0.000 C 
ENDBRANCH  16  18
ENDBRANCH  15  16
ENDBRANCH   7  15
ENDBRANCH   1  12
BRANCH   3  19
ATOM     19  C   UNL     1       1.815   7.939  19.580  0.00  0.00    +0.000 A 
ATOM     20  C   UNL     1       1.306   7.810  20.876  0.00  0.00    +0.000 A 
ATOM     21  C   UNL     1       0.473   8.793  21.422  0.00  0.00    +0.000 A 
ATOM     22  C   UNL     1       0.138   9.957  20.709  0.00  0.00    +0.000 A 
ATOM     23  C   UNL     1       0.694  10.098  19.427  0.00  0.00    +0.000 A 
ATOM     24  C   UNL     1       1.513   9.107  18.869  0.00  0.00    +0.000 A 
BRANCH  22  25
ATOM     25  C   UNL     1      -0.783  10.967  21.280  0.00  0.00    +0.000 A 
ATOM     26  C   UNL     1      -1.390  11.945  20.469  0.00  0.00    +0.000 A 
ATOM     27  C   UNL     1      -2.202  12.945  21.011  0.00  0.00    +0.000 A 
ATOM     28  C   UNL     1      -2.447  12.978  22.378  0.00  0.00    +0.000 A 
ATOM     29  C   UNL     1      -1.887  12.007  23.202  0.00  0.00    +0.000 A 
ATOM     30  C   UNL     1      -1.061  11.018  22.659  0.00  0.00    +0.000 A 
ENDBRANCH  22  25
ENDBRANCH   3  19
TORSDOF 6
ENDMDL
MODEL 3
REMARK VINA RESULT:      -8.0      1.047      1.865
REMARK  Name = 
REMARK  8 active torsions:
REMARK  status: ('A' for Active; 'I' for Inactive)
REMARK    1  A    between atoms: C_1  and  C_2
REMARK    2  A    between atoms: C_2  and  C_3
REMARK    3  A    between atoms: C_3  and  C_4
REMARK    4  A    between atoms: C_4  and  N_5
REMARK    5  A    between atoms: C_10  and  C_11
REMARK    6  A    between atoms: C_13  and  C_14
REMARK    7  A    between atoms: C_17  and  C_18
REMARK    8  A    between atoms: C_27  and  C_28
REMARK                            x       y       z     vdW  Elec       q    Type
REMARK                         _______ _______ _______ _____ _____    ______ ____
ROOT
ATOM      1  C   UNL     1       4.275   5.567  17.171  0.00  0.00    +0.000 A 
ATOM      2  S   UNL     1       4.201   7.162  17.810  0.00  0.00    +0.000 S 
ATOM      3  C   UNL     1       2.684   6.825  18.542  0.00  0.00    +0.000 A 
ATOM      4  N   UNL     1       2.268   5.584  18.381  0.00  0.00    +0.000 NA
ATOM      5  C   UNL     1       3.173   4.854  17.619  0.00  0.00    +0.000 A 
ATOM      6  C   UNL     1       2.840   3.434  17.321  0.00  0.00    +0.000 C 
ENDROOT
BRANCH   1  12
ATOM      7  N   UNL     1       5.618   4.138  12.920  0.00  0.00    +0.000 N 
ATOM      8  C   UNL     1       6.013   4.479  14.204  0.00  0.00    +0.000 A 
ATOM      9  N   UNL     1       7.308   4.434  14.544  0.00  0.00    +0.000 NA
ATOM     10  C   UNL     1       7.625   4.769  15.804  0.00  0.00    +0.000 A 
ATOM     11  C   UNL     1       6.697   5.143  16.737  0.00  0.00    +0.000 A 
ATOM     12  C   UNL     1       5.387   5.161  16.305  0.00  0.00    +0.000 A 
ATOM     13  N   UNL     1       5.034   4.834  15.045  0.00  0.00    +0.000 NA
ATOM     14  H   UNL     1       4.626   3.937  12.966  0.00  0.00    +0.000 HD
BRANCH   7  15
ATOM     15  C   UNL     1       6.446   3.120  12.297  0.00  0.00    +0.000 C 
BRANCH  15  16
ATOM     16  C   UNL     1       5.569   2.047  11.653  0.00  0.00    +0.000 C 
BRANCH  16  18
ATOM     17  C   UNL     1       6.037  -0.405  11.304  0.00  0.00    +0.000 C 
ATOM     18  C   UNL     1       6.388   1.011  10.880  0.00  0.00    +0.000 C 
ENDBRANCH  16  18
ENDBRANCH  15  16
ENDBRANCH   7  15
ENDBRANCH   1  12
BRANCH   3  19
ATOM     19  C   UNL     1       1.904   7.888  19.193  0.00  0.00    +0.000 A 
ATOM     20  C   UNL     1       1.612   7.771  20.556  0.00  0.00    +0.000 A 
ATOM     21  C   UNL     1       0.795   8.707  21.199  0.00  0.00    +0.000 A 
ATOM     22  C   UNL     1       0.260   9.813  20.517  0.00  0.00    +0.000 A 
ATOM     23  C   UNL     1       0.599   9.947  19.160  0.00  0.00    +0.000 A 
ATOM     24  C   UNL     1       1.401   9.001  18.507  0.00  0.00    +0.000 A 
BRANCH  22  25
ATOM     25  C   UNL     1      -0.643  10.771  21.197  0.00  0.00    +0.000 A 
ATOM     26  C   UNL     1      -0.893  10.684  22.580  0.00  0.00    +0.000 A 
ATOM     27  C   UNL     1      -1.799  11.538  23.215  0.00  0.00    +0.000 A 
ATOM     28  C   UNL     1      -2.462  12.517  22.485  0.00  0.00    +0.000 A 
ATOM     29  C   UNL     1      -2.213  12.648  21.123  0.00  0.00    +0.000 A 
ATOM     30  C   UNL     1      -1.319  11.781  20.487  0.00  0.00    +0.000 A 
ENDBRANCH  22  25
ENDBRANCH   3  19
TORSDOF 6
ENDMDL
MODEL 4
REMARK VINA RESULT:      -7.9      2.393      4.145
REMARK  Name = 
REMARK  8 active torsions:
REMARK  status: ('A' for Active; 'I' for Inactive)
REMARK    1  A    between atoms: C_1  and  C_2
REMARK    2  A    between atoms: C_2  and  C_3
REMARK    3  A    between atoms: C_3  and  C_4
REMARK    4  A    between atoms: C_4  and  N_5
REMARK    5  A    between atoms: C_10  and  C_11
REMARK    6  A    between atoms: C_13  and  C_14
REMARK    7  A    between atoms: C_17  and  C_18
REMARK    8  A    between atoms: C_27  and  C_28
REMARK                            x       y       z     vdW  Elec       q    Type
REMARK                         _______ _______ _______ _____ _____    ______ ____
ROOT
ATOM      1  C   UNL     1       2.558   7.013  19.469  0.00  0.00    +0.000 A 
ATOM      2  S   UNL     1       1.606   7.284  20.875  0.00  0.00    +0.000 S 
ATOM      3  C   UNL     1       1.001   8.748  20.214  0.00  0.00    +0.000 A 
ATOM      4  N   UNL     1       1.425   9.009  18.994  0.00  0.00    +0.000 NA
ATOM      5  C   UNL     1       2.297   8.020  18.552  0.00  0.00    +0.000 A 
ATOM      6  C   UNL     1       2.890   8.176  17.195  0.00  0.00    +0.000 C 
ENDROOT
BRANCH   1  12
ATOM      7  N   UNL     1       6.862   5.456  18.484  0.00  0.00    +0.000 N 
ATOM      8  C   UNL     1       5.585   5.132  18.914  0.00  0.00    +0.000 A 
ATOM      9  N   UNL     1       5.281   3.865  19.225  0.00  0.00    +0.000 NA
ATOM     10  C   UNL     1       4.025   3.615  19.628  0.00  0.00    +0.000 A 
ATOM     11  C   UNL     1       3.063   4.582  19.728  0.00  0.00    +0.000 A 
ATOM     12  C   UNL     1       3.459   5.859  19.388  0.00  0.00    +0.000 A 
ATOM     13  N   UNL     1       4.713   6.146  18.983  0.00  0.00    +0.000 NA
ATOM     14  H   UNL     1       6.791   6.353  18.018  0.00  0.00    +0.000 HD
BRANCH   7  15
ATOM     15  C   UNL     1       7.520   4.400  17.736  0.00  0.00    +0.000 C 
BRANCH  15  16
ATOM     16  C   UNL     1       7.319   4.611  16.235  0.00  0.00    +0.000 C 
BRANCH  16  18
ATOM     17  C   UNL     1       5.593   4.401  14.411  0.00  0.00    +0.000 C 
ATOM     18  C   UNL     1       6.156   3.786  15.681  0.00  0.00    +0.000 C 
ENDBRANCH  16  18
ENDBRANCH  15  16
ENDBRANCH   7  15
ENDBRANCH   1  12
BRANCH   3  19
ATOM     19  C   UNL     1       0.165   9.653  21.018  0.00  0.00    +0.000 A 
ATOM     20  C   UNL     1      -0.410  10.767  20.398  0.00  0.00    +0.000 A 
ATOM     21  C   UNL     1      -1.135  11.708  21.138  0.00  0.00    +0.000 A 
ATOM     22  C   UNL     1      -1.339  11.561  22.521  0.00  0.00    +0.000 A 
ATOM     23  C   UNL     1      -0.798  10.413  23.125  0.00  0.00    +0.000 A 
ATOM     24  C   UNL     1      -0.055   9.479  22.390  0.00  0.00    +0.000 A 
BRANCH  22  25
ATOM     25  C   UNL     1      -2.067  12.588  23.302  0.00  0.00    +0.000 A 
ATOM     26  C   UNL     1      -1.460  13.811  23.648  0.00  0.00    +0.000 A 
ATOM     27  C   UNL     1      -2.113  14.754  24.446  0.00  0.00    +0.000 A 
ATOM     28  C   UNL     1      -3.403  14.507  24.900  0.00  0.00    +0.000 A 
ATOM     29  C   UNL     1      -4.042  13.321  24.550  0.00  0.00    +0.000 A 
ATOM     30  C   UNL     1      -3.378  12.373  23.766  0.00  0.00    +0.000 A 
ENDBRANCH  22  25
ENDBRANCH   3  19
TORSDOF 6
ENDMDL
MODEL 5
REMARK VINA RESULT:      -7.9      0.658      1.020
REMARK  Name = 
REMARK  8 active torsions:
REMARK  status: ('A' for Active; 'I' for Inactive)
REMARK    1  A    between atoms: C_1  and  C_2
REMARK    2  A    between atoms: C_2  and  C_3
REMARK    3  A    between atoms: C_3  and  C_4
REMARK    4  A    between atoms: C_4  and  N_5
REMARK    5  A    between atoms: C_10  and  C_11
REMARK    6  A    between atoms: C_13  and  C_14
REMARK    7  A    between atoms: C_17  and  C_18
REMARK    8  A    between atoms: C_27  and  C_28
REMARK                            x       y       z     vdW  Elec       q    Type
REMARK                         _______ _______ _______ _____ _____    ______ ____
ROOT
ATOM      1  C   UNL     1       4.271   5.555  17.613  0.00  0.00    +0.000 A 
ATOM      2  S   UNL     1       3.928   7.236  17.727  0.00  0.00    +0.000 S 
ATOM      3  C   UNL     1       2.683   6.931  18.870  0.00  0.00    +0.000 A 
ATOM      4  N   UNL     1       2.554   5.662  19.205  0.00  0.00    +0.000 NA
ATOM      5  C   UNL     1       3.464   4.872  18.511  0.00  0.00    +0.000 A 
ATOM      6  C   UNL     1       3.434   3.404  18.755  0.00  0.00    +0.000 C 
ENDROOT
BRANCH   1  12
ATOM      7  N   UNL     1       5.248   4.252  13.224  0.00  0.00    +0.000 N 
ATOM      8  C   UNL     1       5.732   4.447  14.508  0.00  0.00    +0.000 A 
ATOM      9  N   UNL     1       7.020   4.203  14.785  0.00  0.00    +0.000 NA
ATOM     10  C   UNL     1       7.426   4.404  16.048  0.00  0.00    +0.000 A 
ATOM     11  C   UNL     1       6.593   4.836  17.044  0.00  0.00    +0.000 A 
ATOM     12  C   UNL     1       5.284   5.062  16.674  0.00  0.00    +0.000 A 
ATOM     13  N   UNL     1       4.843   4.873  15.413  0.00  0.00    +0.000 NA
ATOM     14  H   UNL     1       4.240   4.184  13.303  0.00  0.00    +0.000 HD
BRANCH   7  15
ATOM     15  C   UNL     1       5.903   3.176  12.502  0.00  0.00    +0.000 C 
BRANCH  15  16
ATOM     16  C   UNL     1       5.009   2.681  11.365  0.00  0.00    +0.000 C 
BRANCH  16  18
ATOM     17  C   UNL     1       3.267   3.812   9.938  0.00  0.00    +0.000 C 
ATOM     18  C   UNL     1       3.650   3.383  11.345  0.00  0.00    +0.000 C 
ENDBRANCH  16  18
ENDBRANCH  15  16
ENDBRANCH   7  15
ENDBRANCH   1  12
BRANCH   3  19
ATOM     19  C   UNL     1       1.795   8.009  19.329  0.00  0.00    +0.000 A 
ATOM     20  C   UNL     1       1.438   9.018  18.429  0.00  0.00    +0.000 A 
ATOM     21  C   UNL     1       0.673  10.114  18.842  0.00  0.00    +0.000 A 
ATOM     22  C   UNL     1       0.209  10.234  20.164  0.00  0.00    +0.000 A 
ATOM     23  C   UNL     1       0.533   9.191  21.048  0.00  0.00    +0.000 A 
ATOM     24  C   UNL     1       1.315   8.102  20.642  0.00  0.00    +0.000 A 
BRANCH  22  25
ATOM     25  C   UNL     1      -0.559  11.423  20.602  0.00  0.00    +0.000 A 
ATOM     26  C   UNL     1      -0.148  12.193  21.707  0.00  0.00    +0.000 A 
ATOM     27  C   UNL     1      -0.907  13.271  22.171  0.00  0.00    +0.000 A 
ATOM     28  C   UNL     1      -2.086  13.622  21.524  0.00  0.00    +0.000 A 
ATOM     29  C   UNL     1      -2.502  12.900  20.410  0.00  0.00    +0.000 A 
ATOM     30  C   UNL     1      -1.750  11.811  19.959  0.00  0.00    +0.000 A 
ENDBRANCH  22  25
ENDBRANCH   3  19
TORSDOF 6
ENDMDL
MODEL 6
REMARK VINA RESULT:      -7.8      0.858      1.154
REMARK  Name = 
REMARK  8 active torsions:
REMARK  status: ('A' for Active; 'I' for Inactive)
REMARK    1  A    between atoms: C_1  and  C_2
REMARK    2  A    between atoms: C_2  and  C_3
REMARK    3  A    between atoms: C_3  and  C_4
REMARK    4  A    between atoms: C_4  and  N_5
REMARK    5  A    between atoms: C_10  and  C_11
REMARK    6  A    between atoms: C_13  and  C_14
REMARK    7  A    between atoms: C_17  and  C_18
REMARK    8  A    between atoms: C_27  and  C_28
REMARK                            x       y       z     vdW  Elec       q    Type
REMARK                         _______ _______ _______ _____ _____    ______ ____
ROOT
ATOM      1  C   UNL     1       4.431   5.624  18.177  0.00  0.00    +0.000 A 
ATOM      2  S   UNL     1       3.938   7.269  18.270  0.00  0.00    +0.000 S 
ATOM      3  C   UNL     1       2.755   6.874  19.450  0.00  0.00    +0.000 A 
ATOM      4  N   UNL     1       2.749   5.607  19.811  0.00  0.00    +0.000 NA
ATOM      5  C   UNL     1       3.711   4.889  19.108  0.00  0.00    +0.000 A 
ATOM      6  C   UNL     1       3.821   3.429  19.378  0.00  0.00    +0.000 C 
ENDROOT
BRANCH   1  12
ATOM      7  N   UNL     1       5.464   4.562  13.736  0.00  0.00    +0.000 N 
ATOM      8  C   UNL     1       5.937   4.709  15.031  0.00  0.00    +0.000 A 
ATOM      9  N   UNL     1       7.230   4.490  15.304  0.00  0.00    +0.000 NA
ATOM     10  C   UNL     1       7.624   4.641  16.577  0.00  0.00    +0.000 A 
ATOM     11  C   UNL     1       6.775   5.000  17.588  0.00  0.00    +0.000 A 
ATOM     12  C   UNL     1       5.461   5.206  17.222  0.00  0.00    +0.000 A 
ATOM     13  N   UNL     1       5.032   5.066  15.950  0.00  0.00    +0.000 NA
ATOM     14  H   UNL     1       4.458   4.462  13.806  0.00  0.00    +0.000 HD
BRANCH   7  15
ATOM     15  C   UNL     1       6.153   3.541  12.967  0.00  0.00    +0.000 C 
BRANCH  15  16
ATOM     16  C   UNL     1       5.189   2.880  11.983  0.00  0.00    +0.000 C 
BRANCH  16  18
ATOM     17  C   UNL     1       7.323   1.878  11.093  0.00  0.00    +0.000 C 
ATOM     18  C   UNL     1       5.824   1.694  11.253  0.00  0.00    +0.000 C 
ENDBRANCH  16  18
ENDBRANCH  15  16
ENDBRANCH   7  15
ENDBRANCH   1  12
BRANCH   3  19
ATOM     19  C   UNL     1       1.783   7.877  19.912  0.00  0.00    +0.000 A 
ATOM     20  C   UNL     1       1.438   8.927  19.056  0.00  0.00    +0.000 A 
ATOM     21  C   UNL     1       0.591   9.956  19.484  0.00  0.00    +0.000 A 
ATOM     22  C   UNL     1       0.032   9.964  20.773  0.00  0.00    +0.000 A 
ATOM     23  C   UNL     1       0.346   8.879  21.608  0.00  0.00    +0.000 A 
ATOM     24  C   UNL     1       1.209   7.857  21.190  0.00  0.00    +0.000 A 
BRANCH  22  25
ATOM     25  C   UNL     1      -0.824  11.083  21.230  0.00  0.00    +0.000 A 
ATOM     26  C   UNL     1      -1.315  12.045  20.327  0.00  0.00    +0.000 A 
ATOM     27  C   UNL     1      -2.062  13.144  20.762  0.00  0.00    +0.000 A 
ATOM     28  C   UNL     1      -2.357  13.295  22.111  0.00  0.00    +0.000 A 
ATOM     29  C   UNL     1      -1.912  12.345  23.024  0.00  0.00    +0.000 A 
ATOM     30  C   UNL     1      -1.150  11.256  22.589  0.00  0.00    +0.000 A 
ENDBRANCH  22  25
ENDBRANCH   3  19
TORSDOF 6
ENDMDL
MODEL 7
REMARK VINA RESULT:      -7.8      0.725      1.455
REMARK  Name = 
REMARK  8 active torsions:
REMARK  status: ('A' for Active; 'I' for Inactive)
REMARK    1  A    between atoms: C_1  and  C_2
REMARK    2  A    between atoms: C_2  and  C_3
REMARK    3  A    between atoms: C_3  and  C_4
REMARK    4  A    between atoms: C_4  and  N_5
REMARK    5  A    between atoms: C_10  and  C_11
REMARK    6  A    between atoms: C_13  and  C_14
REMARK    7  A    between atoms: C_17  and  C_18
REMARK    8  A    between atoms: C_27  and  C_28
REMARK                            x       y       z     vdW  Elec       q    Type
REMARK                         _______ _______ _______ _____ _____    ______ ____
ROOT
ATOM      1  C   UNL     1       4.210   5.670  18.189  0.00  0.00    +0.000 A 
ATOM      2  S   UNL     1       3.933   7.359  18.352  0.00  0.00    +0.000 S 
ATOM      3  C   UNL     1       2.609   7.066  19.405  0.00  0.00    +0.000 A 
ATOM      4  N   UNL     1       2.404   5.793  19.679  0.00  0.00    +0.000 NA
ATOM      5  C   UNL     1       3.320   4.990  19.008  0.00  0.00    +0.000 A 
ATOM      6  C   UNL     1       3.212   3.516  19.188  0.00  0.00    +0.000 C 
ENDROOT
BRANCH   1  12
ATOM      7  N   UNL     1       5.356   4.365  13.841  0.00  0.00    +0.000 N 
ATOM      8  C   UNL     1       5.788   4.552  15.145  0.00  0.00    +0.000 A 
ATOM      9  N   UNL     1       7.060   4.295  15.476  0.00  0.00    +0.000 NA
ATOM     10  C   UNL     1       7.415   4.489  16.755  0.00  0.00    +0.000 A 
ATOM     11  C   UNL     1       6.546   4.927  17.716  0.00  0.00    +0.000 A 
ATOM     12  C   UNL     1       5.256   5.168  17.292  0.00  0.00    +0.000 A 
ATOM     13  N   UNL     1       4.866   4.986  16.013  0.00  0.00    +0.000 NA
ATOM     14  H   UNL     1       4.345   4.308  13.878  0.00  0.00    +0.000 HD
BRANCH   7  15
ATOM     15  C   UNL     1       6.029   3.283  13.145  0.00  0.00    +0.000 C 
BRANCH  15  16
ATOM     16  C   UNL     1       5.450   3.118  11.740  0.00  0.00    +0.000 C 
BRANCH  16  18
ATOM     17  C   UNL     1       3.396   3.266  10.288  0.00  0.00    +0.000 C 
ATOM     18  C   UNL     1       3.985   3.553  11.659  0.00  0.00    +0.000 C 
ENDBRANCH  16  18
ENDBRANCH  15  16
ENDBRANCH   7  15
ENDBRANCH   1  12
BRANCH   3  19
ATOM     19  C   UNL     1       1.742   8.166  19.855  0.00  0.00    +0.000 A 
ATOM     20  C   UNL     1       1.285   8.166  21.177  0.00  0.00    +0.000 A 
ATOM     21  C   UNL     1       0.383   9.137  21.627  0.00  0.00    +0.000 A 
ATOM     22  C   UNL     1      -0.077  10.163  20.784  0.00  0.00    +0.000 A 
ATOM     23  C   UNL     1       0.426  10.182  19.472  0.00  0.00    +0.000 A 
ATOM     24  C   UNL     1       1.314   9.200  19.013  0.00  0.00    +0.000 A 
BRANCH  22  25
ATOM     25  C   UNL     1      -1.068  11.157  21.258  0.00  0.00    +0.000 A 
ATOM     26  C   UNL     1      -1.336  11.327  22.629  0.00  0.00    +0.000 A 
ATOM     27  C   UNL     1      -2.322  12.210  23.079  0.00  0.00    +0.000 A 
ATOM     28  C   UNL     1      -3.050  12.965  22.167  0.00  0.00    +0.000 A 
ATOM     29  C   UNL     1      -2.787  12.842  20.807  0.00  0.00    +0.000 A 
ATOM     30  C   UNL     1      -1.812  11.945  20.359  0.00  0.00    +0.000 A 
ENDBRANCH  22  25
ENDBRANCH   3  19
TORSDOF 6
ENDMDL
MODEL 8
REMARK VINA RESULT:      -7.8      0.915      1.372
REMARK  Name = 
REMARK  8 active torsions:
REMARK  status: ('A' for Active; 'I' for Inactive)
REMARK    1  A    between atoms: C_1  and  C_2
REMARK    2  A    between atoms: C_2  and  C_3
REMARK    3  A    between atoms: C_3  and  C_4
REMARK    4  A    between atoms: C_4  and  N_5
REMARK    5  A    between atoms: C_10  and  C_11
REMARK    6  A    between atoms: C_13  and  C_14
REMARK    7  A    between atoms: C_17  and  C_18
REMARK    8  A    between atoms: C_27  and  C_28
REMARK                            x       y       z     vdW  Elec       q    Type
REMARK                         _______ _______ _______ _____ _____    ______ ____
ROOT
ATOM      1  C   UNL     1       4.221   5.680  18.569  0.00  0.00    +0.000 A 
ATOM      2  S   UNL     1       3.811   7.346  18.678  0.00  0.00    +0.000 S 
ATOM      3  C   UNL     1       2.508   6.982  19.734  0.00  0.00    +0.000 A 
ATOM      4  N   UNL     1       2.402   5.706  20.048  0.00  0.00    +0.000 NA
ATOM      5  C   UNL     1       3.383   4.958  19.406  0.00  0.00    +0.000 A 
ATOM      6  C   UNL     1       3.390   3.486  19.633  0.00  0.00    +0.000 C 
ENDROOT
BRANCH   1  12
ATOM      7  N   UNL     1       5.541   4.535  14.226  0.00  0.00    +0.000 N 
ATOM      8  C   UNL     1       5.926   4.696  15.547  0.00  0.00    +0.000 A 
ATOM      9  N   UNL     1       7.195   4.466  15.911  0.00  0.00    +0.000 NA
ATOM     10  C   UNL     1       7.504   4.633  17.206  0.00  0.00    +0.000 A 
ATOM     11  C   UNL     1       6.592   5.019  18.151  0.00  0.00    +0.000 A 
ATOM     12  C   UNL     1       5.309   5.234  17.693  0.00  0.00    +0.000 A 
ATOM     13  N   UNL     1       4.965   5.079  16.397  0.00  0.00    +0.000 NA
ATOM     14  H   UNL     1       4.531   4.448  14.228  0.00  0.00    +0.000 HD
BRANCH   7  15
ATOM     15  C   UNL     1       6.268   3.493  13.521  0.00  0.00    +0.000 C 
BRANCH  15  16
ATOM     16  C   UNL     1       6.077   3.644  12.012  0.00  0.00    +0.000 C 
BRANCH  16  18
ATOM     17  C   UNL     1       3.777   3.152  11.107  0.00  0.00    +0.000 C 
ATOM     18  C   UNL     1       5.145   2.578  11.433  0.00  0.00    +0.000 C 
ENDBRANCH  16  18
ENDBRANCH  15  16
ENDBRANCH   7  15
ENDBRANCH   1  12
BRANCH   3  19
ATOM     19  C   UNL     1       1.553   8.023  20.146  0.00  0.00    +0.000 A 
ATOM     20  C   UNL     1       1.241   9.046  19.245  0.00  0.00    +0.000 A 
ATOM     21  C   UNL     1       0.413  10.109  19.622  0.00  0.00    +0.000 A 
ATOM     22  C   UNL     1      -0.160  10.180  20.904  0.00  0.00    +0.000 A 
ATOM     23  C   UNL     1       0.121   9.122  21.785  0.00  0.00    +0.000 A 
ATOM     24  C   UNL     1       0.966   8.066  21.417  0.00  0.00    +0.000 A 
BRANCH  22  25
ATOM     25  C   UNL     1      -0.996  11.335  21.307  0.00  0.00    +0.000 A 
ATOM     26  C   UNL     1      -1.517  11.441  22.610  0.00  0.00    +0.000 A 
ATOM     27  C   UNL     1      -2.366  12.489  22.977  0.00  0.00    +0.000 A 
ATOM     28  C   UNL     1      -2.696  13.473  22.053  0.00  0.00    +0.000 A 
ATOM     29  C   UNL     1      -2.172  13.413  20.765  0.00  0.00    +0.000 A 
ATOM     30  C   UNL     1      -1.338  12.353  20.397  0.00  0.00    +0.000 A 
ENDBRANCH  22  25
ENDBRANCH   3  19
TORSDOF 6
ENDMDL
MODEL 9
REMARK VINA RESULT:      -7.7      4.650     11.789
REMARK  Name = 
REMARK  8 active torsions:
REMARK  status: ('A' for Active; 'I' for Inactive)
REMARK    1  A    between atoms: C_1  and  C_2
REMARK    2  A    between atoms: C_2  and  C_3
REMARK    3  A    between atoms: C_3  and  C_4
REMARK    4  A    between atoms: C_4  and  N_5
REMARK    5  A    between atoms: C_10  and  C_11
REMARK    6  A    between atoms: C_13  and  C_14
REMARK    7  A    between atoms: C_17  and  C_18
REMARK    8  A    between atoms: C_27  and  C_28
REMARK                            x       y       z     vdW  Elec       q    Type
REMARK                         _______ _______ _______ _____ _____    ______ ____
ROOT
ATOM      1  C   UNL     1      -0.225  11.530  21.326  0.00  0.00    +0.000 A 
ATOM      2  S   UNL     1       0.295   9.991  21.891  0.00  0.00    +0.000 S 
ATOM      3  C   UNL     1       0.955   9.620  20.350  0.00  0.00    +0.000 A 
ATOM      4  N   UNL     1       0.857  10.595  19.468  0.00  0.00    +0.000 NA
ATOM      5  C   UNL     1       0.205  11.694  20.016  0.00  0.00    +0.000 A 
ATOM      6  C   UNL     1      -0.012  12.879  19.142  0.00  0.00    +0.000 C 
ENDROOT
BRANCH   1  12
ATOM      7  N   UNL     1      -4.015  12.092  24.015  0.00  0.00    +0.000 N 
ATOM      8  C   UNL     1      -2.851  12.661  23.523  0.00  0.00    +0.000 A 
ATOM      9  N   UNL     1      -2.514  13.910  23.870  0.00  0.00    +0.000 NA
ATOM     10  C   UNL     1      -1.379  14.407  23.355  0.00  0.00    +0.000 A 
ATOM     11  C   UNL     1      -0.571  13.703  22.504  0.00  0.00    +0.000 A 
ATOM     12  C   UNL     1      -0.991  12.426  22.198  0.00  0.00    +0.000 A 
ATOM     13  N   UNL     1      -2.125  11.895  22.701  0.00  0.00    +0.000 NA
ATOM     14  H   UNL     1      -4.235  11.312  23.407  0.00  0.00    +0.000 HD
BRANCH   7  15
ATOM     15  C   UNL     1      -5.089  13.044  24.241  0.00  0.00    +0.000 C 
BRANCH  15  16
ATOM     16  C   UNL     1      -6.256  12.759  23.297  0.00  0.00    +0.000 C 
BRANCH  16  18
ATOM     17  C   UNL     1      -7.864  14.611  23.874  0.00  0.00    +0.000 C 
ATOM     18  C   UNL     1      -7.609  13.114  23.918  0.00  0.00    +0.000 C 
ENDBRANCH  16  18
ENDBRANCH  15  16
ENDBRANCH   7  15
ENDBRANCH   1  12
BRANCH   3  19
ATOM     19  C   UNL     1       1.482   8.279  20.055  0.00  0.00    +0.000 A 
ATOM     20  C   UNL     1       2.112   8.057  18.826  0.00  0.00    +0.000 A 
ATOM     21  C   UNL     1       2.545   6.778  18.460  0.00  0.00    +0.000 A 
ATOM     22  C   UNL     1       2.394   5.674  19.316  0.00  0.00    +0.000 A 
ATOM     23  C   UNL     1       1.803   5.917  20.568  0.00  0.00    +0.000 A 
ATOM     24  C   UNL     1       1.350   7.193  20.930  0.00  0.00    +0.000 A 
BRANCH  22  25
ATOM     25  C   UNL     1       2.813   4.316  18.897  0.00  0.00    +0.000 A 
ATOM     26  C   UNL     1       2.267   3.702  17.755  0.00  0.00    +0.000 A 
ATOM     27  C   UNL     1       2.602   2.394  17.395  0.00  0.00    +0.000 A 
ATOM     28  C   UNL     1       3.514   1.674  18.159  0.00  0.00    +0.000 A 
ATOM     29  C   UNL     1       4.094   2.265  19.276  0.00  0.00    +0.000 A 
ATOM     30  C   UNL     1       3.743   3.567  19.643  0.00  0.00    +0.000 A 
ENDBRANCH  22  25
ENDBRANCH   3  19
TORSDOF 6
ENDMDL
