MODEL 1
REMARK VINA RESULT:      -7.0      0.000      0.000
REMARK  Name = 
REMARK  5 active torsions:
REMARK  status: ('A' for Active; 'I' for Inactive)
REMARK    1  A    between atoms: C_1  and  C_2
REMARK    2  A    between atoms: C_2  and  N_3
REMARK    3  A    between atoms: C_5  and  C_6
REMARK    4  A    between atoms: C_6  and  O_8
REMARK    5  A    between atoms: C_15  and  C_16
REMARK                            x       y       z     vdW  Elec       q    Type
REMARK                         _______ _______ _______ _____ _____    ______ ____
ROOT
ATOM      1  N   UNL     1       4.674   4.071  18.106  0.00  0.00    +0.000 N 
ATOM      2  C   UNL     1       5.440   3.925  16.949  0.00  0.00    +0.000 A 
ATOM      3  C   UNL     1       5.640   4.859  16.000  0.00  0.00    +0.000 A 
ATOM      4  C   UNL     1       5.038   6.187  16.235  0.00  0.00    +0.000 A 
ATOM      5  O   UNL     1       5.254   7.109  15.452  0.00  0.00    +0.000 OA
ATOM      6  C   UNL     1       4.148   6.353  17.403  0.00  0.00    +0.000 A 
ATOM      7  C   UNL     1       3.488   7.578  17.560  0.00  0.00    +0.000 A 
ATOM      8  C   UNL     1       2.603   7.740  18.612  0.00  0.00    +0.000 A 
ATOM      9  F   UNL     1       1.971   8.913  18.750  0.00  0.00    +0.000 F 
ATOM     10  C   UNL     1       2.353   6.699  19.501  0.00  0.00    +0.000 A 
ATOM     11  C   UNL     1       1.384   6.856  20.634  0.00  0.00    +0.000 C 
ATOM     12  C   UNL     1       3.036   5.479  19.338  0.00  0.00    +0.000 A 
ATOM     13  C   UNL     1       3.960   5.278  18.299  0.00  0.00    +0.000 A 
ENDROOT
BRANCH   1  15
ATOM     14  C   UNL     1       3.637   1.869  18.667  0.00  0.00    +0.000 C 
ATOM     15  C   UNL     1       4.567   2.993  19.115  0.00  0.00    +0.000 C 
ENDBRANCH   1  15
BRANCH   3  16
ATOM     16  C   UNL     1       6.403   4.542  14.772  0.00  0.00    +0.000 C 
ATOM     17  O   UNL     1       6.057   3.677  13.975  0.00  0.00    +0.000 OA
BRANCH  16  18
ATOM     18  O   UNL     1       7.503   5.298  14.567  0.00  0.00    +0.000 OA
ATOM     19  H   UNL     1       8.326   4.956  14.996  0.00  0.00    +0.000 HD
ENDBRANCH  16  18
ENDBRANCH   3  16
TORSDOF 3
ENDMDL
MODEL 2
REMARK VINA RESULT:      -6.9      2.554      4.058
REMARK  Name = 
REMARK  5 active torsions:
REMARK  status: ('A' for Active; 'I' for Inactive)
REMARK    1  A    between atoms: C_1  and  C_2
REMARK    2  A    between atoms: C_2  and  N_3
REMARK    3  A    between atoms: C_5  and  C_6
REMARK    4  A    between atoms: C_6  and  O_8
REMARK    5  A    between atoms: C_15  and  C_16
REMARK                            x       y       z     vdW  Elec       q    Type
REMARK                         _______ _______ _______ _____ _____    ______ ____
ROOT
ATOM      1  N   UNL     1       3.501   6.603  18.163  0.00  0.00    +0.000 N 
ATOM      2  C   UNL     1       4.723   6.987  17.610  0.00  0.00    +0.000 A 
ATOM      3  C   UNL     1       5.663   6.169  17.101  0.00  0.00    +0.000 A 
ATOM      4  C   UNL     1       5.345   4.727  17.070  0.00  0.00    +0.000 A 
ATOM      5  O   UNL     1       6.120   3.935  16.540  0.00  0.00    +0.000 OA
ATOM      6  C   UNL     1       4.100   4.273  17.725  0.00  0.00    +0.000 A 
ATOM      7  C   UNL     1       3.856   2.896  17.795  0.00  0.00    +0.000 A 
ATOM      8  C   UNL     1       2.728   2.441  18.455  0.00  0.00    +0.000 A 
ATOM      9  F   UNL     1       2.506   1.122  18.523  0.00  0.00    +0.000 F 
ATOM     10  C   UNL     1       1.846   3.332  19.059  0.00  0.00    +0.000 A 
ATOM     11  C   UNL     1       0.629   2.851  19.791  0.00  0.00    +0.000 C 
ATOM     12  C   UNL     1       2.098   4.714  18.966  0.00  0.00    +0.000 A 
ATOM     13  C   UNL     1       3.217   5.222  18.287  0.00  0.00    +0.000 A 
ENDROOT
BRANCH   1  15
ATOM     14  C   UNL     1       2.260   8.703  17.626  0.00  0.00    +0.000 C 
ATOM     15  C   UNL     1       2.513   7.595  18.644  0.00  0.00    +0.000 C 
ENDBRANCH   1  15
BRANCH   3  16
ATOM     16  C   UNL     1       6.960   6.702  16.628  0.00  0.00    +0.000 C 
ATOM     17  O   UNL     1       7.504   7.678  17.133  0.00  0.00    +0.000 OA
BRANCH  16  18
ATOM     18  O   UNL     1       7.528   6.018  15.613  0.00  0.00    +0.000 OA
ATOM     19  H   UNL     1       7.930   6.584  14.907  0.00  0.00    +0.000 HD
ENDBRANCH  16  18
ENDBRANCH   3  16
TORSDOF 3
ENDMDL
MODEL 3
REMARK VINA RESULT:      -6.8      3.404      4.464
REMARK  Name = 
REMARK  5 active torsions:
REMARK  status: ('A' for Active; 'I' for Inactive)
REMARK    1  A    between atoms: C_1  and  C_2
REMARK    2  A    between atoms: C_2  and  N_3
REMARK    3  A    between atoms: C_5  and  C_6
REMARK    4  A    between atoms: C_6  and  O_8
REMARK    5  A    between atoms: C_15  and  C_16
REMARK                            x       y       z     vdW  Elec       q    Type
REMARK                         _______ _______ _______ _____ _____    ______ ____
ROOT
ATOM      1  N   UNL     1       5.546   4.989  16.216  0.00  0.00    +0.000 N 
ATOM      2  C   UNL     1       6.499   5.954  16.541  0.00  0.00    +0.000 A 
ATOM      3  C   UNL     1       6.958   6.242  17.774  0.00  0.00    +0.000 A 
ATOM      4  C   UNL     1       6.444   5.415  18.885  0.00  0.00    +0.000 A 
ATOM      5  O   UNL     1       6.885   5.568  20.021  0.00  0.00    +0.000 OA
ATOM      6  C   UNL     1       5.369   4.444  18.593  0.00  0.00    +0.000 A 
ATOM      7  C   UNL     1       4.804   3.744  19.666  0.00  0.00    +0.000 A 
ATOM      8  C   UNL     1       3.755   2.872  19.429  0.00  0.00    +0.000 A 
ATOM      9  F   UNL     1       3.217   2.212  20.462  0.00  0.00    +0.000 F 
ATOM     10  C   UNL     1       3.250   2.697  18.144  0.00  0.00    +0.000 A 
ATOM     11  C   UNL     1       2.103   1.769  17.876  0.00  0.00    +0.000 C 
ATOM     12  C   UNL     1       3.839   3.397  17.074  0.00  0.00    +0.000 A 
ATOM     13  C   UNL     1       4.920   4.274  17.265  0.00  0.00    +0.000 A 
ENDROOT
BRANCH   1  15
ATOM     14  C   UNL     1       6.281   4.069  14.014  0.00  0.00    +0.000 C 
ATOM     15  C   UNL     1       5.155   4.715  14.814  0.00  0.00    +0.000 C 
ENDBRANCH   1  15
BRANCH   3  16
ATOM     16  C   UNL     1       7.906   7.357  17.990  0.00  0.00    +0.000 C 
ATOM     17  O   UNL     1       7.982   8.324  17.240  0.00  0.00    +0.000 OA
BRANCH  16  18
ATOM     18  O   UNL     1       8.670   7.256  19.099  0.00  0.00    +0.000 OA
ATOM     19  H   UNL     1       8.192   7.431  19.948  0.00  0.00    +0.000 HD
ENDBRANCH  16  18
ENDBRANCH   3  16
TORSDOF 3
ENDMDL
MODEL 4
REMARK VINA RESULT:      -6.8      2.656      4.122
REMARK  Name = 
REMARK  5 active torsions:
REMARK  status: ('A' for Active; 'I' for Inactive)
REMARK    1  A    between atoms: C_1  and  C_2
REMARK    2  A    between atoms: C_2  and  N_3
REMARK    3  A    between atoms: C_5  and  C_6
REMARK    4  A    between atoms: C_6  and  O_8
REMARK    5  A    between atoms: C_15  and  C_16
REMARK                            x       y       z     vdW  Elec       q    Type
REMARK                         _______ _______ _______ _____ _____    ______ ____
ROOT
ATOM      1  N   UNL     1       3.436   6.509  18.069  0.00  0.00    +0.000 N 
ATOM      2  C   UNL     1       4.619   6.950  17.477  0.00  0.00    +0.000 A 
ATOM      3  C   UNL     1       5.808   6.318  17.498  0.00  0.00    +0.000 A 
ATOM      4  C   UNL     1       5.849   5.000  18.164  0.00  0.00    +0.000 A 
ATOM      5  O   UNL     1       6.879   4.331  18.145  0.00  0.00    +0.000 OA
ATOM      6  C   UNL     1       4.639   4.542  18.879  0.00  0.00    +0.000 A 
ATOM      7  C   UNL     1       4.716   3.347  19.606  0.00  0.00    +0.000 A 
ATOM      8  C   UNL     1       3.617   2.925  20.333  0.00  0.00    +0.000 A 
ATOM      9  F   UNL     1       3.702   1.784  21.030  0.00  0.00    +0.000 F 
ATOM     10  C   UNL     1       2.447   3.678  20.360  0.00  0.00    +0.000 A 
ATOM     11  C   UNL     1       1.255   3.240  21.157  0.00  0.00    +0.000 C 
ATOM     12  C   UNL     1       2.381   4.869  19.612  0.00  0.00    +0.000 A 
ATOM     13  C   UNL     1       3.465   5.323  18.842  0.00  0.00    +0.000 A 
ENDROOT
BRANCH   1  15
ATOM     14  C   UNL     1       2.391   8.765  17.831  0.00  0.00    +0.000 C 
ATOM     15  C   UNL     1       2.166   7.260  17.935  0.00  0.00    +0.000 C 
ENDBRANCH   1  15
BRANCH   3  16
ATOM     16  C   UNL     1       7.011   6.942  16.905  0.00  0.00    +0.000 C 
ATOM     17  O   UNL     1       7.436   8.038  17.255  0.00  0.00    +0.000 OA
BRANCH  16  18
ATOM     18  O   UNL     1       7.638   6.204  15.965  0.00  0.00    +0.000 OA
ATOM     19  H   UNL     1       7.325   6.361  15.039  0.00  0.00    +0.000 HD
ENDBRANCH  16  18
ENDBRANCH   3  16
TORSDOF 3
ENDMDL
MODEL 5
REMARK VINA RESULT:      -6.7      2.873      4.333
REMARK  Name = 
REMARK  5 active torsions:
REMARK  status: ('A' for Active; 'I' for Inactive)
REMARK    1  A    between atoms: C_1  and  C_2
REMARK    2  A    between atoms: C_2  and  N_3
REMARK    3  A    between atoms: C_5  and  C_6
REMARK    4  A    between atoms: C_6  and  O_8
REMARK    5  A    between atoms: C_15  and  C_16
REMARK                            x       y       z     vdW  Elec       q    Type
REMARK                         _______ _______ _______ _____ _____    ______ ____
ROOT
ATOM      1  N   UNL     1       3.661   6.598  17.741  0.00  0.00    +0.000 N 
ATOM      2  C   UNL     1       4.963   7.094  17.687  0.00  0.00    +0.000 A 
ATOM      3  C   UNL     1       6.097   6.377  17.796  0.00  0.00    +0.000 A 
ATOM      4  C   UNL     1       5.950   4.913  17.927  0.00  0.00    +0.000 A 
ATOM      5  O   UNL     1       6.944   4.192  17.944  0.00  0.00    +0.000 OA
ATOM      6  C   UNL     1       4.587   4.360  18.077  0.00  0.00    +0.000 A 
ATOM      7  C   UNL     1       4.455   2.986  18.316  0.00  0.00    +0.000 A 
ATOM      8  C   UNL     1       3.195   2.452  18.519  0.00  0.00    +0.000 A 
ATOM      9  F   UNL     1       3.080   1.138  18.754  0.00  0.00    +0.000 F 
ATOM     10  C   UNL     1       2.065   3.264  18.503  0.00  0.00    +0.000 A 
ATOM     11  C   UNL     1       0.696   2.700  18.739  0.00  0.00    +0.000 C 
ATOM     12  C   UNL     1       2.213   4.640  18.247  0.00  0.00    +0.000 A 
ATOM     13  C   UNL     1       3.470   5.221  18.012  0.00  0.00    +0.000 A 
ENDROOT
BRANCH   1  15
ATOM     14  C   UNL     1       2.134   8.257  18.813  0.00  0.00    +0.000 C 
ATOM     15  C   UNL     1       2.481   7.472  17.552  0.00  0.00    +0.000 C 
ENDBRANCH   1  15
BRANCH   3  16
ATOM     16  C   UNL     1       7.418   7.042  17.814  0.00  0.00    +0.000 C 
ATOM     17  O   UNL     1       7.787   7.819  16.939  0.00  0.00    +0.000 OA
BRANCH  16  18
ATOM     18  O   UNL     1       8.191   6.762  18.885  0.00  0.00    +0.000 OA
ATOM     19  H   UNL     1       7.952   7.257  19.708  0.00  0.00    +0.000 HD
ENDBRANCH  16  18
ENDBRANCH   3  16
TORSDOF 3
ENDMDL
MODEL 6
REMARK VINA RESULT:      -6.5      2.454      3.816
REMARK  Name = 
REMARK  5 active torsions:
REMARK  status: ('A' for Active; 'I' for Inactive)
REMARK    1  A    between atoms: C_1  and  C_2
REMARK    2  A    between atoms: C_2  and  N_3
REMARK    3  A    between atoms: C_5  and  C_6
REMARK    4  A    between atoms: C_6  and  O_8
REMARK    5  A    between atoms: C_15  and  C_16
REMARK                            x       y       z     vdW  Elec       q    Type
REMARK                         _______ _______ _______ _____ _____    ______ ____
ROOT
ATOM      1  N   UNL     1       3.577   6.449  18.040  0.00  0.00    +0.000 N 
ATOM      2  C   UNL     1       4.687   6.629  17.214  0.00  0.00    +0.000 A 
ATOM      3  C   UNL     1       5.375   5.662  16.578  0.00  0.00    +0.000 A 
ATOM      4  C   UNL     1       4.870   4.282  16.721  0.00  0.00    +0.000 A 
ATOM      5  O   UNL     1       5.398   3.364  16.098  0.00  0.00    +0.000 OA
ATOM      6  C   UNL     1       3.752   4.041  17.658  0.00  0.00    +0.000 A 
ATOM      7  C   UNL     1       3.350   2.718  17.879  0.00  0.00    +0.000 A 
ATOM      8  C   UNL     1       2.346   2.459  18.795  0.00  0.00    +0.000 A 
ATOM      9  F   UNL     1       1.973   1.190  19.004  0.00  0.00    +0.000 F 
ATOM     10  C   UNL     1       1.744   3.494  19.506  0.00  0.00    +0.000 A 
ATOM     11  C   UNL     1       0.667   3.225  20.513  0.00  0.00    +0.000 C 
ATOM     12  C   UNL     1       2.149   4.819  19.260  0.00  0.00    +0.000 A 
ATOM     13  C   UNL     1       3.148   5.130  18.323  0.00  0.00    +0.000 A 
ENDROOT
BRANCH   1  15
ATOM     14  C   UNL     1       2.144   8.448  17.605  0.00  0.00    +0.000 C 
ATOM     15  C   UNL     1       2.859   7.594  18.648  0.00  0.00    +0.000 C 
ENDBRANCH   1  15
BRANCH   3  16
ATOM     16  C   UNL     1       6.594   5.982  15.803  0.00  0.00    +0.000 C 
ATOM     17  O   UNL     1       6.713   5.724  14.610  0.00  0.00    +0.000 OA
BRANCH  16  18
ATOM     18  O   UNL     1       7.566   6.614  16.494  0.00  0.00    +0.000 OA
ATOM     19  H   UNL     1       7.255   7.095  17.301  0.00  0.00    +0.000 HD
ENDBRANCH  16  18
ENDBRANCH   3  16
TORSDOF 3
ENDMDL
MODEL 7
REMARK VINA RESULT:      -6.5      3.663      5.365
REMARK  Name = 
REMARK  5 active torsions:
REMARK  status: ('A' for Active; 'I' for Inactive)
REMARK    1  A    between atoms: C_1  and  C_2
REMARK    2  A    between atoms: C_2  and  N_3
REMARK    3  A    between atoms: C_5  and  C_6
REMARK    4  A    between atoms: C_6  and  O_8
REMARK    5  A    between atoms: C_15  and  C_16
REMARK                            x       y       z     vdW  Elec       q    Type
REMARK                         _______ _______ _______ _____ _____    ______ ____
ROOT
ATOM      1  N   UNL     1       2.952   6.131  18.003  0.00  0.00    +0.000 N 
ATOM      2  C   UNL     1       2.107   5.056  18.283  0.00  0.00    +0.000 A 
ATOM      3  C   UNL     1       2.478   3.845  18.738  0.00  0.00    +0.000 A 
ATOM      4  C   UNL     1       3.914   3.652  19.025  0.00  0.00    +0.000 A 
ATOM      5  O   UNL     1       4.307   2.601  19.524  0.00  0.00    +0.000 OA
ATOM      6  C   UNL     1       4.850   4.735  18.658  0.00  0.00    +0.000 A 
ATOM      7  C   UNL     1       6.222   4.507  18.825  0.00  0.00    +0.000 A 
ATOM      8  C   UNL     1       7.123   5.481  18.434  0.00  0.00    +0.000 A 
ATOM      9  F   UNL     1       8.433   5.250  18.592  0.00  0.00    +0.000 F 
ATOM     10  C   UNL     1       6.684   6.674  17.867  0.00  0.00    +0.000 A 
ATOM     11  C   UNL     1       7.651   7.730  17.425  0.00  0.00    +0.000 C 
ATOM     12  C   UNL     1       5.302   6.894  17.721  0.00  0.00    +0.000 A 
ATOM     13  C   UNL     1       4.350   5.943  18.125  0.00  0.00    +0.000 A 
ENDROOT
BRANCH   1  15
ATOM     14  C   UNL     1       2.011   8.327  18.730  0.00  0.00    +0.000 C 
ATOM     15  C   UNL     1       2.429   7.443  17.559  0.00  0.00    +0.000 C 
ENDBRANCH   1  15
BRANCH   3  16
ATOM     16  C   UNL     1       1.486   2.760  18.907  0.00  0.00    +0.000 C 
ATOM     17  O   UNL     1       0.463   2.888  19.572  0.00  0.00    +0.000 OA
BRANCH  16  18
ATOM     18  O   UNL     1       1.765   1.616  18.246  0.00  0.00    +0.000 OA
ATOM     19  H   UNL     1       2.305   0.964  18.760  0.00  0.00    +0.000 HD
ENDBRANCH  16  18
ENDBRANCH   3  16
TORSDOF 3
ENDMDL
MODEL 8
REMARK VINA RESULT:      -6.5      3.898      5.760
REMARK  Name = 
REMARK  5 active torsions:
REMARK  status: ('A' for Active; 'I' for Inactive)
REMARK    1  A    between atoms: C_1  and  C_2
REMARK    2  A    between atoms: C_2  and  N_3
REMARK    3  A    between atoms: C_5  and  C_6
REMARK    4  A    between atoms: C_6  and  O_8
REMARK    5  A    between atoms: C_15  and  C_16
REMARK                            x       y       z     vdW  Elec       q    Type
REMARK                         _______ _______ _______ _____ _____    ______ ____
ROOT
ATOM      1  N   UNL     1       2.729   6.014  19.499  0.00  0.00    +0.000 N 
ATOM      2  C   UNL     1       2.302   5.071  20.433  0.00  0.00    +0.000 A 
ATOM      3  C   UNL     1       2.702   3.788  20.516  0.00  0.00    +0.000 A 
ATOM      4  C   UNL     1       3.740   3.352  19.559  0.00  0.00    +0.000 A 
ATOM      5  O   UNL     1       4.213   2.221  19.635  0.00  0.00    +0.000 OA
ATOM      6  C   UNL     1       4.153   4.296  18.499  0.00  0.00    +0.000 A 
ATOM      7  C   UNL     1       5.051   3.842  17.525  0.00  0.00    +0.000 A 
ATOM      8  C   UNL     1       5.408   4.686  16.488  0.00  0.00    +0.000 A 
ATOM      9  F   UNL     1       6.264   4.241  15.558  0.00  0.00    +0.000 F 
ATOM     10  C   UNL     1       4.875   5.968  16.395  0.00  0.00    +0.000 A 
ATOM     11  C   UNL     1       5.241   6.885  15.267  0.00  0.00    +0.000 C 
ATOM     12  C   UNL     1       3.986   6.414  17.390  0.00  0.00    +0.000 A 
ATOM     13  C   UNL     1       3.613   5.600  18.473  0.00  0.00    +0.000 A 
ENDROOT
BRANCH   1  15
ATOM     14  C   UNL     1       1.519   7.750  20.825  0.00  0.00    +0.000 C 
ATOM     15  C   UNL     1       2.263   7.419  19.535  0.00  0.00    +0.000 C 
ENDBRANCH   1  15
BRANCH   3  16
ATOM     16  C   UNL     1       2.099   2.865  21.502  0.00  0.00    +0.000 C 
ATOM     17  O   UNL     1       0.888   2.752  21.656  0.00  0.00    +0.000 OA
BRANCH  16  18
ATOM     18  O   UNL     1       2.977   2.122  22.208  0.00  0.00    +0.000 OA
ATOM     19  H   UNL     1       3.457   2.615  22.920  0.00  0.00    +0.000 HD
ENDBRANCH  16  18
ENDBRANCH   3  16
TORSDOF 3
ENDMDL
MODEL 9
REMARK VINA RESULT:      -6.5      2.941      4.118
REMARK  Name = 
REMARK  5 active torsions:
REMARK  status: ('A' for Active; 'I' for Inactive)
REMARK    1  A    between atoms: C_1  and  C_2
REMARK    2  A    between atoms: C_2  and  N_3
REMARK    3  A    between atoms: C_5  and  C_6
REMARK    4  A    between atoms: C_6  and  O_8
REMARK    5  A    between atoms: C_15  and  C_16
REMARK                            x       y       z     vdW  Elec       q    Type
REMARK                         _______ _______ _______ _____ _____    ______ ____
ROOT
ATOM      1  N   UNL     1       4.316   5.051  17.509  0.00  0.00    +0.000 N 
ATOM      2  C   UNL     1       4.598   3.823  18.107  0.00  0.00    +0.000 A 
ATOM      3  C   UNL     1       4.099   3.367  19.271  0.00  0.00    +0.000 A 
ATOM      4  C   UNL     1       3.110   4.226  19.953  0.00  0.00    +0.000 A 
ATOM      5  O   UNL     1       2.551   3.832  20.974  0.00  0.00    +0.000 OA
ATOM      6  C   UNL     1       2.853   5.571  19.398  0.00  0.00    +0.000 A 
ATOM      7  C   UNL     1       2.003   6.427  20.109  0.00  0.00    +0.000 A 
ATOM      8  C   UNL     1       1.792   7.713  19.642  0.00  0.00    +0.000 A 
ATOM      9  F   UNL     1       0.982   8.526  20.333  0.00  0.00    +0.000 F 
ATOM     10  C   UNL     1       2.423   8.166  18.488  0.00  0.00    +0.000 A 
ATOM     11  C   UNL     1       2.216   9.562  17.981  0.00  0.00    +0.000 C 
ATOM     12  C   UNL     1       3.263   7.288  17.776  0.00  0.00    +0.000 A 
ATOM     13  C   UNL     1       3.488   5.968  18.200  0.00  0.00    +0.000 A 
ENDROOT
BRANCH   1  15
ATOM     14  C   UNL     1       5.545   4.252  15.487  0.00  0.00    +0.000 C 
ATOM     15  C   UNL     1       4.880   5.430  16.193  0.00  0.00    +0.000 C 
ENDBRANCH   1  15
BRANCH   3  16
ATOM     16  C   UNL     1       4.553   2.079  19.840  0.00  0.00    +0.000 C 
ATOM     17  O   UNL     1       5.022   1.976  20.968  0.00  0.00    +0.000 OA
BRANCH  16  18
ATOM     18  O   UNL     1       4.388   1.005  19.039  0.00  0.00    +0.000 OA
ATOM     19  H   UNL     1       3.524   0.979  18.556  0.00  0.00    +0.000 HD
ENDBRANCH  16  18
ENDBRANCH   3  16
TORSDOF 3
ENDMDL
