MODEL 1
REMARK VINA RESULT:      -5.8      0.000      0.000
REMARK  Name = 
REMARK  10 active torsions:
REMARK  status: ('A' for Active; 'I' for Inactive)
REMARK    1  A    between atoms: C_1  and  C_2
REMARK    2  A    between atoms: C_2  and  C_3
REMARK    3  A    between atoms: C_3  and  C_4
REMARK    4  A    between atoms: C_3  and  C_6
REMARK    5  A    between atoms: C_3  and  N_8
REMARK    6  A    between atoms: C_4  and  C_5
REMARK    7  A    between atoms: C_6  and  O_7
REMARK    8  A    between atoms: N_8  and  C_9
REMARK    9  A    between atoms: C_9  and  C_10
REMARK   10  A    between atoms: C_10  and  N_11
REMARK                            x       y       z     vdW  Elec       q    Type
REMARK                         _______ _______ _______ _____ _____    ______ ____
ROOT
ATOM      1  N   UNL     1       4.454   4.877  19.342  0.00  0.00    +0.000 NA
ATOM      2  H   UNL     1       5.271   4.498  19.815  0.00  0.00    +0.000 HD
ENDROOT
BRANCH   1   3
ATOM      3  C   UNL     1       3.294   3.954  19.554  0.00  0.00    +0.000 C 
BRANCH   3   5
ATOM      4  C   UNL     1       2.409   2.247  17.756  0.00  0.00    +0.000 C 
ATOM      5  C   UNL     1       2.662   3.702  18.143  0.00  0.00    +0.000 C 
ENDBRANCH   3   5
BRANCH   3   6
ATOM      6  C   UNL     1       2.262   4.607  20.524  0.00  0.00    +0.000 C 
ATOM      7  C   UNL     1       2.030   6.105  20.347  0.00  0.00    +0.000 C 
ENDBRANCH   3   6
BRANCH   3   8
ATOM      8  C   UNL     1       3.755   2.571  20.134  0.00  0.00    +0.000 C 
BRANCH   8   9
ATOM      9  O   UNL     1       5.162   2.345  20.037  0.00  0.00    +0.000 OA
ATOM     10  H   UNL     1       5.448   1.900  20.850  0.00  0.00    +0.000 HD
ENDBRANCH   8   9
ENDBRANCH   3   8
ENDBRANCH   1   3
BRANCH   1  11
ATOM     11  C   UNL     1       4.805   5.119  17.932  0.00  0.00    +0.000 C 
BRANCH  11  12
ATOM     12  C   UNL     1       6.237   4.686  17.597  0.00  0.00    +0.000 C 
BRANCH  12  13
ATOM     13  N   UNL     1       6.439   4.590  16.159  0.00  0.00    +0.000 N 
ATOM     14  C   UNL     1       5.787   3.764  15.287  0.00  0.00    +0.000 A 
ATOM     15  C   UNL     1       6.291   4.070  14.052  0.00  0.00    +0.000 A 
ATOM     16 BR   UNL     1       5.825   3.340  12.400  0.00  0.00    +0.000 Br
ATOM     17  C   UNL     1       7.250   5.068  14.262  0.00  0.00    +0.000 A 
ATOM     18  N   UNL     1       7.341   5.399  15.555  0.00  0.00    +0.000 NA
ENDBRANCH  12  13
ENDBRANCH  11  12
ENDBRANCH   1  11
TORSDOF 8
ENDMDL
MODEL 2
REMARK VINA RESULT:      -5.7      1.523      2.455
REMARK  Name = 
REMARK  10 active torsions:
REMARK  status: ('A' for Active; 'I' for Inactive)
REMARK    1  A    between atoms: C_1  and  C_2
REMARK    2  A    between atoms: C_2  and  C_3
REMARK    3  A    between atoms: C_3  and  C_4
REMARK    4  A    between atoms: C_3  and  C_6
REMARK    5  A    between atoms: C_3  and  N_8
REMARK    6  A    between atoms: C_4  and  C_5
REMARK    7  A    between atoms: C_6  and  O_7
REMARK    8  A    between atoms: N_8  and  C_9
REMARK    9  A    between atoms: C_9  and  C_10
REMARK   10  A    between atoms: C_10  and  N_11
REMARK                            x       y       z     vdW  Elec       q    Type
REMARK                         _______ _______ _______ _____ _____    ______ ____
ROOT
ATOM      1  N   UNL     1       4.334   4.043  19.106  0.00  0.00    +0.000 NA
ATOM      2  H   UNL     1       4.762   3.123  19.032  0.00  0.00    +0.000 HD
ENDROOT
BRANCH   1   3
ATOM      3  C   UNL     1       2.850   3.883  19.226  0.00  0.00    +0.000 C 
BRANCH   3   5
ATOM      4  C   UNL     1       1.979   3.177  21.608  0.00  0.00    +0.000 C 
ATOM      5  C   UNL     1       2.475   4.292  20.690  0.00  0.00    +0.000 C 
ENDBRANCH   3   5
BRANCH   3   6
ATOM      6  C   UNL     1       2.445   2.405  18.935  0.00  0.00    +0.000 C 
ATOM      7  C   UNL     1       3.570   1.479  18.479  0.00  0.00    +0.000 C 
ENDBRANCH   3   6
BRANCH   3   8
ATOM      8  C   UNL     1       2.085   4.839  18.244  0.00  0.00    +0.000 C 
BRANCH   8   9
ATOM      9  O   UNL     1       1.162   4.165  17.386  0.00  0.00    +0.000 OA
ATOM     10  H   UNL     1       1.217   3.217  17.577  0.00  0.00    +0.000 HD
ENDBRANCH   8   9
ENDBRANCH   3   8
ENDBRANCH   1   3
BRANCH   1  11
ATOM     11  C   UNL     1       4.779   4.856  17.962  0.00  0.00    +0.000 C 
BRANCH  11  12
ATOM     12  C   UNL     1       6.254   4.626  17.612  0.00  0.00    +0.000 C 
BRANCH  12  13
ATOM     13  N   UNL     1       6.452   4.550  16.172  0.00  0.00    +0.000 N 
ATOM     14  C   UNL     1       5.835   3.701  15.298  0.00  0.00    +0.000 A 
ATOM     15  C   UNL     1       6.316   4.039  14.063  0.00  0.00    +0.000 A 
ATOM     16 BR   UNL     1       5.876   3.300  12.407  0.00  0.00    +0.000 Br
ATOM     17  C   UNL     1       7.228   5.079  14.275  0.00  0.00    +0.000 A 
ATOM     18  N   UNL     1       7.311   5.405  15.571  0.00  0.00    +0.000 NA
ENDBRANCH  12  13
ENDBRANCH  11  12
ENDBRANCH   1  11
TORSDOF 8
ENDMDL
MODEL 3
REMARK VINA RESULT:      -5.7      1.140      1.574
REMARK  Name = 
REMARK  10 active torsions:
REMARK  status: ('A' for Active; 'I' for Inactive)
REMARK    1  A    between atoms: C_1  and  C_2
REMARK    2  A    between atoms: C_2  and  C_3
REMARK    3  A    between atoms: C_3  and  C_4
REMARK    4  A    between atoms: C_3  and  C_6
REMARK    5  A    between atoms: C_3  and  N_8
REMARK    6  A    between atoms: C_4  and  C_5
REMARK    7  A    between atoms: C_6  and  O_7
REMARK    8  A    between atoms: N_8  and  C_9
REMARK    9  A    between atoms: C_9  and  C_10
REMARK   10  A    between atoms: C_10  and  N_11
REMARK                            x       y       z     vdW  Elec       q    Type
REMARK                         _______ _______ _______ _____ _____    ______ ____
ROOT
ATOM      1  N   UNL     1       4.927   3.680  18.934  0.00  0.00    +0.000 NA
ATOM      2  H   UNL     1       5.490   2.899  18.603  0.00  0.00    +0.000 HD
ENDROOT
BRANCH   1   3
ATOM      3  C   UNL     1       3.510   3.224  19.101  0.00  0.00    +0.000 C 
BRANCH   3   5
ATOM      4  C   UNL     1       1.580   4.330  17.692  0.00  0.00    +0.000 C 
ATOM      5  C   UNL     1       2.606   4.471  18.815  0.00  0.00    +0.000 C 
ENDBRANCH   3   5
BRANCH   3   6
ATOM      6  C   UNL     1       3.287   2.687  20.548  0.00  0.00    +0.000 C 
ATOM      7  C   UNL     1       1.835   2.464  20.964  0.00  0.00    +0.000 C 
ENDBRANCH   3   6
BRANCH   3   8
ATOM      8  C   UNL     1       3.138   2.106  18.064  0.00  0.00    +0.000 C 
BRANCH   8   9
ATOM      9  O   UNL     1       4.050   1.008  18.048  0.00  0.00    +0.000 OA
ATOM     10  H   UNL     1       4.794   1.248  17.476  0.00  0.00    +0.000 HD
ENDBRANCH   8   9
ENDBRANCH   3   8
ENDBRANCH   1   3
BRANCH   1  11
ATOM     11  C   UNL     1       5.111   4.811  18.009  0.00  0.00    +0.000 C 
BRANCH  11  12
ATOM     12  C   UNL     1       6.556   4.944  17.519  0.00  0.00    +0.000 C 
BRANCH  12  13
ATOM     13  N   UNL     1       6.647   4.763  16.077  0.00  0.00    +0.000 N 
ATOM     14  C   UNL     1       5.840   3.989  15.291  0.00  0.00    +0.000 A 
ATOM     15  C   UNL     1       6.291   4.178  14.013  0.00  0.00    +0.000 A 
ATOM     16 BR   UNL     1       5.628   3.444  12.431  0.00  0.00    +0.000 Br
ATOM     17  C   UNL     1       7.376   5.057  14.112  0.00  0.00    +0.000 A 
ATOM     18  N   UNL     1       7.596   5.428  15.379  0.00  0.00    +0.000 NA
ENDBRANCH  12  13
ENDBRANCH  11  12
ENDBRANCH   1  11
TORSDOF 8
ENDMDL
MODEL 4
REMARK VINA RESULT:      -5.7      3.287      5.839
REMARK  Name = 
REMARK  10 active torsions:
REMARK  status: ('A' for Active; 'I' for Inactive)
REMARK    1  A    between atoms: C_1  and  C_2
REMARK    2  A    between atoms: C_2  and  C_3
REMARK    3  A    between atoms: C_3  and  C_4
REMARK    4  A    between atoms: C_3  and  C_6
REMARK    5  A    between atoms: C_3  and  N_8
REMARK    6  A    between atoms: C_4  and  C_5
REMARK    7  A    between atoms: C_6  and  O_7
REMARK    8  A    between atoms: N_8  and  C_9
REMARK    9  A    between atoms: C_9  and  C_10
REMARK   10  A    between atoms: C_10  and  N_11
REMARK                            x       y       z     vdW  Elec       q    Type
REMARK                         _______ _______ _______ _____ _____    ______ ____
ROOT
ATOM      1  N   UNL     1       5.725   5.409  18.492  0.00  0.00    +0.000 NA
ATOM      2  H   UNL     1       5.737   5.478  19.507  0.00  0.00    +0.000 HD
ENDROOT
BRANCH   1   3
ATOM      3  C   UNL     1       7.100   5.689  17.967  0.00  0.00    +0.000 C 
BRANCH   3   5
ATOM      4  C   UNL     1       7.953   8.175  17.813  0.00  0.00    +0.000 C 
ATOM      5  C   UNL     1       7.032   7.087  17.264  0.00  0.00    +0.000 C 
ENDBRANCH   3   5
BRANCH   3   6
ATOM      6  C   UNL     1       7.526   4.575  16.962  0.00  0.00    +0.000 C 
ATOM      7  C   UNL     1       6.911   4.659  15.567  0.00  0.00    +0.000 C 
ENDBRANCH   3   6
BRANCH   3   8
ATOM      8  C   UNL     1       8.153   5.779  19.127  0.00  0.00    +0.000 C 
BRANCH   8   9
ATOM      9  O   UNL     1       7.614   5.501  20.419  0.00  0.00    +0.000 OA
ATOM     10  H   UNL     1       6.752   5.074  20.296  0.00  0.00    +0.000 HD
ENDBRANCH   8   9
ENDBRANCH   3   8
ENDBRANCH   1   3
BRANCH   1  11
ATOM     11  C   UNL     1       4.672   6.301  17.978  0.00  0.00    +0.000 C 
BRANCH  11  12
ATOM     12  C   UNL     1       3.388   5.548  17.613  0.00  0.00    +0.000 C 
BRANCH  12  13
ATOM     13  N   UNL     1       3.141   4.444  18.528  0.00  0.00    +0.000 N 
ATOM     14  C   UNL     1       2.413   4.478  19.684  0.00  0.00    +0.000 A 
ATOM     15  C   UNL     1       2.435   3.196  20.164  0.00  0.00    +0.000 A 
ATOM     16 BR   UNL     1       1.617   2.521  21.699  0.00  0.00    +0.000 Br
ATOM     17  C   UNL     1       3.207   2.458  19.260  0.00  0.00    +0.000 A 
ATOM     18  N   UNL     1       3.639   3.218  18.246  0.00  0.00    +0.000 NA
ENDBRANCH  12  13
ENDBRANCH  11  12
ENDBRANCH   1  11
TORSDOF 8
ENDMDL
MODEL 5
REMARK VINA RESULT:      -5.7      1.056      1.189
REMARK  Name = 
REMARK  10 active torsions:
REMARK  status: ('A' for Active; 'I' for Inactive)
REMARK    1  A    between atoms: C_1  and  C_2
REMARK    2  A    between atoms: C_2  and  C_3
REMARK    3  A    between atoms: C_3  and  C_4
REMARK    4  A    between atoms: C_3  and  C_6
REMARK    5  A    between atoms: C_3  and  N_8
REMARK    6  A    between atoms: C_4  and  C_5
REMARK    7  A    between atoms: C_6  and  O_7
REMARK    8  A    between atoms: N_8  and  C_9
REMARK    9  A    between atoms: C_9  and  C_10
REMARK   10  A    between atoms: C_10  and  N_11
REMARK                            x       y       z     vdW  Elec       q    Type
REMARK                         _______ _______ _______ _____ _____    ______ ____
ROOT
ATOM      1  N   UNL     1       5.250   3.927  18.738  0.00  0.00    +0.000 NA
ATOM      2  H   UNL     1       5.351   3.671  17.758  0.00  0.00    +0.000 HD
ENDROOT
BRANCH   1   3
ATOM      3  C   UNL     1       3.901   3.491  19.221  0.00  0.00    +0.000 C 
BRANCH   3   5
ATOM      4  C   UNL     1       2.000   4.034  17.483  0.00  0.00    +0.000 C 
ATOM      5  C   UNL     1       3.088   3.070  17.950  0.00  0.00    +0.000 C 
ENDBRANCH   3   5
BRANCH   3   6
ATOM      6  C   UNL     1       3.199   4.662  19.975  0.00  0.00    +0.000 C 
ATOM      7  C   UNL     1       2.252   4.261  21.103  0.00  0.00    +0.000 C 
ENDBRANCH   3   6
BRANCH   3   8
ATOM      8  C   UNL     1       4.003   2.244  20.168  0.00  0.00    +0.000 C 
BRANCH   8   9
ATOM      9  O   UNL     1       5.260   1.570  20.102  0.00  0.00    +0.000 OA
ATOM     10  H   UNL     1       5.112   0.707  19.688  0.00  0.00    +0.000 HD
ENDBRANCH   8   9
ENDBRANCH   3   8
ENDBRANCH   1   3
BRANCH   1  11
ATOM     11  C   UNL     1       5.520   5.369  18.871  0.00  0.00    +0.000 C 
BRANCH  11  12
ATOM     12  C   UNL     1       5.282   6.137  17.566  0.00  0.00    +0.000 C 
BRANCH  12  13
ATOM     13  N   UNL     1       5.842   5.430  16.424  0.00  0.00    +0.000 N 
ATOM     14  C   UNL     1       5.169   4.973  15.326  0.00  0.00    +0.000 A 
ATOM     15  C   UNL     1       6.126   4.420  14.519  0.00  0.00    +0.000 A 
ATOM     16 BR   UNL     1       5.910   3.632  12.842  0.00  0.00    +0.000 Br
ATOM     17  C   UNL     1       7.339   4.563  15.203  0.00  0.00    +0.000 A 
ATOM     18  N   UNL     1       7.173   5.191  16.373  0.00  0.00    +0.000 NA
ENDBRANCH  12  13
ENDBRANCH  11  12
ENDBRANCH   1  11
TORSDOF 8
ENDMDL
MODEL 6
REMARK VINA RESULT:      -5.6      3.213      5.889
REMARK  Name = 
REMARK  10 active torsions:
REMARK  status: ('A' for Active; 'I' for Inactive)
REMARK    1  A    between atoms: C_1  and  C_2
REMARK    2  A    between atoms: C_2  and  C_3
REMARK    3  A    between atoms: C_3  and  C_4
REMARK    4  A    between atoms: C_3  and  C_6
REMARK    5  A    between atoms: C_3  and  N_8
REMARK    6  A    between atoms: C_4  and  C_5
REMARK    7  A    between atoms: C_6  and  O_7
REMARK    8  A    between atoms: N_8  and  C_9
REMARK    9  A    between atoms: C_9  and  C_10
REMARK   10  A    between atoms: C_10  and  N_11
REMARK                            x       y       z     vdW  Elec       q    Type
REMARK                         _______ _______ _______ _____ _____    ______ ____
ROOT
ATOM      1  N   UNL     1       4.872   5.277  17.214  0.00  0.00    +0.000 NA
ATOM      2  H   UNL     1       4.729   4.866  18.134  0.00  0.00    +0.000 HD
ENDROOT
BRANCH   1   3
ATOM      3  C   UNL     1       6.342   5.358  16.938  0.00  0.00    +0.000 C 
BRANCH   3   5
ATOM      4  C   UNL     1       7.722   7.475  17.674  0.00  0.00    +0.000 C 
ATOM      5  C   UNL     1       6.674   6.875  16.739  0.00  0.00    +0.000 C 
ENDBRANCH   3   5
BRANCH   3   6
ATOM      6  C   UNL     1       6.693   4.533  15.662  0.00  0.00    +0.000 C 
ATOM      7  C   UNL     1       5.664   4.568  14.536  0.00  0.00    +0.000 C 
ENDBRANCH   3   6
BRANCH   3   8
ATOM      8  C   UNL     1       7.186   4.830  18.151  0.00  0.00    +0.000 C 
BRANCH   8   9
ATOM      9  O   UNL     1       8.299   4.021  17.770  0.00  0.00    +0.000 OA
ATOM     10  H   UNL     1       8.310   3.241  18.346  0.00  0.00    +0.000 HD
ENDBRANCH   8   9
ENDBRANCH   3   8
ENDBRANCH   1   3
BRANCH   1  11
ATOM     11  C   UNL     1       4.159   6.564  17.163  0.00  0.00    +0.000 C 
BRANCH  11  12
ATOM     12  C   UNL     1       3.251   6.785  18.378  0.00  0.00    +0.000 C 
BRANCH  12  13
ATOM     13  N   UNL     1       2.676   5.532  18.845  0.00  0.00    +0.000 N 
ATOM     14  C   UNL     1       2.710   5.032  20.117  0.00  0.00    +0.000 A 
ATOM     15  C   UNL     1       2.004   3.861  20.065  0.00  0.00    +0.000 A 
ATOM     16 BR   UNL     1       1.630   2.674  21.454  0.00  0.00    +0.000 Br
ATOM     17  C   UNL     1       1.597   3.714  18.734  0.00  0.00    +0.000 A 
ATOM     18  N   UNL     1       2.000   4.743  17.979  0.00  0.00    +0.000 NA
ENDBRANCH  12  13
ENDBRANCH  11  12
ENDBRANCH   1  11
TORSDOF 8
ENDMDL
MODEL 7
REMARK VINA RESULT:      -5.5      1.851      2.323
REMARK  Name = 
REMARK  10 active torsions:
REMARK  status: ('A' for Active; 'I' for Inactive)
REMARK    1  A    between atoms: C_1  and  C_2
REMARK    2  A    between atoms: C_2  and  C_3
REMARK    3  A    between atoms: C_3  and  C_4
REMARK    4  A    between atoms: C_3  and  C_6
REMARK    5  A    between atoms: C_3  and  N_8
REMARK    6  A    between atoms: C_4  and  C_5
REMARK    7  A    between atoms: C_6  and  O_7
REMARK    8  A    between atoms: N_8  and  C_9
REMARK    9  A    between atoms: C_9  and  C_10
REMARK   10  A    between atoms: C_10  and  N_11
REMARK                            x       y       z     vdW  Elec       q    Type
REMARK                         _______ _______ _______ _____ _____    ______ ____
ROOT
ATOM      1  N   UNL     1       3.430   3.794  19.607  0.00  0.00    +0.000 NA
ATOM      2  H   UNL     1       3.488   3.295  20.492  0.00  0.00    +0.000 HD
ENDROOT
BRANCH   1   3
ATOM      3  C   UNL     1       2.035   3.682  19.074  0.00  0.00    +0.000 C 
BRANCH   3   5
ATOM      4  C   UNL     1       2.364   6.229  18.498  0.00  0.00    +0.000 C 
ATOM      5  C   UNL     1       1.851   4.860  18.058  0.00  0.00    +0.000 C 
ENDBRANCH   3   5
BRANCH   3   6
ATOM      6  C   UNL     1       1.006   3.780  20.242  0.00  0.00    +0.000 C 
ATOM      7  C   UNL     1       1.365   3.023  21.517  0.00  0.00    +0.000 C 
ENDBRANCH   3   6
BRANCH   3   8
ATOM      8  C   UNL     1       1.821   2.334  18.299  0.00  0.00    +0.000 C 
BRANCH   8   9
ATOM      9  O   UNL     1       0.477   1.851  18.343  0.00  0.00    +0.000 OA
ATOM     10  H   UNL     1       0.032   2.281  19.089  0.00  0.00    +0.000 HD
ENDBRANCH   8   9
ENDBRANCH   3   8
ENDBRANCH   1   3
BRANCH   1  11
ATOM     11  C   UNL     1       4.480   3.277  18.713  0.00  0.00    +0.000 C 
BRANCH  11  12
ATOM     12  C   UNL     1       5.545   4.328  18.384  0.00  0.00    +0.000 C 
BRANCH  12  13
ATOM     13  N   UNL     1       5.621   4.575  16.951  0.00  0.00    +0.000 N 
ATOM     14  C   UNL     1       5.919   3.670  15.972  0.00  0.00    +0.000 A 
ATOM     15  C   UNL     1       5.825   4.363  14.796  0.00  0.00    +0.000 A 
ATOM     16 BR   UNL     1       6.077   3.733  13.058  0.00  0.00    +0.000 Br
ATOM     17  C   UNL     1       5.489   5.676  15.147  0.00  0.00    +0.000 A 
ATOM     18  N   UNL     1       5.354   5.812  16.472  0.00  0.00    +0.000 NA
ENDBRANCH  12  13
ENDBRANCH  11  12
ENDBRANCH   1  11
TORSDOF 8
ENDMDL
MODEL 8
REMARK VINA RESULT:      -5.5      2.769      3.126
REMARK  Name = 
REMARK  10 active torsions:
REMARK  status: ('A' for Active; 'I' for Inactive)
REMARK    1  A    between atoms: C_1  and  C_2
REMARK    2  A    between atoms: C_2  and  C_3
REMARK    3  A    between atoms: C_3  and  C_4
REMARK    4  A    between atoms: C_3  and  C_6
REMARK    5  A    between atoms: C_3  and  N_8
REMARK    6  A    between atoms: C_4  and  C_5
REMARK    7  A    between atoms: C_6  and  O_7
REMARK    8  A    between atoms: N_8  and  C_9
REMARK    9  A    between atoms: C_9  and  C_10
REMARK   10  A    between atoms: C_10  and  N_11
REMARK                            x       y       z     vdW  Elec       q    Type
REMARK                         _______ _______ _______ _____ _____    ______ ____
ROOT
ATOM      1  N   UNL     1       4.094   3.758  19.548  0.00  0.00    +0.000 NA
ATOM      2  H   UNL     1       4.636   3.320  20.290  0.00  0.00    +0.000 HD
ENDROOT
BRANCH   1   3
ATOM      3  C   UNL     1       2.647   3.756  19.934  0.00  0.00    +0.000 C 
BRANCH   3   5
ATOM      4  C   UNL     1       0.675   2.464  18.764  0.00  0.00    +0.000 C 
ATOM      5  C   UNL     1       2.052   2.401  19.421  0.00  0.00    +0.000 C 
ENDBRANCH   3   5
BRANCH   3   6
ATOM      6  C   UNL     1       1.918   4.972  19.285  0.00  0.00    +0.000 C 
ATOM      7  C   UNL     1       2.134   6.323  19.962  0.00  0.00    +0.000 C 
ENDBRANCH   3   6
BRANCH   3   8
ATOM      8  C   UNL     1       2.465   3.807  21.492  0.00  0.00    +0.000 C 
BRANCH   8   9
ATOM      9  O   UNL     1       2.568   2.532  22.127  0.00  0.00    +0.000 OA
ATOM     10  H   UNL     1       1.919   1.942  21.716  0.00  0.00    +0.000 HD
ENDBRANCH   8   9
ENDBRANCH   3   8
ENDBRANCH   1   3
BRANCH   1  11
ATOM     11  C   UNL     1       4.400   3.071  18.282  0.00  0.00    +0.000 C 
BRANCH  11  12
ATOM     12  C   UNL     1       4.770   4.043  17.157  0.00  0.00    +0.000 C 
BRANCH  12  13
ATOM     13  N   UNL     1       5.842   4.941  17.563  0.00  0.00    +0.000 N 
ATOM     14  C   UNL     1       6.045   6.225  17.142  0.00  0.00    +0.000 A 
ATOM     15  C   UNL     1       7.143   6.663  17.832  0.00  0.00    +0.000 A 
ATOM     16 BR   UNL     1       7.959   8.339  17.765  0.00  0.00    +0.000 Br
ATOM     17  C   UNL     1       7.554   5.587  18.627  0.00  0.00    +0.000 A 
ATOM     18  N   UNL     1       6.753   4.526  18.472  0.00  0.00    +0.000 NA
ENDBRANCH  12  13
ENDBRANCH  11  12
ENDBRANCH   1  11
TORSDOF 8
ENDMDL
MODEL 9
REMARK VINA RESULT:      -5.5      2.946      3.780
REMARK  Name = 
REMARK  10 active torsions:
REMARK  status: ('A' for Active; 'I' for Inactive)
REMARK    1  A    between atoms: C_1  and  C_2
REMARK    2  A    between atoms: C_2  and  C_3
REMARK    3  A    between atoms: C_3  and  C_4
REMARK    4  A    between atoms: C_3  and  C_6
REMARK    5  A    between atoms: C_3  and  N_8
REMARK    6  A    between atoms: C_4  and  C_5
REMARK    7  A    between atoms: C_6  and  O_7
REMARK    8  A    between atoms: N_8  and  C_9
REMARK    9  A    between atoms: C_9  and  C_10
REMARK   10  A    between atoms: C_10  and  N_11
REMARK                            x       y       z     vdW  Elec       q    Type
REMARK                         _______ _______ _______ _____ _____    ______ ____
ROOT
ATOM      1  N   UNL     1       3.600   4.152  19.589  0.00  0.00    +0.000 NA
ATOM      2  H   UNL     1       3.800   3.873  20.547  0.00  0.00    +0.000 HD
ENDROOT
BRANCH   1   3
ATOM      3  C   UNL     1       2.148   4.502  19.475  0.00  0.00    +0.000 C 
BRANCH   3   5
ATOM      4  C   UNL     1       2.289   7.120  19.706  0.00  0.00    +0.000 C 
ATOM      5  C   UNL     1       1.928   5.782  20.348  0.00  0.00    +0.000 C 
ENDBRANCH   3   5
BRANCH   3   6
ATOM      6  C   UNL     1       1.271   3.317  19.984  0.00  0.00    +0.000 C 
ATOM      7  C   UNL     1       1.543   2.845  21.410  0.00  0.00    +0.000 C 
ENDBRANCH   3   6
BRANCH   3   8
ATOM      8  C   UNL     1       1.752   4.848  17.996  0.00  0.00    +0.000 C 
BRANCH   8   9
ATOM      9  O   UNL     1       1.073   3.790  17.318  0.00  0.00    +0.000 OA
ATOM     10  H   UNL     1       0.443   4.191  16.700  0.00  0.00    +0.000 HD
ENDBRANCH   8   9
ENDBRANCH   3   8
ENDBRANCH   1   3
BRANCH   1  11
ATOM     11  C   UNL     1       4.052   3.079  18.688  0.00  0.00    +0.000 C 
BRANCH  11  12
ATOM     12  C   UNL     1       4.837   3.611  17.484  0.00  0.00    +0.000 C 
BRANCH  12  13
ATOM     13  N   UNL     1       5.787   4.640  17.881  0.00  0.00    +0.000 N 
ATOM     14  C   UNL     1       6.082   5.793  17.210  0.00  0.00    +0.000 A 
ATOM     15  C   UNL     1       6.993   6.446  17.996  0.00  0.00    +0.000 A 
ATOM     16 BR   UNL     1       7.804   8.099  17.697  0.00  0.00    +0.000 Br
ATOM     17  C   UNL     1       7.210   5.619  19.104  0.00  0.00    +0.000 A 
ATOM     18  N   UNL     1       6.465   4.509  19.045  0.00  0.00    +0.000 NA
ENDBRANCH  12  13
ENDBRANCH  11  12
ENDBRANCH   1  11
TORSDOF 8
ENDMDL
