MODEL 1
REMARK VINA RESULT:      -8.2      0.000      0.000
REMARK  Name = 
REMARK  3 active torsions:
REMARK  status: ('A' for Active; 'I' for Inactive)
REMARK    1  A    between atoms: C_1  and  S_2
REMARK    2  A    between atoms: S_2  and  N_5
REMARK    3  A    between atoms: N_15  and  C_16
REMARK                            x       y       z     vdW  Elec       q    Type
REMARK                         _______ _______ _______ _____ _____    ______ ____
ROOT
ATOM      1  N   UNL     1       3.448   3.407  20.690  0.00  0.00    +0.000 NA
ATOM      2  C   UNL     1       2.112   2.880  21.034  0.00  0.00    +0.000 C 
ATOM      3  C   UNL     1       1.129   3.100  19.892  0.00  0.00    +0.000 C 
ATOM      4  C   UNL     1       1.095   4.553  19.433  0.00  0.00    +0.000 C 
ATOM      5  C   UNL     1       2.489   5.137  19.136  0.00  0.00    +0.000 C 
ATOM      6  C   UNL     1       2.363   6.663  18.915  0.00  0.00    +0.000 C 
ATOM      7  C   UNL     1       3.546   7.018  18.035  0.00  0.00    +0.000 C 
ATOM      8  N   UNL     1       3.789   5.827  17.254  0.00  0.00    +0.000 N 
ATOM      9  C   UNL     1       4.734   5.860  16.248  0.00  0.00    +0.000 C 
ATOM     10  O   UNL     1       5.365   6.895  16.030  0.00  0.00    +0.000 OA
ATOM     11  N   UNL     1       4.857   4.692  15.530  0.00  0.00    +0.000 N 
ATOM     12  C   UNL     1       3.068   4.675  17.781  0.00  0.00    +0.000 C 
ATOM     13  C   UNL     1       3.454   4.839  20.303  0.00  0.00    +0.000 C 
ATOM     14  H   UNL     1       4.097   4.038  15.624  0.00  0.00    +0.000 HD
ENDROOT
BRANCH  11  15
ATOM     15  C   UNL     1       5.752   4.477  14.461  0.00  0.00    +0.000 A 
ATOM     16  C   UNL     1       6.983   5.134  14.349  0.00  0.00    +0.000 A 
ATOM     17  C   UNL     1       7.794   4.955  13.226  0.00  0.00    +0.000 A 
ATOM     18  C   UNL     1       7.383   4.103  12.204  0.00  0.00    +0.000 A 
ATOM     19  C   UNL     1       6.185   3.413  12.339  0.00  0.00    +0.000 A 
ATOM     20  F   UNL     1       5.792   2.587  11.360  0.00  0.00    +0.000 F 
ATOM     21  C   UNL     1       5.375   3.576  13.461  0.00  0.00    +0.000 A 
ENDBRANCH  11  15
BRANCH   1  23
ATOM     22  C   UNL     1       3.596   1.358  18.945  0.00  0.00    +0.000 C 
ATOM     23  S   UNL     1       4.596   2.356  20.026  0.00  0.00    +0.000 S 
ATOM     24  O   UNL     1       5.089   1.493  21.077  0.00  0.00    +0.000 OA
ATOM     25  O   UNL     1       5.497   3.150  19.222  0.00  0.00    +0.000 OA
ENDBRANCH   1  23
TORSDOF 2
ENDMDL
MODEL 2
REMARK VINA RESULT:      -7.9      4.521      7.257
REMARK  Name = 
REMARK  3 active torsions:
REMARK  status: ('A' for Active; 'I' for Inactive)
REMARK    1  A    between atoms: C_1  and  S_2
REMARK    2  A    between atoms: S_2  and  N_5
REMARK    3  A    between atoms: N_15  and  C_16
REMARK                            x       y       z     vdW  Elec       q    Type
REMARK                         _______ _______ _______ _____ _____    ______ ____
ROOT
ATOM      1  N   UNL     1       2.689   2.819  18.289  0.00  0.00    +0.000 NA
ATOM      2  C   UNL     1       3.709   1.976  18.943  0.00  0.00    +0.000 C 
ATOM      3  C   UNL     1       4.695   2.827  19.733  0.00  0.00    +0.000 C 
ATOM      4  C   UNL     1       5.299   3.943  18.888  0.00  0.00    +0.000 C 
ATOM      5  C   UNL     1       4.247   4.789  18.145  0.00  0.00    +0.000 C 
ATOM      6  C   UNL     1       4.964   5.724  17.143  0.00  0.00    +0.000 C 
ATOM      7  C   UNL     1       4.015   6.892  16.967  0.00  0.00    +0.000 C 
ATOM      8  N   UNL     1       3.318   6.988  18.230  0.00  0.00    +0.000 N 
ATOM      9  C   UNL     1       2.459   8.046  18.449  0.00  0.00    +0.000 C 
ATOM     10  O   UNL     1       2.287   8.892  17.570  0.00  0.00    +0.000 OA
ATOM     11  N   UNL     1       1.882   8.076  19.698  0.00  0.00    +0.000 N 
ATOM     12  C   UNL     1       3.528   5.806  19.057  0.00  0.00    +0.000 C 
ATOM     13  C   UNL     1       3.247   3.873  17.407  0.00  0.00    +0.000 C 
ATOM     14  H   UNL     1       2.322   7.500  20.398  0.00  0.00    +0.000 HD
ENDROOT
BRANCH  11  15
ATOM     15  C   UNL     1       0.971   9.049  20.158  0.00  0.00    +0.000 A 
ATOM     16  C   UNL     1       0.433  10.045  19.334  0.00  0.00    +0.000 A 
ATOM     17  C   UNL     1      -0.395  11.041  19.856  0.00  0.00    +0.000 A 
ATOM     18  C   UNL     1      -0.705  11.042  21.214  0.00  0.00    +0.000 A 
ATOM     19  C   UNL     1      -0.213  10.024  22.022  0.00  0.00    +0.000 A 
ATOM     20  F   UNL     1      -0.516  10.019  23.327  0.00  0.00    +0.000 F 
ATOM     21  C   UNL     1       0.605   9.020  21.507  0.00  0.00    +0.000 A 
ENDBRANCH  11  15
BRANCH   1  23
ATOM     22  C   UNL     1       1.574   2.501  20.723  0.00  0.00    +0.000 C 
ATOM     23  S   UNL     1       1.217   3.084  19.081  0.00  0.00    +0.000 S 
ATOM     24  O   UNL     1       0.225   2.196  18.512  0.00  0.00    +0.000 OA
ATOM     25  O   UNL     1       1.003   4.512  19.132  0.00  0.00    +0.000 OA
ENDBRANCH   1  23
TORSDOF 2
ENDMDL
MODEL 3
REMARK VINA RESULT:      -7.9      4.104      6.739
REMARK  Name = 
REMARK  3 active torsions:
REMARK  status: ('A' for Active; 'I' for Inactive)
REMARK    1  A    between atoms: C_1  and  S_2
REMARK    2  A    between atoms: S_2  and  N_5
REMARK    3  A    between atoms: N_15  and  C_16
REMARK                            x       y       z     vdW  Elec       q    Type
REMARK                         _______ _______ _______ _____ _____    ______ ____
ROOT
ATOM      1  N   UNL     1       2.783   2.855  17.945  0.00  0.00    +0.000 NA
ATOM      2  C   UNL     1       3.566   1.989  18.849  0.00  0.00    +0.000 C 
ATOM      3  C   UNL     1       4.367   2.819  19.842  0.00  0.00    +0.000 C 
ATOM      4  C   UNL     1       5.217   3.881  19.152  0.00  0.00    +0.000 C 
ATOM      5  C   UNL     1       4.426   4.748  18.155  0.00  0.00    +0.000 C 
ATOM      6  C   UNL     1       5.415   5.619  17.345  0.00  0.00    +0.000 C 
ATOM      7  C   UNL     1       4.599   6.822  16.915  0.00  0.00    +0.000 C 
ATOM      8  N   UNL     1       3.617   6.988  17.963  0.00  0.00    +0.000 N 
ATOM      9  C   UNL     1       2.785   8.090  17.940  0.00  0.00    +0.000 C 
ATOM     10  O   UNL     1       2.878   8.913  17.030  0.00  0.00    +0.000 OA
ATOM     11  N   UNL     1       1.918   8.183  19.006  0.00  0.00    +0.000 N 
ATOM     12  C   UNL     1       3.555   5.825  18.838  0.00  0.00    +0.000 C 
ATOM     13  C   UNL     1       3.595   3.855  17.209  0.00  0.00    +0.000 C 
ATOM     14  H   UNL     1       2.142   7.611  19.804  0.00  0.00    +0.000 HD
ENDROOT
BRANCH  11  15
ATOM     15  C   UNL     1       0.972   9.209  19.205  0.00  0.00    +0.000 A 
ATOM     16  C   UNL     1       0.787   9.853  20.434  0.00  0.00    +0.000 A 
ATOM     17  C   UNL     1      -0.225  10.800  20.605  0.00  0.00    +0.000 A 
ATOM     18  C   UNL     1      -1.059  11.122  19.537  0.00  0.00    +0.000 A 
ATOM     19  C   UNL     1      -0.843  10.521  18.304  0.00  0.00    +0.000 A 
ATOM     20  F   UNL     1      -1.640  10.836  17.274  0.00  0.00    +0.000 F 
ATOM     21  C   UNL     1       0.172   9.584  18.121  0.00  0.00    +0.000 A 
ENDBRANCH  11  15
BRANCH   1  23
ATOM     22  C   UNL     1       1.330   3.789  20.014  0.00  0.00    +0.000 C 
ATOM     23  S   UNL     1       1.176   3.209  18.340  0.00  0.00    +0.000 S 
ATOM     24  O   UNL     1       0.431   1.969  18.378  0.00  0.00    +0.000 OA
ATOM     25  O   UNL     1       0.757   4.310  17.503  0.00  0.00    +0.000 OA
ENDBRANCH   1  23
TORSDOF 2
ENDMDL
MODEL 4
REMARK VINA RESULT:      -7.8      2.084      2.483
REMARK  Name = 
REMARK  3 active torsions:
REMARK  status: ('A' for Active; 'I' for Inactive)
REMARK    1  A    between atoms: C_1  and  S_2
REMARK    2  A    between atoms: S_2  and  N_5
REMARK    3  A    between atoms: N_15  and  C_16
REMARK                            x       y       z     vdW  Elec       q    Type
REMARK                         _______ _______ _______ _____ _____    ______ ____
ROOT
ATOM      1  N   UNL     1       2.525   3.488  19.520  0.00  0.00    +0.000 NA
ATOM      2  C   UNL     1       1.536   4.450  20.045  0.00  0.00    +0.000 C 
ATOM      3  C   UNL     1       1.791   5.848  19.498  0.00  0.00    +0.000 C 
ATOM      4  C   UNL     1       3.232   6.298  19.716  0.00  0.00    +0.000 C 
ATOM      5  C   UNL     1       4.275   5.272  19.233  0.00  0.00    +0.000 C 
ATOM      6  C   UNL     1       5.678   5.713  19.713  0.00  0.00    +0.000 C 
ATOM      7  C   UNL     1       6.634   5.091  18.715  0.00  0.00    +0.000 C 
ATOM      8  N   UNL     1       5.881   5.026  17.482  0.00  0.00    +0.000 N 
ATOM      9  C   UNL     1       6.515   4.619  16.325  0.00  0.00    +0.000 C 
ATOM     10  O   UNL     1       7.706   4.308  16.351  0.00  0.00    +0.000 OA
ATOM     11  N   UNL     1       5.727   4.638  15.196  0.00  0.00    +0.000 N 
ATOM     12  C   UNL     1       4.461   5.266  17.701  0.00  0.00    +0.000 C 
ATOM     13  C   UNL     1       3.936   3.868  19.776  0.00  0.00    +0.000 C 
ATOM     14  H   UNL     1       4.877   5.174  15.264  0.00  0.00    +0.000 HD
ENDROOT
BRANCH  11  15
ATOM     15  C   UNL     1       6.142   4.264  13.901  0.00  0.00    +0.000 A 
ATOM     16  C   UNL     1       7.233   4.849  13.247  0.00  0.00    +0.000 A 
ATOM     17  C   UNL     1       7.548   4.509  11.930  0.00  0.00    +0.000 A 
ATOM     18  C   UNL     1       6.778   3.566  11.255  0.00  0.00    +0.000 A 
ATOM     19  C   UNL     1       5.726   2.949  11.920  0.00  0.00    +0.000 A 
ATOM     20  F   UNL     1       4.988   2.036  11.274  0.00  0.00    +0.000 F 
ATOM     21  C   UNL     1       5.411   3.273  13.238  0.00  0.00    +0.000 A 
ENDBRANCH  11  15
BRANCH   1  23
ATOM     22  C   UNL     1       3.603   1.603  17.923  0.00  0.00    +0.000 C 
ATOM     23  S   UNL     1       2.138   2.589  18.140  0.00  0.00    +0.000 S 
ATOM     24  O   UNL     1       2.054   3.493  17.013  0.00  0.00    +0.000 OA
ATOM     25  O   UNL     1       1.039   1.717  18.485  0.00  0.00    +0.000 OA
ENDBRANCH   1  23
TORSDOF 2
ENDMDL
MODEL 5
REMARK VINA RESULT:      -7.8      3.890      7.308
REMARK  Name = 
REMARK  3 active torsions:
REMARK  status: ('A' for Active; 'I' for Inactive)
REMARK    1  A    between atoms: C_1  and  S_2
REMARK    2  A    between atoms: S_2  and  N_5
REMARK    3  A    between atoms: N_15  and  C_16
REMARK                            x       y       z     vdW  Elec       q    Type
REMARK                         _______ _______ _______ _____ _____    ______ ____
ROOT
ATOM      1  N   UNL     1       6.924   4.990  17.005  0.00  0.00    +0.000 NA
ATOM      2  C   UNL     1       7.070   4.687  15.568  0.00  0.00    +0.000 C 
ATOM      3  C   UNL     1       5.717   4.681  14.871  0.00  0.00    +0.000 C 
ATOM      4  C   UNL     1       4.713   3.772  15.571  0.00  0.00    +0.000 C 
ATOM      5  C   UNL     1       4.600   4.032  17.085  0.00  0.00    +0.000 C 
ATOM      6  C   UNL     1       3.748   2.912  17.729  0.00  0.00    +0.000 C 
ATOM      7  C   UNL     1       3.164   3.548  18.975  0.00  0.00    +0.000 C 
ATOM      8  N   UNL     1       3.039   4.950  18.643  0.00  0.00    +0.000 N 
ATOM      9  C   UNL     1       2.411   5.801  19.531  0.00  0.00    +0.000 C 
ATOM     10  O   UNL     1       1.972   5.365  20.596  0.00  0.00    +0.000 OA
ATOM     11  N   UNL     1       2.299   7.104  19.103  0.00  0.00    +0.000 N 
ATOM     12  C   UNL     1       3.770   5.288  17.429  0.00  0.00    +0.000 C 
ATOM     13  C   UNL     1       6.003   4.078  17.727  0.00  0.00    +0.000 C 
ATOM     14  H   UNL     1       2.439   7.255  18.117  0.00  0.00    +0.000 HD
ENDROOT
BRANCH  11  15
ATOM     15  C   UNL     1       1.705   8.157  19.830  0.00  0.00    +0.000 A 
ATOM     16  C   UNL     1       1.485   8.106  21.211  0.00  0.00    +0.000 A 
ATOM     17  C   UNL     1       0.810   9.136  21.870  0.00  0.00    +0.000 A 
ATOM     18  C   UNL     1       0.358  10.240  21.151  0.00  0.00    +0.000 A 
ATOM     19  C   UNL     1       0.622  10.314  19.789  0.00  0.00    +0.000 A 
ATOM     20  F   UNL     1       0.194  11.378  19.096  0.00  0.00    +0.000 F 
ATOM     21  C   UNL     1       1.304   9.296  19.125  0.00  0.00    +0.000 A 
ENDBRANCH  11  15
BRANCH   1  23
ATOM     22  C   UNL     1       7.968   6.387  19.061  0.00  0.00    +0.000 C 
ATOM     23  S   UNL     1       7.094   6.591  17.526  0.00  0.00    +0.000 S 
ATOM     24  O   UNL     1       5.781   7.111  17.841  0.00  0.00    +0.000 OA
ATOM     25  O   UNL     1       7.960   7.263  16.584  0.00  0.00    +0.000 OA
ENDBRANCH   1  23
TORSDOF 2
ENDMDL
MODEL 6
REMARK VINA RESULT:      -7.8      4.517      7.427
REMARK  Name = 
REMARK  3 active torsions:
REMARK  status: ('A' for Active; 'I' for Inactive)
REMARK    1  A    between atoms: C_1  and  S_2
REMARK    2  A    between atoms: S_2  and  N_5
REMARK    3  A    between atoms: N_15  and  C_16
REMARK                            x       y       z     vdW  Elec       q    Type
REMARK                         _______ _______ _______ _____ _____    ______ ____
ROOT
ATOM      1  N   UNL     1       2.476   2.894  18.474  0.00  0.00    +0.000 NA
ATOM      2  C   UNL     1       3.578   2.016  18.913  0.00  0.00    +0.000 C 
ATOM      3  C   UNL     1       4.655   2.812  19.638  0.00  0.00    +0.000 C 
ATOM      4  C   UNL     1       5.136   4.006  18.821  0.00  0.00    +0.000 C 
ATOM      5  C   UNL     1       3.991   4.895  18.299  0.00  0.00    +0.000 C 
ATOM      6  C   UNL     1       4.566   5.924  17.298  0.00  0.00    +0.000 C 
ATOM      7  C   UNL     1       3.595   7.088  17.350  0.00  0.00    +0.000 C 
ATOM      8  N   UNL     1       3.070   7.063  18.697  0.00  0.00    +0.000 N 
ATOM      9  C   UNL     1       2.242   8.084  19.118  0.00  0.00    +0.000 C 
ATOM     10  O   UNL     1       1.951   8.999  18.346  0.00  0.00    +0.000 OA
ATOM     11  N   UNL     1       1.835   7.997  20.430  0.00  0.00    +0.000 N 
ATOM     12  C   UNL     1       3.393   5.818  19.383  0.00  0.00    +0.000 C 
ATOM     13  C   UNL     1       2.908   4.029  17.622  0.00  0.00    +0.000 C 
ATOM     14  H   UNL     1       2.367   7.370  21.012  0.00  0.00    +0.000 HD
ENDROOT
BRANCH  11  15
ATOM     15  C   UNL     1       0.987   8.912  21.088  0.00  0.00    +0.000 A 
ATOM     16  C   UNL     1       0.821   8.939  22.477  0.00  0.00    +0.000 A 
ATOM     17  C   UNL     1      -0.098   9.804  23.075  0.00  0.00    +0.000 A 
ATOM     18  C   UNL     1      -0.857  10.663  22.283  0.00  0.00    +0.000 A 
ATOM     19  C   UNL     1      -0.655  10.671  20.909  0.00  0.00    +0.000 A 
ATOM     20  F   UNL     1      -1.378  11.502  20.146  0.00  0.00    +0.000 F 
ATOM     21  C   UNL     1       0.269   9.820  20.305  0.00  0.00    +0.000 A 
ENDBRANCH  11  15
BRANCH   1  23
ATOM     22  C   UNL     1       1.720   2.426  21.019  0.00  0.00    +0.000 C 
ATOM     23  S   UNL     1       1.120   3.066  19.472  0.00  0.00    +0.000 S 
ATOM     24  O   UNL     1       0.089   2.166  19.002  0.00  0.00    +0.000 OA
ATOM     25  O   UNL     1       0.868   4.481  19.621  0.00  0.00    +0.000 OA
ENDBRANCH   1  23
TORSDOF 2
ENDMDL
MODEL 7
REMARK VINA RESULT:      -7.7      4.121      7.389
REMARK  Name = 
REMARK  3 active torsions:
REMARK  status: ('A' for Active; 'I' for Inactive)
REMARK    1  A    between atoms: C_1  and  S_2
REMARK    2  A    between atoms: S_2  and  N_5
REMARK    3  A    between atoms: N_15  and  C_16
REMARK                            x       y       z     vdW  Elec       q    Type
REMARK                         _______ _______ _______ _____ _____    ______ ____
ROOT
ATOM      1  N   UNL     1       6.865   4.911  17.120  0.00  0.00    +0.000 NA
ATOM      2  C   UNL     1       7.008   4.517  15.704  0.00  0.00    +0.000 C 
ATOM      3  C   UNL     1       5.654   4.476  15.009  0.00  0.00    +0.000 C 
ATOM      4  C   UNL     1       4.644   3.621  15.765  0.00  0.00    +0.000 C 
ATOM      5  C   UNL     1       4.533   3.977  17.259  0.00  0.00    +0.000 C 
ATOM      6  C   UNL     1       3.673   2.907  17.972  0.00  0.00    +0.000 C 
ATOM      7  C   UNL     1       3.094   3.626  19.175  0.00  0.00    +0.000 C 
ATOM      8  N   UNL     1       2.979   5.004  18.755  0.00  0.00    +0.000 N 
ATOM      9  C   UNL     1       2.358   5.914  19.587  0.00  0.00    +0.000 C 
ATOM     10  O   UNL     1       1.916   5.550  20.677  0.00  0.00    +0.000 OA
ATOM     11  N   UNL     1       2.255   7.189  19.078  0.00  0.00    +0.000 N 
ATOM     12  C   UNL     1       3.713   5.258  17.522  0.00  0.00    +0.000 C 
ATOM     13  C   UNL     1       5.937   4.053  17.897  0.00  0.00    +0.000 C 
ATOM     14  H   UNL     1       2.396   7.276  18.084  0.00  0.00    +0.000 HD
ENDROOT
BRANCH  11  15
ATOM     15  C   UNL     1       1.669   8.290  19.736  0.00  0.00    +0.000 A 
ATOM     16  C   UNL     1       1.230   9.438  19.065  0.00  0.00    +0.000 A 
ATOM     17  C   UNL     1       0.740  10.539  19.770  0.00  0.00    +0.000 A 
ATOM     18  C   UNL     1       0.671  10.496  21.161  0.00  0.00    +0.000 A 
ATOM     19  C   UNL     1       1.059   9.338  21.823  0.00  0.00    +0.000 A 
ATOM     20  F   UNL     1       0.987   9.292  23.160  0.00  0.00    +0.000 F 
ATOM     21  C   UNL     1       1.539   8.230  21.126  0.00  0.00    +0.000 A 
ENDBRANCH  11  15
BRANCH   1  23
ATOM     22  C   UNL     1       7.936   6.429  19.073  0.00  0.00    +0.000 C 
ATOM     23  S   UNL     1       7.046   6.541  17.537  0.00  0.00    +0.000 S 
ATOM     24  O   UNL     1       5.739   7.085  17.834  0.00  0.00    +0.000 OA
ATOM     25  O   UNL     1       7.904   7.149  16.546  0.00  0.00    +0.000 OA
ENDBRANCH   1  23
TORSDOF 2
ENDMDL
MODEL 8
REMARK VINA RESULT:      -7.7      0.986      1.390
REMARK  Name = 
REMARK  3 active torsions:
REMARK  status: ('A' for Active; 'I' for Inactive)
REMARK    1  A    between atoms: C_1  and  S_2
REMARK    2  A    between atoms: S_2  and  N_5
REMARK    3  A    between atoms: N_15  and  C_16
REMARK                            x       y       z     vdW  Elec       q    Type
REMARK                         _______ _______ _______ _____ _____    ______ ____
ROOT
ATOM      1  N   UNL     1       3.535   3.422  20.542  0.00  0.00    +0.000 NA
ATOM      2  C   UNL     1       2.193   2.939  20.922  0.00  0.00    +0.000 C 
ATOM      3  C   UNL     1       1.178   3.225  19.824  0.00  0.00    +0.000 C 
ATOM      4  C   UNL     1       1.184   4.690  19.401  0.00  0.00    +0.000 C 
ATOM      5  C   UNL     1       2.589   5.227  19.066  0.00  0.00    +0.000 C 
ATOM      6  C   UNL     1       2.515   6.761  18.886  0.00  0.00    +0.000 C 
ATOM      7  C   UNL     1       3.678   7.093  17.972  0.00  0.00    +0.000 C 
ATOM      8  N   UNL     1       3.846   5.913  17.154  0.00  0.00    +0.000 N 
ATOM      9  C   UNL     1       4.755   5.936  16.115  0.00  0.00    +0.000 C 
ATOM     10  O   UNL     1       5.418   6.951  15.899  0.00  0.00    +0.000 OA
ATOM     11  N   UNL     1       4.806   4.783  15.365  0.00  0.00    +0.000 N 
ATOM     12  C   UNL     1       3.100   4.777  17.680  0.00  0.00    +0.000 C 
ATOM     13  C   UNL     1       3.583   4.863  20.190  0.00  0.00    +0.000 C 
ATOM     14  H   UNL     1       4.024   4.156  15.471  0.00  0.00    +0.000 HD
ENDROOT
BRANCH  11  15
ATOM     15  C   UNL     1       5.653   4.561  14.259  0.00  0.00    +0.000 A 
ATOM     16  C   UNL     1       5.364   3.639  13.246  0.00  0.00    +0.000 A 
ATOM     17  C   UNL     1       6.277   3.390  12.219  0.00  0.00    +0.000 A 
ATOM     18  C   UNL     1       7.490   4.074  12.190  0.00  0.00    +0.000 A 
ATOM     19  C   UNL     1       7.754   5.025  13.167  0.00  0.00    +0.000 A 
ATOM     20  F   UNL     1       8.917   5.689  13.136  0.00  0.00    +0.000 F 
ATOM     21  C   UNL     1       6.844   5.289  14.189  0.00  0.00    +0.000 A 
ENDBRANCH  11  15
BRANCH   1  23
ATOM     22  C   UNL     1       3.538   1.412  18.747  0.00  0.00    +0.000 C 
ATOM     23  S   UNL     1       4.616   2.345  19.811  0.00  0.00    +0.000 S 
ATOM     24  O   UNL     1       5.115   1.440  20.823  0.00  0.00    +0.000 OA
ATOM     25  O   UNL     1       5.516   3.124  18.991  0.00  0.00    +0.000 OA
ENDBRANCH   1  23
TORSDOF 2
ENDMDL
MODEL 9
REMARK VINA RESULT:      -7.5      4.617      7.293
REMARK  Name = 
REMARK  3 active torsions:
REMARK  status: ('A' for Active; 'I' for Inactive)
REMARK    1  A    between atoms: C_1  and  S_2
REMARK    2  A    between atoms: S_2  and  N_5
REMARK    3  A    between atoms: N_15  and  C_16
REMARK                            x       y       z     vdW  Elec       q    Type
REMARK                         _______ _______ _______ _____ _____    ______ ____
ROOT
ATOM      1  N   UNL     1       5.450   5.189  17.769  0.00  0.00    +0.000 NA
ATOM      2  C   UNL     1       5.263   4.009  16.901  0.00  0.00    +0.000 C 
ATOM      3  C   UNL     1       3.787   3.770  16.616  0.00  0.00    +0.000 C 
ATOM      4  C   UNL     1       2.956   3.706  17.893  0.00  0.00    +0.000 C 
ATOM      5  C   UNL     1       3.192   4.898  18.840  0.00  0.00    +0.000 C 
ATOM      6  C   UNL     1       2.494   4.617  20.191  0.00  0.00    +0.000 C 
ATOM      7  C   UNL     1       2.215   5.991  20.768  0.00  0.00    +0.000 C 
ATOM      8  N   UNL     1       2.036   6.841  19.612  0.00  0.00    +0.000 N 
ATOM      9  C   UNL     1       1.636   8.150  19.792  0.00  0.00    +0.000 C 
ATOM     10  O   UNL     1       1.444   8.585  20.928  0.00  0.00    +0.000 OA
ATOM     11  N   UNL     1       1.446   8.863  18.629  0.00  0.00    +0.000 N 
ATOM     12  C   UNL     1       2.477   6.189  18.386  0.00  0.00    +0.000 C 
ATOM     13  C   UNL     1       4.704   5.123  19.050  0.00  0.00    +0.000 C 
ATOM     14  H   UNL     1       1.361   8.314  17.788  0.00  0.00    +0.000 HD
ENDROOT
BRANCH  11  15
ATOM     15  C   UNL     1       1.045  10.212  18.552  0.00  0.00    +0.000 A 
ATOM     16  C   UNL     1       1.949  11.281  18.531  0.00  0.00    +0.000 A 
ATOM     17  C   UNL     1       1.501  12.603  18.544  0.00  0.00    +0.000 A 
ATOM     18  C   UNL     1       0.134  12.870  18.567  0.00  0.00    +0.000 A 
ATOM     19  C   UNL     1      -0.764  11.811  18.536  0.00  0.00    +0.000 A 
ATOM     20  F   UNL     1      -2.079  12.066  18.550  0.00  0.00    +0.000 F 
ATOM     21  C   UNL     1      -0.325  10.488  18.511  0.00  0.00    +0.000 A 
ENDBRANCH  11  15
BRANCH   1  23
ATOM     22  C   UNL     1       7.436   6.996  17.538  0.00  0.00    +0.000 C 
ATOM     23  S   UNL     1       5.752   6.692  17.053  0.00  0.00    +0.000 S 
ATOM     24  O   UNL     1       4.927   7.684  17.707  0.00  0.00    +0.000 OA
ATOM     25  O   UNL     1       5.708   6.505  15.620  0.00  0.00    +0.000 OA
ENDBRANCH   1  23
TORSDOF 2
ENDMDL
