MODEL 1
REMARK VINA RESULT:      -8.2      0.000      0.000
REMARK  Name = 
REMARK  8 active torsions:
REMARK  status: ('A' for Active; 'I' for Inactive)
REMARK    1  A    between atoms: C_2  and  C_3
REMARK    2  A    between atoms: C_5  and  C_6
REMARK    3  A    between atoms: N_11  and  C_12
REMARK    4  A    between atoms: C_15  and  C_16
REMARK    5  A    between atoms: C_16  and  N_17
REMARK    6  A    between atoms: C_28  and  N_29
REMARK    7  A    between atoms: C_33  and  C_34
REMARK    8  A    between atoms: C_34  and  C_35
REMARK                            x       y       z     vdW  Elec       q    Type
REMARK                         _______ _______ _______ _____ _____    ______ ____
ROOT
ATOM      1  C   UNL     1       1.329   9.546  19.451  0.00  0.00    +0.000 A 
ATOM      2  C   UNL     1       1.340  10.579  18.531  0.00  0.00    +0.000 A 
ATOM      3  C   UNL     1       0.827  11.777  18.949  0.00  0.00    +0.000 A 
ATOM      4  N   UNL     1       0.335  11.971  20.178  0.00  0.00    +0.000 NA
ATOM      5  C   UNL     1       0.358  10.936  21.026  0.00  0.00    +0.000 A 
ATOM      6  N   UNL     1      -0.165  11.064  22.315  0.00  0.00    +0.000 N 
ATOM      7  N   UNL     1       0.846   9.724  20.704  0.00  0.00    +0.000 NA
ATOM      8  H   UNL     1      -0.191  10.144  22.732  0.00  0.00    +0.000 HD
ENDROOT
BRANCH   1  11
ATOM      9  C   UNL     1       2.263   5.861  19.684  0.00  0.00    +0.000 A 
ATOM     10  C   UNL     1       1.854   7.153  20.047  0.00  0.00    +0.000 A 
ATOM     11  C   UNL     1       1.882   8.212  19.136  0.00  0.00    +0.000 A 
ATOM     12  C   UNL     1       2.410   7.894  17.895  0.00  0.00    +0.000 A 
ATOM     13  N   UNL     1       2.809   6.644  17.511  0.00  0.00    +0.000 NA
ATOM     14  C   UNL     1       2.742   5.613  18.389  0.00  0.00    +0.000 A 
BRANCH  14  15
ATOM     15  N   UNL     1       3.088   4.363  17.924  0.00  0.00    +0.000 N 
ATOM     16  C   UNL     1       2.124   3.361  17.480  0.00  0.00    +0.000 C 
ATOM     17  C   UNL     1       2.646   2.061  18.069  0.00  0.00    +0.000 C 
ATOM     18  C   UNL     1       4.151   2.234  18.019  0.00  0.00    +0.000 C 
ATOM     19  C   UNL     1       4.386   3.740  18.268  0.00  0.00    +0.000 C 
BRANCH  19  20
ATOM     20  C   UNL     1       5.467   4.307  17.341  0.00  0.00    +0.000 C 
BRANCH  20  21
ATOM     21  C   UNL     1       6.743   4.673  18.057  0.00  0.00    +0.000 C 
ATOM     22  N   UNL     1       7.879   4.337  17.375  0.00  0.00    +0.000 N 
ATOM     23  O   UNL     1       6.810   5.204  19.157  0.00  0.00    +0.000 OA
ATOM     24  H   UNL     1       7.868   4.000  16.422  0.00  0.00    +0.000 HD
ATOM     25  H   UNL     1       8.767   4.578  17.796  0.00  0.00    +0.000 HD
ENDBRANCH  20  21
ENDBRANCH  19  20
ENDBRANCH  14  15
BRANCH   9  27
ATOM     26  N   UNL     1       1.966   4.029  21.485  0.00  0.00    +0.000 NA
ATOM     27  C   UNL     1       2.085   4.831  20.659  0.00  0.00    +0.000 C 
ENDBRANCH   9  27
ENDBRANCH   1  11
BRANCH   6  28
ATOM     28  C   UNL     1      -1.093  11.991  22.813  0.00  0.00    +0.000 A 
ATOM     29  C   UNL     1      -2.360  11.545  23.190  0.00  0.00    +0.000 A 
ATOM     30  C   UNL     1      -3.340  12.451  23.595  0.00  0.00    +0.000 A 
ATOM     31  C   UNL     1      -3.043  13.812  23.634  0.00  0.00    +0.000 A 
ATOM     32  N   UNL     1      -1.797  14.270  23.373  0.00  0.00    +0.000 NA
ATOM     33  C   UNL     1      -0.859  13.355  22.992  0.00  0.00    +0.000 A 
BRANCH  31  34
ATOM     34  C   UNL     1      -4.118  14.809  24.038  0.00  0.00    +0.000 C 
BRANCH  34  35
ATOM     35  N   UNL     1      -4.962  15.444  23.012  0.00  0.00    +0.000 NA
ATOM     36  C   UNL     1      -6.250  15.997  23.441  0.00  0.00    +0.000 C 
ATOM     37  C   UNL     1      -7.428  15.005  23.409  0.00  0.00    +0.000 C 
ATOM     38  O   UNL     1      -7.537  14.337  22.148  0.00  0.00    +0.000 OA
ATOM     39  C   UNL     1      -6.309  13.689  21.788  0.00  0.00    +0.000 C 
ATOM     40  C   UNL     1      -5.136  14.676  21.772  0.00  0.00    +0.000 C 
ENDBRANCH  34  35
ENDBRANCH  31  34
ENDBRANCH   6  28
TORSDOF 8
ENDMDL
MODEL 2
REMARK VINA RESULT:      -8.0      0.762      1.010
REMARK  Name = 
REMARK  8 active torsions:
REMARK  status: ('A' for Active; 'I' for Inactive)
REMARK    1  A    between atoms: C_2  and  C_3
REMARK    2  A    between atoms: C_5  and  C_6
REMARK    3  A    between atoms: N_11  and  C_12
REMARK    4  A    between atoms: C_15  and  C_16
REMARK    5  A    between atoms: C_16  and  N_17
REMARK    6  A    between atoms: C_28  and  N_29
REMARK    7  A    between atoms: C_33  and  C_34
REMARK    8  A    between atoms: C_34  and  C_35
REMARK                            x       y       z     vdW  Elec       q    Type
REMARK                         _______ _______ _______ _____ _____    ______ ____
ROOT
ATOM      1  C   UNL     1       1.396   9.396  19.508  0.00  0.00    +0.000 A 
ATOM      2  C   UNL     1       1.475  10.421  18.583  0.00  0.00    +0.000 A 
ATOM      3  C   UNL     1       0.986  11.639  18.973  0.00  0.00    +0.000 A 
ATOM      4  N   UNL     1       0.455  11.858  20.181  0.00  0.00    +0.000 NA
ATOM      5  C   UNL     1       0.412  10.830  21.036  0.00  0.00    +0.000 A 
ATOM      6  N   UNL     1      -0.153  10.984  22.304  0.00  0.00    +0.000 N 
ATOM      7  N   UNL     1       0.873   9.600  20.740  0.00  0.00    +0.000 NA
ATOM      8  H   UNL     1      -0.225  10.069  22.725  0.00  0.00    +0.000 HD
ENDROOT
BRANCH   1  11
ATOM      9  C   UNL     1       2.285   5.708  19.846  0.00  0.00    +0.000 A 
ATOM     10  C   UNL     1       1.910   7.020  20.174  0.00  0.00    +0.000 A 
ATOM     11  C   UNL     1       1.916   8.043  19.223  0.00  0.00    +0.000 A 
ATOM     12  C   UNL     1       2.389   7.669  17.975  0.00  0.00    +0.000 A 
ATOM     13  N   UNL     1       2.755   6.399  17.624  0.00  0.00    +0.000 NA
ATOM     14  C   UNL     1       2.708   5.404  18.544  0.00  0.00    +0.000 A 
BRANCH  14  15
ATOM     15  N   UNL     1       3.017   4.131  18.114  0.00  0.00    +0.000 N 
ATOM     16  C   UNL     1       2.022   3.104  17.819  0.00  0.00    +0.000 C 
ATOM     17  C   UNL     1       2.609   1.839  18.422  0.00  0.00    +0.000 C 
ATOM     18  C   UNL     1       4.100   2.013  18.217  0.00  0.00    +0.000 C 
ATOM     19  C   UNL     1       4.347   3.531  18.362  0.00  0.00    +0.000 C 
BRANCH  19  20
ATOM     20  C   UNL     1       5.328   4.051  17.305  0.00  0.00    +0.000 C 
BRANCH  20  21
ATOM     21  C   UNL     1       6.432   4.906  17.877  0.00  0.00    +0.000 C 
ATOM     22  N   UNL     1       6.147   6.242  17.893  0.00  0.00    +0.000 N 
ATOM     23  O   UNL     1       7.509   4.492  18.283  0.00  0.00    +0.000 OA
ATOM     24  H   UNL     1       5.234   6.612  17.671  0.00  0.00    +0.000 HD
ATOM     25  H   UNL     1       6.841   6.864  18.286  0.00  0.00    +0.000 HD
ENDBRANCH  20  21
ENDBRANCH  19  20
ENDBRANCH  14  15
BRANCH   9  27
ATOM     26  N   UNL     1       2.061   3.912  21.693  0.00  0.00    +0.000 NA
ATOM     27  C   UNL     1       2.132   4.719  20.866  0.00  0.00    +0.000 C 
ENDBRANCH   9  27
ENDBRANCH   1  11
BRANCH   6  28
ATOM     28  C   UNL     1      -1.069  11.945  22.761  0.00  0.00    +0.000 A 
ATOM     29  C   UNL     1      -0.675  13.282  22.819  0.00  0.00    +0.000 A 
ATOM     30  C   UNL     1      -1.523  14.248  23.361  0.00  0.00    +0.000 A 
ATOM     31  C   UNL     1      -2.779  13.872  23.835  0.00  0.00    +0.000 A 
ATOM     32  N   UNL     1      -3.233  12.605  23.703  0.00  0.00    +0.000 NA
ATOM     33  C   UNL     1      -2.382  11.687  23.157  0.00  0.00    +0.000 A 
BRANCH  31  34
ATOM     34  C   UNL     1      -3.692  14.914  24.461  0.00  0.00    +0.000 C 
BRANCH  34  35
ATOM     35  N   UNL     1      -4.493  15.806  23.607  0.00  0.00    +0.000 NA
ATOM     36  C   UNL     1      -5.786  16.261  24.127  0.00  0.00    +0.000 C 
ATOM     37  C   UNL     1      -6.977  15.336  23.812  0.00  0.00    +0.000 C 
ATOM     38  O   UNL     1      -7.055  15.010  22.420  0.00  0.00    +0.000 OA
ATOM     39  C   UNL     1      -5.826  14.447  21.941  0.00  0.00    +0.000 C 
ATOM     40  C   UNL     1      -4.638  15.380  22.209  0.00  0.00    +0.000 C 
ENDBRANCH  34  35
ENDBRANCH  31  34
ENDBRANCH   6  28
TORSDOF 8
ENDMDL
MODEL 3
REMARK VINA RESULT:      -7.9      0.928      1.389
REMARK  Name = 
REMARK  8 active torsions:
REMARK  status: ('A' for Active; 'I' for Inactive)
REMARK    1  A    between atoms: C_2  and  C_3
REMARK    2  A    between atoms: C_5  and  C_6
REMARK    3  A    between atoms: N_11  and  C_12
REMARK    4  A    between atoms: C_15  and  C_16
REMARK    5  A    between atoms: C_16  and  N_17
REMARK    6  A    between atoms: C_28  and  N_29
REMARK    7  A    between atoms: C_33  and  C_34
REMARK    8  A    between atoms: C_34  and  C_35
REMARK                            x       y       z     vdW  Elec       q    Type
REMARK                         _______ _______ _______ _____ _____    ______ ____
ROOT
ATOM      1  C   UNL     1       1.327   9.670  19.521  0.00  0.00    +0.000 A 
ATOM      2  C   UNL     1       1.384  10.726  18.628  0.00  0.00    +0.000 A 
ATOM      3  C   UNL     1       0.878  11.922  19.059  0.00  0.00    +0.000 A 
ATOM      4  N   UNL     1       0.351  12.095  20.276  0.00  0.00    +0.000 NA
ATOM      5  C   UNL     1       0.330  11.040  21.099  0.00  0.00    +0.000 A 
ATOM      6  N   UNL     1      -0.230  11.145  22.374  0.00  0.00    +0.000 N 
ATOM      7  N   UNL     1       0.808   9.827  20.762  0.00  0.00    +0.000 NA
ATOM      8  H   UNL     1      -0.285  10.216  22.767  0.00  0.00    +0.000 HD
ENDROOT
BRANCH   1  11
ATOM      9  C   UNL     1       2.295   5.994  19.746  0.00  0.00    +0.000 A 
ATOM     10  C   UNL     1       1.902   7.290  20.116  0.00  0.00    +0.000 A 
ATOM     11  C   UNL     1       1.867   8.336  19.191  0.00  0.00    +0.000 A 
ATOM     12  C   UNL     1       2.319   8.002  17.924  0.00  0.00    +0.000 A 
ATOM     13  N   UNL     1       2.701   6.749  17.533  0.00  0.00    +0.000 NA
ATOM     14  C   UNL     1       2.695   5.731  18.428  0.00  0.00    +0.000 A 
BRANCH  14  15
ATOM     15  N   UNL     1       3.019   4.476  17.960  0.00  0.00    +0.000 N 
ATOM     16  C   UNL     1       2.038   3.493  17.510  0.00  0.00    +0.000 C 
ATOM     17  C   UNL     1       2.534   2.182  18.095  0.00  0.00    +0.000 C 
ATOM     18  C   UNL     1       4.042   2.327  18.050  0.00  0.00    +0.000 C 
ATOM     19  C   UNL     1       4.304   3.828  18.304  0.00  0.00    +0.000 C 
BRANCH  19  20
ATOM     20  C   UNL     1       5.398   4.378  17.382  0.00  0.00    +0.000 C 
BRANCH  20  21
ATOM     21  C   UNL     1       6.583   4.944  18.124  0.00  0.00    +0.000 C 
ATOM     22  N   UNL     1       7.521   5.521  17.314  0.00  0.00    +0.000 N 
ATOM     23  O   UNL     1       6.747   4.899  19.335  0.00  0.00    +0.000 OA
ATOM     24  H   UNL     1       7.374   5.677  16.327  0.00  0.00    +0.000 HD
ATOM     25  H   UNL     1       8.329   5.939  17.756  0.00  0.00    +0.000 HD
ENDBRANCH  20  21
ENDBRANCH  19  20
ENDBRANCH  14  15
BRANCH   9  27
ATOM     26  N   UNL     1       2.046   4.146  21.538  0.00  0.00    +0.000 NA
ATOM     27  C   UNL     1       2.185   4.978  20.745  0.00  0.00    +0.000 C 
ENDBRANCH   9  27
ENDBRANCH   1  11
BRANCH   6  28
ATOM     28  C   UNL     1      -1.159  12.076  22.866  0.00  0.00    +0.000 A 
ATOM     29  C   UNL     1      -2.418  11.630  23.266  0.00  0.00    +0.000 A 
ATOM     30  C   UNL     1      -3.399  12.538  23.665  0.00  0.00    +0.000 A 
ATOM     31  C   UNL     1      -3.109  13.901  23.676  0.00  0.00    +0.000 A 
ATOM     32  N   UNL     1      -1.870  14.361  23.392  0.00  0.00    +0.000 NA
ATOM     33  C   UNL     1      -0.931  13.445  23.017  0.00  0.00    +0.000 A 
BRANCH  31  34
ATOM     34  C   UNL     1      -4.186  14.899  24.074  0.00  0.00    +0.000 C 
BRANCH  34  35
ATOM     35  N   UNL     1      -5.202  15.321  23.095  0.00  0.00    +0.000 NA
ATOM     36  C   UNL     1      -4.849  15.239  21.675  0.00  0.00    +0.000 C 
ATOM     37  C   UNL     1      -4.166  16.495  21.100  0.00  0.00    +0.000 C 
ATOM     38  O   UNL     1      -4.897  17.690  21.393  0.00  0.00    +0.000 OA
ATOM     39  C   UNL     1      -5.133  17.831  22.801  0.00  0.00    +0.000 C 
ATOM     40  C   UNL     1      -5.854  16.606  23.376  0.00  0.00    +0.000 C 
ENDBRANCH  34  35
ENDBRANCH  31  34
ENDBRANCH   6  28
TORSDOF 8
ENDMDL
MODEL 4
REMARK VINA RESULT:      -7.9      2.449      3.319
REMARK  Name = 
REMARK  8 active torsions:
REMARK  status: ('A' for Active; 'I' for Inactive)
REMARK    1  A    between atoms: C_2  and  C_3
REMARK    2  A    between atoms: C_5  and  C_6
REMARK    3  A    between atoms: N_11  and  C_12
REMARK    4  A    between atoms: C_15  and  C_16
REMARK    5  A    between atoms: C_16  and  N_17
REMARK    6  A    between atoms: C_28  and  N_29
REMARK    7  A    between atoms: C_33  and  C_34
REMARK    8  A    between atoms: C_34  and  C_35
REMARK                            x       y       z     vdW  Elec       q    Type
REMARK                         _______ _______ _______ _____ _____    ______ ____
ROOT
ATOM      1  C   UNL     1       0.721   9.276  21.338  0.00  0.00    +0.000 A 
ATOM      2  C   UNL     1       0.069   9.072  22.542  0.00  0.00    +0.000 A 
ATOM      3  C   UNL     1      -0.547  10.160  23.098  0.00  0.00    +0.000 A 
ATOM      4  N   UNL     1      -0.540  11.371  22.531  0.00  0.00    +0.000 NA
ATOM      5  C   UNL     1       0.100  11.506  21.364  0.00  0.00    +0.000 A 
ATOM      6  N   UNL     1       0.168  12.750  20.731  0.00  0.00    +0.000 N 
ATOM      7  N   UNL     1       0.730  10.492  20.742  0.00  0.00    +0.000 NA
ATOM      8  H   UNL     1       0.815  12.670  19.958  0.00  0.00    +0.000 HD
ENDROOT
BRANCH   1  11
ATOM      9  C   UNL     1       2.030   5.827  20.392  0.00  0.00    +0.000 A 
ATOM     10  C   UNL     1       1.502   6.888  21.145  0.00  0.00    +0.000 A 
ATOM     11  C   UNL     1       1.398   8.178  20.619  0.00  0.00    +0.000 A 
ATOM     12  C   UNL     1       1.924   8.327  19.346  0.00  0.00    +0.000 A 
ATOM     13  N   UNL     1       2.438   7.313  18.587  0.00  0.00    +0.000 NA
ATOM     14  C   UNL     1       2.499   6.055  19.090  0.00  0.00    +0.000 A 
BRANCH  14  15
ATOM     15  N   UNL     1       2.958   5.061  18.254  0.00  0.00    +0.000 N 
ATOM     16  C   UNL     1       2.091   4.180  17.479  0.00  0.00    +0.000 C 
ATOM     17  C   UNL     1       2.729   2.810  17.627  0.00  0.00    +0.000 C 
ATOM     18  C   UNL     1       4.212   3.119  17.682  0.00  0.00    +0.000 C 
ATOM     19  C   UNL     1       4.308   4.475  18.415  0.00  0.00    +0.000 C 
BRANCH  19  20
ATOM     20  C   UNL     1       5.332   5.406  17.756  0.00  0.00    +0.000 C 
BRANCH  20  21
ATOM     21  C   UNL     1       6.764   5.025  18.043  0.00  0.00    +0.000 C 
ATOM     22  N   UNL     1       7.114   5.134  19.360  0.00  0.00    +0.000 N 
ATOM     23  O   UNL     1       7.581   4.665  17.207  0.00  0.00    +0.000 OA
ATOM     24  H   UNL     1       6.445   5.320  20.093  0.00  0.00    +0.000 HD
ATOM     25  H   UNL     1       8.056   4.871  19.617  0.00  0.00    +0.000 HD
ENDBRANCH  20  21
ENDBRANCH  19  20
ENDBRANCH  14  15
BRANCH   9  27
ATOM     26  N   UNL     1       1.998   3.481  21.478  0.00  0.00    +0.000 NA
ATOM     27  C   UNL     1       1.984   4.529  20.987  0.00  0.00    +0.000 C 
ENDBRANCH   9  27
ENDBRANCH   1  11
BRANCH   6  28
ATOM     28  C   UNL     1       0.014  14.035  21.273  0.00  0.00    +0.000 A 
ATOM     29  C   UNL     1       1.129  14.685  21.803  0.00  0.00    +0.000 A 
ATOM     30  C   UNL     1       0.995  15.919  22.440  0.00  0.00    +0.000 A 
ATOM     31  C   UNL     1      -0.263  16.511  22.532  0.00  0.00    +0.000 A 
ATOM     32  N   UNL     1      -1.348  15.959  21.942  0.00  0.00    +0.000 NA
ATOM     33  C   UNL     1      -1.179  14.757  21.317  0.00  0.00    +0.000 A 
BRANCH  31  34
ATOM     34  C   UNL     1      -0.422  17.838  23.257  0.00  0.00    +0.000 C 
BRANCH  34  35
ATOM     35  N   UNL     1      -0.837  17.865  24.669  0.00  0.00    +0.000 NA
ATOM     36  C   UNL     1      -0.312  16.817  25.549  0.00  0.00    +0.000 C 
ATOM     37  C   UNL     1      -1.159  15.531  25.607  0.00  0.00    +0.000 C 
ATOM     38  O   UNL     1      -2.538  15.804  25.877  0.00  0.00    +0.000 OA
ATOM     39  C   UNL     1      -3.084  16.738  24.936  0.00  0.00    +0.000 C 
ATOM     40  C   UNL     1      -2.275  18.041  24.903  0.00  0.00    +0.000 C 
ENDBRANCH  34  35
ENDBRANCH  31  34
ENDBRANCH   6  28
TORSDOF 8
ENDMDL
MODEL 5
REMARK VINA RESULT:      -7.8      3.386      4.303
REMARK  Name = 
REMARK  8 active torsions:
REMARK  status: ('A' for Active; 'I' for Inactive)
REMARK    1  A    between atoms: C_2  and  C_3
REMARK    2  A    between atoms: C_5  and  C_6
REMARK    3  A    between atoms: N_11  and  C_12
REMARK    4  A    between atoms: C_15  and  C_16
REMARK    5  A    between atoms: C_16  and  N_17
REMARK    6  A    between atoms: C_28  and  N_29
REMARK    7  A    between atoms: C_33  and  C_34
REMARK    8  A    between atoms: C_34  and  C_35
REMARK                            x       y       z     vdW  Elec       q    Type
REMARK                         _______ _______ _______ _____ _____    ______ ____
ROOT
ATOM      1  C   UNL     1       1.260   8.929  20.461  0.00  0.00    +0.000 A 
ATOM      2  C   UNL     1       0.795   9.119  21.750  0.00  0.00    +0.000 A 
ATOM      3  C   UNL     1       0.327  10.368  22.056  0.00  0.00    +0.000 A 
ATOM      4  N   UNL     1       0.305  11.374  21.174  0.00  0.00    +0.000 NA
ATOM      5  C   UNL     1       0.760  11.128  19.940  0.00  0.00    +0.000 A 
ATOM      6  N   UNL     1       0.789  12.142  18.979  0.00  0.00    +0.000 N 
ATOM      7  N   UNL     1       1.235   9.930  19.550  0.00  0.00    +0.000 NA
ATOM      8  H   UNL     1       1.301  11.797  18.180  0.00  0.00    +0.000 HD
ENDROOT
BRANCH   1  11
ATOM      9  C   UNL     1       2.159   5.230  20.327  0.00  0.00    +0.000 A 
ATOM     10  C   UNL     1       1.805   6.495  20.823  0.00  0.00    +0.000 A 
ATOM     11  C   UNL     1       1.761   7.620  19.995  0.00  0.00    +0.000 A 
ATOM     12  C   UNL     1       2.166   7.392  18.690  0.00  0.00    +0.000 A 
ATOM     13  N   UNL     1       2.510   6.173  18.177  0.00  0.00    +0.000 NA
ATOM     14  C   UNL     1       2.511   5.079  18.978  0.00  0.00    +0.000 A 
BRANCH  14  15
ATOM     15  N   UNL     1       2.795   3.865  18.389  0.00  0.00    +0.000 N 
ATOM     16  C   UNL     1       1.791   2.850  18.086  0.00  0.00    +0.000 C 
ATOM     17  C   UNL     1       2.451   1.544  18.494  0.00  0.00    +0.000 C 
ATOM     18  C   UNL     1       3.913   1.775  18.166  0.00  0.00    +0.000 C 
ATOM     19  C   UNL     1       4.151   3.275  18.444  0.00  0.00    +0.000 C 
BRANCH  19  20
ATOM     20  C   UNL     1       5.017   3.924  17.359  0.00  0.00    +0.000 C 
BRANCH  20  21
ATOM     21  C   UNL     1       6.102   4.817  17.908  0.00  0.00    +0.000 C 
ATOM     22  N   UNL     1       5.791   6.148  17.886  0.00  0.00    +0.000 N 
ATOM     23  O   UNL     1       7.187   4.436  18.326  0.00  0.00    +0.000 OA
ATOM     24  H   UNL     1       4.870   6.493  17.653  0.00  0.00    +0.000 HD
ATOM     25  H   UNL     1       6.471   6.794  18.262  0.00  0.00    +0.000 HD
ENDBRANCH  20  21
ENDBRANCH  19  20
ENDBRANCH  14  15
BRANCH   9  27
ATOM     26  N   UNL     1       1.958   3.212  21.931  0.00  0.00    +0.000 NA
ATOM     27  C   UNL     1       2.060   4.131  21.234  0.00  0.00    +0.000 C 
ENDBRANCH   9  27
ENDBRANCH   1  11
BRANCH   6  28
ATOM     28  C   UNL     1       0.784  13.535  19.152  0.00  0.00    +0.000 A 
ATOM     29  C   UNL     1       1.983  14.185  19.442  0.00  0.00    +0.000 A 
ATOM     30  C   UNL     1       2.000  15.552  19.719  0.00  0.00    +0.000 A 
ATOM     31  C   UNL     1       0.808  16.273  19.690  0.00  0.00    +0.000 A 
ATOM     32  N   UNL     1      -0.357  15.697  19.314  0.00  0.00    +0.000 NA
ATOM     33  C   UNL     1      -0.335  14.360  19.039  0.00  0.00    +0.000 A 
BRANCH  31  34
ATOM     34  C   UNL     1       0.814  17.756  20.028  0.00  0.00    +0.000 C 
BRANCH  34  35
ATOM     35  N   UNL     1       0.688  18.197  21.427  0.00  0.00    +0.000 NA
ATOM     36  C   UNL     1       1.925  18.375  22.195  0.00  0.00    +0.000 C 
ATOM     37  C   UNL     1       2.426  17.113  22.922  0.00  0.00    +0.000 C 
ATOM     38  O   UNL     1       1.400  16.500  23.710  0.00  0.00    +0.000 OA
ATOM     39  C   UNL     1       0.235  16.213  22.926  0.00  0.00    +0.000 C 
ATOM     40  C   UNL     1      -0.301  17.471  22.233  0.00  0.00    +0.000 C 
ENDBRANCH  34  35
ENDBRANCH  31  34
ENDBRANCH   6  28
TORSDOF 8
ENDMDL
MODEL 6
REMARK VINA RESULT:      -7.7      1.452      1.809
REMARK  Name = 
REMARK  8 active torsions:
REMARK  status: ('A' for Active; 'I' for Inactive)
REMARK    1  A    between atoms: C_2  and  C_3
REMARK    2  A    between atoms: C_5  and  C_6
REMARK    3  A    between atoms: N_11  and  C_12
REMARK    4  A    between atoms: C_15  and  C_16
REMARK    5  A    between atoms: C_16  and  N_17
REMARK    6  A    between atoms: C_28  and  N_29
REMARK    7  A    between atoms: C_33  and  C_34
REMARK    8  A    between atoms: C_34  and  C_35
REMARK                            x       y       z     vdW  Elec       q    Type
REMARK                         _______ _______ _______ _____ _____    ______ ____
ROOT
ATOM      1  C   UNL     1       1.335  10.070  19.470  0.00  0.00    +0.000 A 
ATOM      2  C   UNL     1       1.456  11.155  18.619  0.00  0.00    +0.000 A 
ATOM      3  C   UNL     1       0.953  12.346  19.068  0.00  0.00    +0.000 A 
ATOM      4  N   UNL     1       0.370  12.487  20.264  0.00  0.00    +0.000 NA
ATOM      5  C   UNL     1       0.289  11.404  21.046  0.00  0.00    +0.000 A 
ATOM      6  N   UNL     1      -0.331  11.477  22.296  0.00  0.00    +0.000 N 
ATOM      7  N   UNL     1       0.759  10.195  20.690  0.00  0.00    +0.000 NA
ATOM      8  H   UNL     1      -0.423  10.536  22.652  0.00  0.00    +0.000 HD
ENDROOT
BRANCH   1  11
ATOM      9  C   UNL     1       2.261   6.379  19.630  0.00  0.00    +0.000 A 
ATOM     10  C   UNL     1       1.877   7.671  20.022  0.00  0.00    +0.000 A 
ATOM     11  C   UNL     1       1.865   8.737  19.118  0.00  0.00    +0.000 A 
ATOM     12  C   UNL     1       2.330   8.425  17.851  0.00  0.00    +0.000 A 
ATOM     13  N   UNL     1       2.704   7.176  17.439  0.00  0.00    +0.000 NA
ATOM     14  C   UNL     1       2.674   6.139  18.312  0.00  0.00    +0.000 A 
BRANCH  14  15
ATOM     15  N   UNL     1       2.991   4.891  17.821  0.00  0.00    +0.000 N 
ATOM     16  C   UNL     1       2.003   3.870  17.486  0.00  0.00    +0.000 C 
ATOM     17  C   UNL     1       2.605   2.584  18.025  0.00  0.00    +0.000 C 
ATOM     18  C   UNL     1       4.093   2.780  17.818  0.00  0.00    +0.000 C 
ATOM     19  C   UNL     1       4.328   4.292  18.032  0.00  0.00    +0.000 C 
BRANCH  19  20
ATOM     20  C   UNL     1       5.297   4.868  16.994  0.00  0.00    +0.000 C 
BRANCH  20  21
ATOM     21  C   UNL     1       6.749   4.628  17.326  0.00  0.00    +0.000 C 
ATOM     22  N   UNL     1       7.581   4.668  16.243  0.00  0.00    +0.000 N 
ATOM     23  O   UNL     1       7.189   4.394  18.444  0.00  0.00    +0.000 OA
ATOM     24  H   UNL     1       7.276   4.964  15.327  0.00  0.00    +0.000 HD
ATOM     25  H   UNL     1       8.570   4.535  16.407  0.00  0.00    +0.000 HD
ENDBRANCH  20  21
ENDBRANCH  19  20
ENDBRANCH  14  15
BRANCH   9  27
ATOM     26  N   UNL     1       2.064   4.520  21.416  0.00  0.00    +0.000 NA
ATOM     27  C   UNL     1       2.127   5.344  20.605  0.00  0.00    +0.000 C 
ENDBRANCH   9  27
ENDBRANCH   1  11
BRANCH   6  28
ATOM     28  C   UNL     1      -1.264  12.409  22.775  0.00  0.00    +0.000 A 
ATOM     29  C   UNL     1      -0.879  13.743  22.915  0.00  0.00    +0.000 A 
ATOM     30  C   UNL     1      -1.747  14.676  23.482  0.00  0.00    +0.000 A 
ATOM     31  C   UNL     1      -3.014  14.272  23.898  0.00  0.00    +0.000 A 
ATOM     32  N   UNL     1      -3.458  13.012  23.687  0.00  0.00    +0.000 NA
ATOM     33  C   UNL     1      -2.587  12.127  23.119  0.00  0.00    +0.000 A 
BRANCH  31  34
ATOM     34  C   UNL     1      -3.950  15.276  24.552  0.00  0.00    +0.000 C 
BRANCH  34  35
ATOM     35  N   UNL     1      -3.952  16.682  24.112  0.00  0.00    +0.000 NA
ATOM     36  C   UNL     1      -3.870  17.716  25.148  0.00  0.00    +0.000 C 
ATOM     37  C   UNL     1      -5.226  18.175  25.717  0.00  0.00    +0.000 C 
ATOM     38  O   UNL     1      -6.151  18.536  24.686  0.00  0.00    +0.000 OA
ATOM     39  C   UNL     1      -6.324  17.472  23.740  0.00  0.00    +0.000 C 
ATOM     40  C   UNL     1      -4.985  17.037  23.132  0.00  0.00    +0.000 C 
ENDBRANCH  34  35
ENDBRANCH  31  34
ENDBRANCH   6  28
TORSDOF 8
ENDMDL
MODEL 7
REMARK VINA RESULT:      -7.7      1.410      2.270
REMARK  Name = 
REMARK  8 active torsions:
REMARK  status: ('A' for Active; 'I' for Inactive)
REMARK    1  A    between atoms: C_2  and  C_3
REMARK    2  A    between atoms: C_5  and  C_6
REMARK    3  A    between atoms: N_11  and  C_12
REMARK    4  A    between atoms: C_15  and  C_16
REMARK    5  A    between atoms: C_16  and  N_17
REMARK    6  A    between atoms: C_28  and  N_29
REMARK    7  A    between atoms: C_33  and  C_34
REMARK    8  A    between atoms: C_34  and  C_35
REMARK                            x       y       z     vdW  Elec       q    Type
REMARK                         _______ _______ _______ _____ _____    ______ ____
ROOT
ATOM      1  C   UNL     1       0.808   9.612  19.299  0.00  0.00    +0.000 A 
ATOM      2  C   UNL     1       0.051  10.101  18.249  0.00  0.00    +0.000 A 
ATOM      3  C   UNL     1      -0.720  11.201  18.509  0.00  0.00    +0.000 A 
ATOM      4  N   UNL     1      -0.759  11.798  19.705  0.00  0.00    +0.000 NA
ATOM      5  C   UNL     1       0.000  11.285  20.680  0.00  0.00    +0.000 A 
ATOM      6  N   UNL     1      -0.014  11.845  21.960  0.00  0.00    +0.000 N 
ATOM      7  N   UNL     1       0.792  10.209  20.515  0.00  0.00    +0.000 NA
ATOM      8  H   UNL     1       0.499  11.228  22.574  0.00  0.00    +0.000 HD
ENDROOT
BRANCH   1  11
ATOM      9  C   UNL     1       2.441   6.203  19.766  0.00  0.00    +0.000 A 
ATOM     10  C   UNL     1       1.675   7.354  20.008  0.00  0.00    +0.000 A 
ATOM     11  C   UNL     1       1.706   8.450  19.142  0.00  0.00    +0.000 A 
ATOM     12  C   UNL     1       2.600   8.329  18.090  0.00  0.00    +0.000 A 
ATOM     13  N   UNL     1       3.353   7.219  17.825  0.00  0.00    +0.000 NA
ATOM     14  C   UNL     1       3.287   6.145  18.650  0.00  0.00    +0.000 A 
BRANCH  14  15
ATOM     15  N   UNL     1       4.012   5.028  18.292  0.00  0.00    +0.000 N 
ATOM     16  C   UNL     1       5.334   4.709  18.822  0.00  0.00    +0.000 C 
ATOM     17  C   UNL     1       6.112   4.230  17.609  0.00  0.00    +0.000 C 
ATOM     18  C   UNL     1       5.062   3.521  16.777  0.00  0.00    +0.000 C 
ATOM     19  C   UNL     1       3.760   4.315  17.020  0.00  0.00    +0.000 C 
BRANCH  19  20
ATOM     20  C   UNL     1       2.554   3.387  17.205  0.00  0.00    +0.000 C 
BRANCH  20  21
ATOM     21  C   UNL     1       2.826   2.222  18.125  0.00  0.00    +0.000 C 
ATOM     22  N   UNL     1       1.820   1.971  19.015  0.00  0.00    +0.000 N 
ATOM     23  O   UNL     1       3.846   1.547  18.128  0.00  0.00    +0.000 OA
ATOM     24  H   UNL     1       0.922   2.432  18.973  0.00  0.00    +0.000 HD
ATOM     25  H   UNL     1       1.936   1.188  19.644  0.00  0.00    +0.000 HD
ENDBRANCH  20  21
ENDBRANCH  19  20
ENDBRANCH  14  15
BRANCH   9  27
ATOM     26  N   UNL     1       2.109   4.236  21.412  0.00  0.00    +0.000 NA
ATOM     27  C   UNL     1       2.246   5.101  20.654  0.00  0.00    +0.000 C 
ENDBRANCH   9  27
ENDBRANCH   1  11
BRANCH   6  28
ATOM     28  C   UNL     1      -0.989  12.649  22.570  0.00  0.00    +0.000 A 
ATOM     29  C   UNL     1      -0.689  13.982  22.851  0.00  0.00    +0.000 A 
ATOM     30  C   UNL     1      -1.596  14.782  23.547  0.00  0.00    +0.000 A 
ATOM     31  C   UNL     1      -2.816  14.245  23.951  0.00  0.00    +0.000 A 
ATOM     32  N   UNL     1      -3.183  12.988  23.609  0.00  0.00    +0.000 NA
ATOM     33  C   UNL     1      -2.277  12.237  22.918  0.00  0.00    +0.000 A 
BRANCH  31  34
ATOM     34  C   UNL     1      -3.793  15.101  24.742  0.00  0.00    +0.000 C 
BRANCH  34  35
ATOM     35  N   UNL     1      -4.771  15.949  24.041  0.00  0.00    +0.000 NA
ATOM     36  C   UNL     1      -6.157  15.475  23.978  0.00  0.00    +0.000 C 
ATOM     37  C   UNL     1      -6.482  14.572  22.772  0.00  0.00    +0.000 C 
ATOM     38  O   UNL     1      -6.069  15.156  21.532  0.00  0.00    +0.000 OA
ATOM     39  C   UNL     1      -4.678  15.505  21.553  0.00  0.00    +0.000 C 
ATOM     40  C   UNL     1      -4.351  16.441  22.723  0.00  0.00    +0.000 C 
ENDBRANCH  34  35
ENDBRANCH  31  34
ENDBRANCH   6  28
TORSDOF 8
ENDMDL
MODEL 8
REMARK VINA RESULT:      -7.6      2.292      3.407
REMARK  Name = 
REMARK  8 active torsions:
REMARK  status: ('A' for Active; 'I' for Inactive)
REMARK    1  A    between atoms: C_2  and  C_3
REMARK    2  A    between atoms: C_5  and  C_6
REMARK    3  A    between atoms: N_11  and  C_12
REMARK    4  A    between atoms: C_15  and  C_16
REMARK    5  A    between atoms: C_16  and  N_17
REMARK    6  A    between atoms: C_28  and  N_29
REMARK    7  A    between atoms: C_33  and  C_34
REMARK    8  A    between atoms: C_34  and  C_35
REMARK                            x       y       z     vdW  Elec       q    Type
REMARK                         _______ _______ _______ _____ _____    ______ ____
ROOT
ATOM      1  C   UNL     1       0.501   9.016  21.276  0.00  0.00    +0.000 A 
ATOM      2  C   UNL     1       0.166   9.043  22.618  0.00  0.00    +0.000 A 
ATOM      3  C   UNL     1      -0.669  10.049  23.022  0.00  0.00    +0.000 A 
ATOM      4  N   UNL     1      -1.155  10.974  22.185  0.00  0.00    +0.000 NA
ATOM      5  C   UNL     1      -0.802  10.892  20.897  0.00  0.00    +0.000 A 
ATOM      6  N   UNL     1      -1.253  11.840  19.976  0.00  0.00    +0.000 N 
ATOM      7  N   UNL     1       0.010   9.935  20.410  0.00  0.00    +0.000 NA
ATOM      8  H   UNL     1      -0.757  11.690  19.108  0.00  0.00    +0.000 HD
ENDROOT
BRANCH   1  11
ATOM      9  C   UNL     1       2.203   5.667  20.650  0.00  0.00    +0.000 A 
ATOM     10  C   UNL     1       1.480   6.693  21.277  0.00  0.00    +0.000 A 
ATOM     11  C   UNL     1       1.368   7.964  20.707  0.00  0.00    +0.000 A 
ATOM     12  C   UNL     1       2.085   8.136  19.533  0.00  0.00    +0.000 A 
ATOM     13  N   UNL     1       2.792   7.154  18.897  0.00  0.00    +0.000 NA
ATOM     14  C   UNL     1       2.862   5.913  19.437  0.00  0.00    +0.000 A 
BRANCH  14  15
ATOM     15  N   UNL     1       3.527   4.946  18.714  0.00  0.00    +0.000 N 
ATOM     16  C   UNL     1       4.913   4.556  18.953  0.00  0.00    +0.000 C 
ATOM     17  C   UNL     1       5.503   4.419  17.560  0.00  0.00    +0.000 C 
ATOM     18  C   UNL     1       4.342   3.896  16.738  0.00  0.00    +0.000 C 
ATOM     19  C   UNL     1       3.090   4.557  17.355  0.00  0.00    +0.000 C 
BRANCH  19  20
ATOM     20  C   UNL     1       1.926   3.567  17.475  0.00  0.00    +0.000 C 
BRANCH  20  21
ATOM     21  C   UNL     1       2.310   2.262  18.127  0.00  0.00    +0.000 C 
ATOM     22  N   UNL     1       1.406   1.816  19.050  0.00  0.00    +0.000 N 
ATOM     23  O   UNL     1       3.334   1.633  17.901  0.00  0.00    +0.000 OA
ATOM     24  H   UNL     1       0.501   2.245  19.186  0.00  0.00    +0.000 HD
ATOM     25  H   UNL     1       1.598   0.933  19.506  0.00  0.00    +0.000 HD
ENDBRANCH  20  21
ENDBRANCH  19  20
ENDBRANCH  14  15
BRANCH   9  27
ATOM     26  N   UNL     1       2.165   3.322  21.739  0.00  0.00    +0.000 NA
ATOM     27  C   UNL     1       2.156   4.378  21.264  0.00  0.00    +0.000 C 
ENDBRANCH   9  27
ENDBRANCH   1  11
BRANCH   6  28
ATOM     28  C   UNL     1      -1.725  13.143  20.197  0.00  0.00    +0.000 A 
ATOM     29  C   UNL     1      -0.866  14.221  19.980  0.00  0.00    +0.000 A 
ATOM     30  C   UNL     1      -1.269  15.522  20.284  0.00  0.00    +0.000 A 
ATOM     31  C   UNL     1      -2.546  15.743  20.797  0.00  0.00    +0.000 A 
ATOM     32  N   UNL     1      -3.439  14.736  20.925  0.00  0.00    +0.000 NA
ATOM     33  C   UNL     1      -3.016  13.478  20.607  0.00  0.00    +0.000 A 
BRANCH  31  34
ATOM     34  C   UNL     1      -2.977  17.154  21.166  0.00  0.00    +0.000 C 
BRANCH  34  35
ATOM     35  N   UNL     1      -2.963  17.588  22.572  0.00  0.00    +0.000 NA
ATOM     36  C   UNL     1      -1.966  16.981  23.459  0.00  0.00    +0.000 C 
ATOM     37  C   UNL     1      -2.415  15.678  24.148  0.00  0.00    +0.000 C 
ATOM     38  O   UNL     1      -3.682  15.819  24.800  0.00  0.00    +0.000 OA
ATOM     39  C   UNL     1      -4.688  16.296  23.896  0.00  0.00    +0.000 C 
ATOM     40  C   UNL     1      -4.272  17.617  23.238  0.00  0.00    +0.000 C 
ENDBRANCH  34  35
ENDBRANCH  31  34
ENDBRANCH   6  28
TORSDOF 8
ENDMDL
MODEL 9
REMARK VINA RESULT:      -7.6      1.965      2.630
REMARK  Name = 
REMARK  8 active torsions:
REMARK  status: ('A' for Active; 'I' for Inactive)
REMARK    1  A    between atoms: C_2  and  C_3
REMARK    2  A    between atoms: C_5  and  C_6
REMARK    3  A    between atoms: N_11  and  C_12
REMARK    4  A    between atoms: C_15  and  C_16
REMARK    5  A    between atoms: C_16  and  N_17
REMARK    6  A    between atoms: C_28  and  N_29
REMARK    7  A    between atoms: C_33  and  C_34
REMARK    8  A    between atoms: C_34  and  C_35
REMARK                            x       y       z     vdW  Elec       q    Type
REMARK                         _______ _______ _______ _____ _____    ______ ____
ROOT
ATOM      1  C   UNL     1       0.493   9.143  21.204  0.00  0.00    +0.000 A 
ATOM      2  C   UNL     1       0.360   9.179  22.581  0.00  0.00    +0.000 A 
ATOM      3  C   UNL     1      -0.414  10.182  23.096  0.00  0.00    +0.000 A 
ATOM      4  N   UNL     1      -1.027  11.096  22.334  0.00  0.00    +0.000 NA
ATOM      5  C   UNL     1      -0.868  11.005  21.009  0.00  0.00    +0.000 A 
ATOM      6  N   UNL     1      -1.459  11.942  20.158  0.00  0.00    +0.000 N 
ATOM      7  N   UNL     1      -0.128  10.050  20.414  0.00  0.00    +0.000 NA
ATOM      8  H   UNL     1      -1.096  11.789  19.227  0.00  0.00    +0.000 HD
ENDROOT
BRANCH   1  11
ATOM      9  C   UNL     1       2.091   5.795  20.343  0.00  0.00    +0.000 A 
ATOM     10  C   UNL     1       1.459   6.819  21.064  0.00  0.00    +0.000 A 
ATOM     11  C   UNL     1       1.276   8.093  20.521  0.00  0.00    +0.000 A 
ATOM     12  C   UNL     1       1.833   8.270  19.264  0.00  0.00    +0.000 A 
ATOM     13  N   UNL     1       2.448   7.291  18.535  0.00  0.00    +0.000 NA
ATOM     14  C   UNL     1       2.586   6.046  19.055  0.00  0.00    +0.000 A 
BRANCH  14  15
ATOM     15  N   UNL     1       3.148   5.082  18.246  0.00  0.00    +0.000 N 
ATOM     16  C   UNL     1       2.377   4.126  17.458  0.00  0.00    +0.000 C 
ATOM     17  C   UNL     1       3.118   2.813  17.644  0.00  0.00    +0.000 C 
ATOM     18  C   UNL     1       4.569   3.240  17.738  0.00  0.00    +0.000 C 
ATOM     19  C   UNL     1       4.535   4.608  18.454  0.00  0.00    +0.000 C 
BRANCH  19  20
ATOM     20  C   UNL     1       5.501   5.610  17.813  0.00  0.00    +0.000 C 
BRANCH  20  21
ATOM     21  C   UNL     1       6.926   5.117  17.750  0.00  0.00    +0.000 C 
ATOM     22  N   UNL     1       7.572   5.131  18.955  0.00  0.00    +0.000 N 
ATOM     23  O   UNL     1       7.503   4.748  16.736  0.00  0.00    +0.000 OA
ATOM     24  H   UNL     1       7.101   5.322  19.828  0.00  0.00    +0.000 HD
ATOM     25  H   UNL     1       8.524   4.790  18.980  0.00  0.00    +0.000 HD
ENDBRANCH  20  21
ENDBRANCH  19  20
ENDBRANCH  14  15
BRANCH   9  27
ATOM     26  N   UNL     1       2.157   3.434  21.395  0.00  0.00    +0.000 NA
ATOM     27  C   UNL     1       2.122   4.502  20.951  0.00  0.00    +0.000 C 
ENDBRANCH   9  27
ENDBRANCH   1  11
BRANCH   6  28
ATOM     28  C   UNL     1      -1.905  13.243  20.436  0.00  0.00    +0.000 A 
ATOM     29  C   UNL     1      -3.225  13.434  20.844  0.00  0.00    +0.000 A 
ATOM     30  C   UNL     1      -3.731  14.721  21.032  0.00  0.00    +0.000 A 
ATOM     31  C   UNL     1      -2.902  15.822  20.824  0.00  0.00    +0.000 A 
ATOM     32  N   UNL     1      -1.591  15.672  20.527  0.00  0.00    +0.000 NA
ATOM     33  C   UNL     1      -1.126  14.399  20.361  0.00  0.00    +0.000 A 
BRANCH  31  34
ATOM     34  C   UNL     1      -3.458  17.227  20.991  0.00  0.00    +0.000 C 
BRANCH  34  35
ATOM     35  N   UNL     1      -3.528  17.841  22.327  0.00  0.00    +0.000 NA
ATOM     36  C   UNL     1      -2.531  17.424  23.318  0.00  0.00    +0.000 C 
ATOM     37  C   UNL     1      -2.925  16.195  24.160  0.00  0.00    +0.000 C 
ATOM     38  O   UNL     1      -4.224  16.335  24.746  0.00  0.00    +0.000 OA
ATOM     39  C   UNL     1      -5.220  16.622  23.756  0.00  0.00    +0.000 C 
ATOM     40  C   UNL     1      -4.862  17.870  22.941  0.00  0.00    +0.000 C 
ENDBRANCH  34  35
ENDBRANCH  31  34
ENDBRANCH   6  28
TORSDOF 8
ENDMDL
