MODEL 1
REMARK VINA RESULT:      -4.8      0.000      0.000
REMARK  Name = 
REMARK  7 active torsions:
REMARK  status: ('A' for Active; 'I' for Inactive)
REMARK    1  A    between atoms: N_1  and  C_2
REMARK    2  A    between atoms: C_2  and  C_3
REMARK    3  A    between atoms: C_3  and  C_4
REMARK    4  A    between atoms: C_4  and  P_5
REMARK    5  A    between atoms: P_5  and  O_7
REMARK    6  A    between atoms: P_5  and  C_8
REMARK    7  A    between atoms: C_8  and  C_9
REMARK                            x       y       z     vdW  Elec       q    Type
REMARK                         _______ _______ _______ _____ _____    ______ ____
ROOT
ATOM      1  P   UNL     1       4.144   3.928  19.028  0.00  0.00    +0.000 P 
ATOM      2  O   UNL     1       4.040   4.173  17.515  0.00  0.00    +0.000 OA
ENDROOT
BRANCH   1   3
ATOM      3  O   UNL     1       5.545   3.088  19.249  0.00  0.00    +0.000 OA
ATOM      4  H   UNL     1       5.662   2.378  18.584  0.00  0.00    +0.000 HD
ENDBRANCH   1   3
BRANCH   1   5
ATOM      5  C   UNL     1       5.082   5.497  19.110  0.00  0.00    +0.000 C 
BRANCH   5   6
ATOM      6  C   UNL     1       6.302   5.485  18.182  0.00  0.00    +0.000 C 
BRANCH   6   7
ATOM      7  C   UNL     1       7.580   5.976  18.861  0.00  0.00    +0.000 C 
BRANCH   7   8
ATOM      8  N   UNL     1       7.733   5.386  20.186  0.00  0.00    +0.000 NA
ATOM      9  H   UNL     1       7.204   4.512  20.234  0.00  0.00    +0.000 HD
ATOM     10  H   UNL     1       7.317   6.000  20.885  0.00  0.00    +0.000 HD
ENDBRANCH   7   8
ENDBRANCH   6   7
ENDBRANCH   5   6
ENDBRANCH   1   5
BRANCH   1  11
ATOM     11  C   UNL     1       3.204   2.359  18.947  0.00  0.00    +0.000 C 
BRANCH  11  12
ATOM     12  C   UNL     1       1.892   2.355  19.695  0.00  0.00    +0.000 C 
ATOM     13  C   UNL     1       1.034   3.573  19.891  0.00  0.00    +0.000 C 
ATOM     14  C   UNL     1       0.609   2.512  18.911  0.00  0.00    +0.000 C 
ENDBRANCH  11  12
ENDBRANCH   1  11
TORSDOF 7
ENDMDL
MODEL 2
REMARK VINA RESULT:      -4.7      1.240      1.356
REMARK  Name = 
REMARK  7 active torsions:
REMARK  status: ('A' for Active; 'I' for Inactive)
REMARK    1  A    between atoms: N_1  and  C_2
REMARK    2  A    between atoms: C_2  and  C_3
REMARK    3  A    between atoms: C_3  and  C_4
REMARK    4  A    between atoms: C_4  and  P_5
REMARK    5  A    between atoms: P_5  and  O_7
REMARK    6  A    between atoms: P_5  and  C_8
REMARK    7  A    between atoms: C_8  and  C_9
REMARK                            x       y       z     vdW  Elec       q    Type
REMARK                         _______ _______ _______ _____ _____    ______ ____
ROOT
ATOM      1  P   UNL     1       4.527   4.430  18.239  0.00  0.00    +0.000 P 
ATOM      2  O   UNL     1       4.413   3.704  16.889  0.00  0.00    +0.000 OA
ENDROOT
BRANCH   1   3
ATOM      3  O   UNL     1       5.611   3.559  19.124  0.00  0.00    +0.000 OA
ATOM      4  H   UNL     1       5.175   2.901  19.704  0.00  0.00    +0.000 HD
ENDBRANCH   1   3
BRANCH   1   5
ATOM      5  C   UNL     1       5.907   5.374  17.494  0.00  0.00    +0.000 C 
BRANCH   5   6
ATOM      6  C   UNL     1       7.266   4.944  18.058  0.00  0.00    +0.000 C 
BRANCH   6   7
ATOM      7  C   UNL     1       7.872   5.968  19.017  0.00  0.00    +0.000 C 
BRANCH   7   8
ATOM      8  N   UNL     1       7.972   5.430  20.369  0.00  0.00    +0.000 NA
ATOM      9  H   UNL     1       8.926   5.104  20.536  0.00  0.00    +0.000 HD
ATOM     10  H   UNL     1       7.378   4.607  20.455  0.00  0.00    +0.000 HD
ENDBRANCH   7   8
ENDBRANCH   6   7
ENDBRANCH   5   6
ENDBRANCH   1   5
BRANCH   1  11
ATOM     11  C   UNL     1       3.146   3.487  18.984  0.00  0.00    +0.000 C 
BRANCH  11  12
ATOM     12  C   UNL     1       2.694   3.972  20.341  0.00  0.00    +0.000 C 
ATOM     13  C   UNL     1       1.710   5.089  20.548  0.00  0.00    +0.000 C 
ATOM     14  C   UNL     1       1.283   3.666  20.789  0.00  0.00    +0.000 C 
ENDBRANCH  11  12
ENDBRANCH   1  11
TORSDOF 7
ENDMDL
MODEL 3
REMARK VINA RESULT:      -4.6      4.100      5.196
REMARK  Name = 
REMARK  7 active torsions:
REMARK  status: ('A' for Active; 'I' for Inactive)
REMARK    1  A    between atoms: N_1  and  C_2
REMARK    2  A    between atoms: C_2  and  C_3
REMARK    3  A    between atoms: C_3  and  C_4
REMARK    4  A    between atoms: C_4  and  P_5
REMARK    5  A    between atoms: P_5  and  O_7
REMARK    6  A    between atoms: P_5  and  C_8
REMARK    7  A    between atoms: C_8  and  C_9
REMARK                            x       y       z     vdW  Elec       q    Type
REMARK                         _______ _______ _______ _____ _____    ______ ____
ROOT
ATOM      1  P   UNL     1       6.112   4.907  15.915  0.00  0.00    +0.000 P 
ATOM      2  O   UNL     1       7.647   4.985  15.919  0.00  0.00    +0.000 OA
ENDROOT
BRANCH   1   3
ATOM      3  O   UNL     1       5.720   3.791  17.064  0.00  0.00    +0.000 OA
ATOM      4  H   UNL     1       6.418   3.696  17.745  0.00  0.00    +0.000 HD
ENDBRANCH   1   3
BRANCH   1   5
ATOM      5  C   UNL     1       6.149   6.207  17.203  0.00  0.00    +0.000 C 
BRANCH   5   6
ATOM      6  C   UNL     1       7.563   6.432  17.751  0.00  0.00    +0.000 C 
BRANCH   6   7
ATOM      7  C   UNL     1       7.741   5.934  19.184  0.00  0.00    +0.000 C 
BRANCH   7   8
ATOM      8  N   UNL     1       6.547   5.239  19.653  0.00  0.00    +0.000 NA
ATOM      9  H   UNL     1       6.601   4.253  19.389  0.00  0.00    +0.000 HD
ATOM     10  H   UNL     1       5.726   5.609  19.176  0.00  0.00    +0.000 HD
ENDBRANCH   7   8
ENDBRANCH   6   7
ENDBRANCH   5   6
ENDBRANCH   1   5
BRANCH   1  11
ATOM     11  C   UNL     1       6.076   3.607  14.627  0.00  0.00    +0.000 C 
BRANCH  11  12
ATOM     12  C   UNL     1       5.959   4.111  13.207  0.00  0.00    +0.000 C 
ATOM     13  C   UNL     1       6.712   3.527  12.045  0.00  0.00    +0.000 C 
ATOM     14  C   UNL     1       5.239   3.255  12.190  0.00  0.00    +0.000 C 
ENDBRANCH  11  12
ENDBRANCH   1  11
TORSDOF 7
ENDMDL
MODEL 4
REMARK VINA RESULT:      -4.6      1.805      2.246
REMARK  Name = 
REMARK  7 active torsions:
REMARK  status: ('A' for Active; 'I' for Inactive)
REMARK    1  A    between atoms: N_1  and  C_2
REMARK    2  A    between atoms: C_2  and  C_3
REMARK    3  A    between atoms: C_3  and  C_4
REMARK    4  A    between atoms: C_4  and  P_5
REMARK    5  A    between atoms: P_5  and  O_7
REMARK    6  A    between atoms: P_5  and  C_8
REMARK    7  A    between atoms: C_8  and  C_9
REMARK                            x       y       z     vdW  Elec       q    Type
REMARK                         _______ _______ _______ _____ _____    ______ ____
ROOT
ATOM      1  P   UNL     1       3.826   4.196  18.683  0.00  0.00    +0.000 P 
ATOM      2  O   UNL     1       5.022   3.525  19.376  0.00  0.00    +0.000 OA
ENDROOT
BRANCH   1   3
ATOM      3  O   UNL     1       4.245   5.780  18.505  0.00  0.00    +0.000 OA
ATOM      4  H   UNL     1       5.080   5.891  18.005  0.00  0.00    +0.000 HD
ENDBRANCH   1   3
BRANCH   1   5
ATOM      5  C   UNL     1       4.660   3.806  17.101  0.00  0.00    +0.000 C 
BRANCH   5   6
ATOM      6  C   UNL     1       5.592   4.937  16.650  0.00  0.00    +0.000 C 
BRANCH   6   7
ATOM      7  C   UNL     1       7.061   4.519  16.590  0.00  0.00    +0.000 C 
BRANCH   7   8
ATOM      8  N   UNL     1       7.611   4.333  17.928  0.00  0.00    +0.000 NA
ATOM      9  H   UNL     1       8.615   4.149  17.861  0.00  0.00    +0.000 HD
ATOM     10  H   UNL     1       7.204   3.501  18.353  0.00  0.00    +0.000 HD
ENDBRANCH   7   8
ENDBRANCH   6   7
ENDBRANCH   5   6
ENDBRANCH   1   5
BRANCH   1  11
ATOM     11  C   UNL     1       2.991   4.584  20.265  0.00  0.00    +0.000 C 
BRANCH  11  12
ATOM     12  C   UNL     1       1.563   4.104  20.375  0.00  0.00    +0.000 C 
ATOM     13  C   UNL     1       1.051   2.843  19.737  0.00  0.00    +0.000 C 
ATOM     14  C   UNL     1       1.268   2.890  21.226  0.00  0.00    +0.000 C 
ENDBRANCH  11  12
ENDBRANCH   1  11
TORSDOF 7
ENDMDL
MODEL 5
REMARK VINA RESULT:      -4.6      2.283      2.529
REMARK  Name = 
REMARK  7 active torsions:
REMARK  status: ('A' for Active; 'I' for Inactive)
REMARK    1  A    between atoms: N_1  and  C_2
REMARK    2  A    between atoms: C_2  and  C_3
REMARK    3  A    between atoms: C_3  and  C_4
REMARK    4  A    between atoms: C_4  and  P_5
REMARK    5  A    between atoms: P_5  and  O_7
REMARK    6  A    between atoms: P_5  and  C_8
REMARK    7  A    between atoms: C_8  and  C_9
REMARK                            x       y       z     vdW  Elec       q    Type
REMARK                         _______ _______ _______ _____ _____    ______ ____
ROOT
ATOM      1  P   UNL     1       5.630   5.021  16.860  0.00  0.00    +0.000 P 
ATOM      2  O   UNL     1       5.165   5.861  15.661  0.00  0.00    +0.000 OA
ENDROOT
BRANCH   1   3
ATOM      3  O   UNL     1       6.464   3.752  16.219  0.00  0.00    +0.000 OA
ATOM      4  H   UNL     1       6.679   3.886  15.273  0.00  0.00    +0.000 HD
ENDBRANCH   1   3
BRANCH   1   5
ATOM      5  C   UNL     1       7.159   6.026  16.837  0.00  0.00    +0.000 C 
BRANCH   5   6
ATOM      6  C   UNL     1       7.565   6.485  18.242  0.00  0.00    +0.000 C 
BRANCH   6   7
ATOM      7  C   UNL     1       7.087   5.543  19.346  0.00  0.00    +0.000 C 
BRANCH   7   8
ATOM      8  N   UNL     1       8.069   5.448  20.421  0.00  0.00    +0.000 NA
ATOM      9  H   UNL     1       8.946   5.881  20.120  0.00  0.00    +0.000 HD
ATOM     10  H   UNL     1       8.289   4.470  20.599  0.00  0.00    +0.000 HD
ENDBRANCH   7   8
ENDBRANCH   6   7
ENDBRANCH   5   6
ENDBRANCH   1   5
BRANCH   1  11
ATOM     11  C   UNL     1       4.101   4.015  16.885  0.00  0.00    +0.000 C 
BRANCH  11  12
ATOM     12  C   UNL     1       3.147   4.321  18.015  0.00  0.00    +0.000 C 
ATOM     13  C   UNL     1       2.388   5.611  18.147  0.00  0.00    +0.000 C 
ATOM     14  C   UNL     1       1.664   4.361  17.724  0.00  0.00    +0.000 C 
ENDBRANCH  11  12
ENDBRANCH   1  11
TORSDOF 7
ENDMDL
MODEL 6
REMARK VINA RESULT:      -4.6      1.099      1.727
REMARK  Name = 
REMARK  7 active torsions:
REMARK  status: ('A' for Active; 'I' for Inactive)
REMARK    1  A    between atoms: N_1  and  C_2
REMARK    2  A    between atoms: C_2  and  C_3
REMARK    3  A    between atoms: C_3  and  C_4
REMARK    4  A    between atoms: C_4  and  P_5
REMARK    5  A    between atoms: P_5  and  O_7
REMARK    6  A    between atoms: P_5  and  C_8
REMARK    7  A    between atoms: C_8  and  C_9
REMARK                            x       y       z     vdW  Elec       q    Type
REMARK                         _______ _______ _______ _____ _____    ______ ____
ROOT
ATOM      1  P   UNL     1       4.563   3.746  18.376  0.00  0.00    +0.000 P 
ATOM      2  O   UNL     1       5.387   3.498  19.648  0.00  0.00    +0.000 OA
ENDROOT
BRANCH   1   3
ATOM      3  O   UNL     1       3.840   5.212  18.591  0.00  0.00    +0.000 OA
ATOM      4  H   UNL     1       4.327   5.778  19.225  0.00  0.00    +0.000 HD
ENDBRANCH   1   3
BRANCH   1   5
ATOM      5  C   UNL     1       6.045   4.584  17.706  0.00  0.00    +0.000 C 
BRANCH   5   6
ATOM      6  C   UNL     1       6.440   5.806  18.543  0.00  0.00    +0.000 C 
BRANCH   6   7
ATOM      7  C   UNL     1       7.888   5.761  19.029  0.00  0.00    +0.000 C 
BRANCH   7   8
ATOM      8  N   UNL     1       7.958   5.411  20.444  0.00  0.00    +0.000 NA
ATOM      9  H   UNL     1       7.660   6.210  21.008  0.00  0.00    +0.000 HD
ATOM     10  H   UNL     1       8.927   5.233  20.705  0.00  0.00    +0.000 HD
ENDBRANCH   7   8
ENDBRANCH   6   7
ENDBRANCH   5   6
ENDBRANCH   1   5
BRANCH   1  11
ATOM     11  C   UNL     1       3.080   2.906  19.045  0.00  0.00    +0.000 C 
BRANCH  11  12
ATOM     12  C   UNL     1       2.353   3.656  20.137  0.00  0.00    +0.000 C 
ATOM     13  C   UNL     1       1.040   3.220  20.723  0.00  0.00    +0.000 C 
ATOM     14  C   UNL     1       2.305   3.054  21.523  0.00  0.00    +0.000 C 
ENDBRANCH  11  12
ENDBRANCH   1  11
TORSDOF 7
ENDMDL
MODEL 7
REMARK VINA RESULT:      -4.5      1.810      1.983
REMARK  Name = 
REMARK  7 active torsions:
REMARK  status: ('A' for Active; 'I' for Inactive)
REMARK    1  A    between atoms: N_1  and  C_2
REMARK    2  A    between atoms: C_2  and  C_3
REMARK    3  A    between atoms: C_3  and  C_4
REMARK    4  A    between atoms: C_4  and  P_5
REMARK    5  A    between atoms: P_5  and  O_7
REMARK    6  A    between atoms: P_5  and  C_8
REMARK    7  A    between atoms: C_8  and  C_9
REMARK                            x       y       z     vdW  Elec       q    Type
REMARK                         _______ _______ _______ _____ _____    ______ ____
ROOT
ATOM      1  P   UNL     1       4.228   3.953  18.464  0.00  0.00    +0.000 P 
ATOM      2  O   UNL     1       3.758   2.807  17.555  0.00  0.00    +0.000 OA
ENDROOT
BRANCH   1   3
ATOM      3  O   UNL     1       5.778   3.582  18.886  0.00  0.00    +0.000 OA
ATOM      4  H   UNL     1       5.922   2.616  18.963  0.00  0.00    +0.000 HD
ENDBRANCH   1   3
BRANCH   1   5
ATOM      5  C   UNL     1       4.845   4.765  16.945  0.00  0.00    +0.000 C 
BRANCH   5   6
ATOM      6  C   UNL     1       4.983   6.282  17.120  0.00  0.00    +0.000 C 
BRANCH   6   7
ATOM      7  C   UNL     1       6.424   6.733  17.351  0.00  0.00    +0.000 C 
BRANCH   7   8
ATOM      8  N   UNL     1       7.316   6.198  16.328  0.00  0.00    +0.000 NA
ATOM      9  H   UNL     1       6.967   5.288  16.015  0.00  0.00    +0.000 HD
ATOM     10  H   UNL     1       8.233   6.018  16.733  0.00  0.00    +0.000 HD
ENDBRANCH   7   8
ENDBRANCH   6   7
ENDBRANCH   5   6
ENDBRANCH   1   5
BRANCH   1  11
ATOM     11  C   UNL     1       3.610   3.142  19.985  0.00  0.00    +0.000 C 
BRANCH  11  12
ATOM     12  C   UNL     1       2.363   3.754  20.579  0.00  0.00    +0.000 C 
ATOM     13  C   UNL     1       0.972   3.462  20.092  0.00  0.00    +0.000 C 
ATOM     14  C   UNL     1       1.443   2.877  21.397  0.00  0.00    +0.000 C 
ENDBRANCH  11  12
ENDBRANCH   1  11
TORSDOF 7
ENDMDL
MODEL 8
REMARK VINA RESULT:      -4.5      2.307      2.650
REMARK  Name = 
REMARK  7 active torsions:
REMARK  status: ('A' for Active; 'I' for Inactive)
REMARK    1  A    between atoms: N_1  and  C_2
REMARK    2  A    between atoms: C_2  and  C_3
REMARK    3  A    between atoms: C_3  and  C_4
REMARK    4  A    between atoms: C_4  and  P_5
REMARK    5  A    between atoms: P_5  and  O_7
REMARK    6  A    between atoms: P_5  and  C_8
REMARK    7  A    between atoms: C_8  and  C_9
REMARK                            x       y       z     vdW  Elec       q    Type
REMARK                         _______ _______ _______ _____ _____    ______ ____
ROOT
ATOM      1  P   UNL     1       4.723   4.604  18.578  0.00  0.00    +0.000 P 
ATOM      2  O   UNL     1       3.731   4.022  17.558  0.00  0.00    +0.000 OA
ENDROOT
BRANCH   1   3
ATOM      3  O   UNL     1       5.357   3.307  19.373  0.00  0.00    +0.000 OA
ATOM      4  H   UNL     1       5.631   3.528  20.287  0.00  0.00    +0.000 HD
ENDBRANCH   1   3
BRANCH   1   5
ATOM      5  C   UNL     1       6.000   4.423  17.280  0.00  0.00    +0.000 C 
BRANCH   5   6
ATOM      6  C   UNL     1       5.383   4.171  15.899  0.00  0.00    +0.000 C 
BRANCH   6   7
ATOM      7  C   UNL     1       6.020   5.010  14.792  0.00  0.00    +0.000 C 
BRANCH   7   8
ATOM      8  N   UNL     1       7.412   5.321  15.101  0.00  0.00    +0.000 NA
ATOM      9  H   UNL     1       7.664   6.216  14.674  0.00  0.00    +0.000 HD
ATOM     10  H   UNL     1       8.022   4.627  14.671  0.00  0.00    +0.000 HD
ENDBRANCH   7   8
ENDBRANCH   6   7
ENDBRANCH   5   6
ENDBRANCH   1   5
BRANCH   1  11
ATOM     11  C   UNL     1       3.445   4.786  19.876  0.00  0.00    +0.000 C 
BRANCH  11  12
ATOM     12  C   UNL     1       2.534   3.594  20.055  0.00  0.00    +0.000 C 
ATOM     13  C   UNL     1       2.077   3.082  21.392  0.00  0.00    +0.000 C 
ATOM     14  C   UNL     1       1.112   3.828  20.510  0.00  0.00    +0.000 C 
ENDBRANCH  11  12
ENDBRANCH   1  11
TORSDOF 7
ENDMDL
MODEL 9
REMARK VINA RESULT:      -4.5      4.561      5.540
REMARK  Name = 
REMARK  7 active torsions:
REMARK  status: ('A' for Active; 'I' for Inactive)
REMARK    1  A    between atoms: N_1  and  C_2
REMARK    2  A    between atoms: C_2  and  C_3
REMARK    3  A    between atoms: C_3  and  C_4
REMARK    4  A    between atoms: C_4  and  P_5
REMARK    5  A    between atoms: P_5  and  O_7
REMARK    6  A    between atoms: P_5  and  C_8
REMARK    7  A    between atoms: C_8  and  C_9
REMARK                            x       y       z     vdW  Elec       q    Type
REMARK                         _______ _______ _______ _____ _____    ______ ____
ROOT
ATOM      1  P   UNL     1       6.225   4.772  14.863  0.00  0.00    +0.000 P 
ATOM      2  O   UNL     1       7.667   5.296  14.952  0.00  0.00    +0.000 OA
ENDROOT
BRANCH   1   3
ATOM      3  O   UNL     1       6.235   3.308  15.620  0.00  0.00    +0.000 OA
ATOM      4  H   UNL     1       5.622   2.668  15.203  0.00  0.00    +0.000 HD
ENDBRANCH   1   3
BRANCH   1   5
ATOM      5  C   UNL     1       5.939   5.593  16.473  0.00  0.00    +0.000 C 
BRANCH   5   6
ATOM      6  C   UNL     1       7.196   5.589  17.351  0.00  0.00    +0.000 C 
BRANCH   6   7
ATOM      7  C   UNL     1       6.895   5.380  18.834  0.00  0.00    +0.000 C 
BRANCH   7   8
ATOM      8  N   UNL     1       8.081   5.612  19.650  0.00  0.00    +0.000 NA
ATOM      9  H   UNL     1       8.798   4.922  19.414  0.00  0.00    +0.000 HD
ATOM     10  H   UNL     1       7.858   5.454  20.632  0.00  0.00    +0.000 HD
ENDBRANCH   7   8
ENDBRANCH   6   7
ENDBRANCH   5   6
ENDBRANCH   1   5
BRANCH   1  11
ATOM     11  C   UNL     1       6.511   3.951  13.252  0.00  0.00    +0.000 C 
BRANCH  11  12
ATOM     12  C   UNL     1       5.355   3.126  12.735  0.00  0.00    +0.000 C 
ATOM     13  C   UNL     1       4.605   3.432  11.470  0.00  0.00    +0.000 C 
ATOM     14  C   UNL     1       5.564   2.272  11.505  0.00  0.00    +0.000 C 
ENDBRANCH  11  12
ENDBRANCH   1  11
TORSDOF 7
ENDMDL
