MODEL 1
REMARK VINA RESULT:      -8.3      0.000      0.000
REMARK  Name = 
REMARK  3 active torsions:
REMARK  status: ('A' for Active; 'I' for Inactive)
REMARK    1  A    between atoms: N_2  and  C_4
REMARK    2  A    between atoms: C_11  and  C_12
REMARK    3  A    between atoms: C_13  and  C_14
REMARK                            x       y       z     vdW  Elec       q    Type
REMARK                         _______ _______ _______ _____ _____    ______ ____
ROOT
ATOM      1  C   UNL     1       5.325   4.545  17.380  0.00  0.00    +0.000 A 
ATOM      2  C   UNL     1       4.967   3.933  16.174  0.00  0.00    +0.000 A 
ATOM      3  C   UNL     1       5.577   4.370  15.002  0.00  0.00    +0.000 A 
ATOM      4 CL   UNL     1       5.148   3.632  13.505  0.00  0.00    +0.000 Cl
ATOM      5  C   UNL     1       6.535   5.397  15.001  0.00  0.00    +0.000 A 
ATOM      6  C   UNL     1       6.864   5.965  16.240  0.00  0.00    +0.000 A 
ATOM      7  N   UNL     1       7.742   6.957  16.600  0.00  0.00    +0.000 N 
ATOM      8  C   UNL     1       7.679   7.120  17.965  0.00  0.00    +0.000 A 
ATOM      9  N   UNL     1       6.810   6.279  18.489  0.00  0.00    +0.000 NA
ATOM     10  C   UNL     1       6.283   5.564  17.441  0.00  0.00    +0.000 A 
ATOM     11  H   UNL     1       8.333   7.481  15.972  0.00  0.00    +0.000 HD
ENDROOT
BRANCH   1  13
ATOM     12  O   UNL     1       5.457   3.534  19.419  0.00  0.00    +0.000 OA
ATOM     13  N   UNL     1       4.720   4.120  18.613  0.00  0.00    +0.000 N 
ATOM     14  O   UNL     1       3.500   4.283  18.738  0.00  0.00    +0.000 OA
ENDBRANCH   1  13
BRANCH   8  15
ATOM     15  C   UNL     1       8.492   8.113  18.561  0.00  0.00    +0.000 C 
ATOM     16  C   UNL     1       8.386   9.396  18.179  0.00  0.00    +0.000 C 
BRANCH  16  17
ATOM     17  C   UNL     1       9.260  10.419  18.749  0.00  0.00    +0.000 A 
ATOM     18  C   UNL     1      10.127  11.131  17.913  0.00  0.00    +0.000 A 
ATOM     19  C   UNL     1      11.007  12.074  18.451  0.00  0.00    +0.000 A 
ATOM     20  C   UNL     1      11.021  12.308  19.826  0.00  0.00    +0.000 A 
ATOM     21  C   UNL     1      10.150  11.609  20.661  0.00  0.00    +0.000 A 
ATOM     22  C   UNL     1       9.271  10.666  20.125  0.00  0.00    +0.000 A 
ENDBRANCH  16  17
ENDBRANCH   8  15
TORSDOF 3
ENDMDL
MODEL 2
REMARK VINA RESULT:      -8.2      0.287      1.076
REMARK  Name = 
REMARK  3 active torsions:
REMARK  status: ('A' for Active; 'I' for Inactive)
REMARK    1  A    between atoms: N_2  and  C_4
REMARK    2  A    between atoms: C_11  and  C_12
REMARK    3  A    between atoms: C_13  and  C_14
REMARK                            x       y       z     vdW  Elec       q    Type
REMARK                         _______ _______ _______ _____ _____    ______ ____
ROOT
ATOM      1  C   UNL     1       5.356   4.454  17.192  0.00  0.00    +0.000 A 
ATOM      2  C   UNL     1       5.125   3.805  15.974  0.00  0.00    +0.000 A 
ATOM      3  C   UNL     1       5.826   4.234  14.851  0.00  0.00    +0.000 A 
ATOM      4 CL   UNL     1       5.553   3.450  13.341  0.00  0.00    +0.000 Cl
ATOM      5  C   UNL     1       6.752   5.288  14.911  0.00  0.00    +0.000 A 
ATOM      6  C   UNL     1       6.952   5.893  16.160  0.00  0.00    +0.000 A 
ATOM      7  N   UNL     1       7.767   6.918  16.572  0.00  0.00    +0.000 N 
ATOM      8  C   UNL     1       7.577   7.109  17.921  0.00  0.00    +0.000 A 
ATOM      9  N   UNL     1       6.687   6.255  18.387  0.00  0.00    +0.000 NA
ATOM     10  C   UNL     1       6.276   5.502  17.314  0.00  0.00    +0.000 A 
ATOM     11  H   UNL     1       8.397   7.445  15.987  0.00  0.00    +0.000 HD
ENDROOT
BRANCH   1  13
ATOM     12  O   UNL     1       5.308   3.397  19.211  0.00  0.00    +0.000 OA
ATOM     13  N   UNL     1       4.655   4.038  18.376  0.00  0.00    +0.000 N 
ATOM     14  O   UNL     1       3.439   4.265  18.431  0.00  0.00    +0.000 OA
ENDBRANCH   1  13
BRANCH   8  15
ATOM     15  C   UNL     1       8.305   8.139  18.563  0.00  0.00    +0.000 C 
ATOM     16  C   UNL     1       8.419   9.347  17.990  0.00  0.00    +0.000 C 
BRANCH  16  17
ATOM     17  C   UNL     1       9.216  10.399  18.619  0.00  0.00    +0.000 A 
ATOM     18  C   UNL     1       9.341  10.432  20.013  0.00  0.00    +0.000 A 
ATOM     19  C   UNL     1      10.055  11.463  20.630  0.00  0.00    +0.000 A 
ATOM     20  C   UNL     1      10.646  12.461  19.856  0.00  0.00    +0.000 A 
ATOM     21  C   UNL     1      10.534  12.425  18.467  0.00  0.00    +0.000 A 
ATOM     22  C   UNL     1       9.820  11.397  17.848  0.00  0.00    +0.000 A 
ENDBRANCH  16  17
ENDBRANCH   8  15
TORSDOF 3
ENDMDL
MODEL 3
REMARK VINA RESULT:      -8.2      2.241      2.736
REMARK  Name = 
REMARK  3 active torsions:
REMARK  status: ('A' for Active; 'I' for Inactive)
REMARK    1  A    between atoms: N_2  and  C_4
REMARK    2  A    between atoms: C_11  and  C_12
REMARK    3  A    between atoms: C_13  and  C_14
REMARK                            x       y       z     vdW  Elec       q    Type
REMARK                         _______ _______ _______ _____ _____    ______ ____
ROOT
ATOM      1  C   UNL     1       6.148   4.718  15.741  0.00  0.00    +0.000 A 
ATOM      2  C   UNL     1       5.149   3.774  16.003  0.00  0.00    +0.000 A 
ATOM      3  C   UNL     1       4.655   3.673  17.300  0.00  0.00    +0.000 A 
ATOM      4 CL   UNL     1       3.427   2.515  17.644  0.00  0.00    +0.000 Cl
ATOM      5  C   UNL     1       5.128   4.490  18.341  0.00  0.00    +0.000 A 
ATOM      6  C   UNL     1       6.120   5.426  18.018  0.00  0.00    +0.000 A 
ATOM      7  N   UNL     1       6.786   6.365  18.765  0.00  0.00    +0.000 N 
ATOM      8  C   UNL     1       7.664   7.034  17.944  0.00  0.00    +0.000 A 
ATOM      9  N   UNL     1       7.585   6.571  16.712  0.00  0.00    +0.000 NA
ATOM     10  C   UNL     1       6.648   5.567  16.736  0.00  0.00    +0.000 A 
ATOM     11  H   UNL     1       6.657   6.536  19.752  0.00  0.00    +0.000 HD
ENDROOT
BRANCH   1  13
ATOM     12  O   UNL     1       6.068   4.273  13.507  0.00  0.00    +0.000 OA
ATOM     13  N   UNL     1       6.681   4.855  14.413  0.00  0.00    +0.000 N 
ATOM     14  O   UNL     1       7.753   5.460  14.286  0.00  0.00    +0.000 OA
ENDBRANCH   1  13
BRANCH   8  15
ATOM     15  C   UNL     1       8.479   8.043  18.511  0.00  0.00    +0.000 C 
ATOM     16  C   UNL     1       8.343   9.321  18.122  0.00  0.00    +0.000 C 
BRANCH  16  17
ATOM     17  C   UNL     1       9.218  10.361  18.660  0.00  0.00    +0.000 A 
ATOM     18  C   UNL     1      10.041  11.088  17.793  0.00  0.00    +0.000 A 
ATOM     19  C   UNL     1      10.922  12.047  18.299  0.00  0.00    +0.000 A 
ATOM     20  C   UNL     1      10.981  12.283  19.673  0.00  0.00    +0.000 A 
ATOM     21  C   UNL     1      10.155  11.569  20.539  0.00  0.00    +0.000 A 
ATOM     22  C   UNL     1       9.274  10.609  20.035  0.00  0.00    +0.000 A 
ENDBRANCH  16  17
ENDBRANCH   8  15
TORSDOF 3
ENDMDL
MODEL 4
REMARK VINA RESULT:      -8.0      2.302      2.897
REMARK  Name = 
REMARK  3 active torsions:
REMARK  status: ('A' for Active; 'I' for Inactive)
REMARK    1  A    between atoms: N_2  and  C_4
REMARK    2  A    between atoms: C_11  and  C_12
REMARK    3  A    between atoms: C_13  and  C_14
REMARK                            x       y       z     vdW  Elec       q    Type
REMARK                         _______ _______ _______ _____ _____    ______ ____
ROOT
ATOM      1  C   UNL     1       6.305   4.713  15.636  0.00  0.00    +0.000 A 
ATOM      2  C   UNL     1       5.314   3.754  15.871  0.00  0.00    +0.000 A 
ATOM      3  C   UNL     1       4.731   3.698  17.133  0.00  0.00    +0.000 A 
ATOM      4 CL   UNL     1       3.511   2.522  17.444  0.00  0.00    +0.000 Cl
ATOM      5  C   UNL     1       5.108   4.573  18.165  0.00  0.00    +0.000 A 
ATOM      6  C   UNL     1       6.097   5.522  17.869  0.00  0.00    +0.000 A 
ATOM      7  N   UNL     1       6.684   6.512  18.617  0.00  0.00    +0.000 N 
ATOM      8  C   UNL     1       7.601   7.167  17.829  0.00  0.00    +0.000 A 
ATOM      9  N   UNL     1       7.623   6.647  16.618  0.00  0.00    +0.000 NA
ATOM     10  C   UNL     1       6.711   5.619  16.622  0.00  0.00    +0.000 A 
ATOM     11  H   UNL     1       6.481   6.723  19.583  0.00  0.00    +0.000 HD
ENDROOT
BRANCH   1  13
ATOM     12  O   UNL     1       7.875   5.598  14.240  0.00  0.00    +0.000 OA
ATOM     13  N   UNL     1       6.928   4.805  14.344  0.00  0.00    +0.000 N 
ATOM     14  O   UNL     1       6.419   4.164  13.416  0.00  0.00    +0.000 OA
ENDBRANCH   1  13
BRANCH   8  15
ATOM     15  C   UNL     1       8.348   8.223  18.403  0.00  0.00    +0.000 C 
ATOM     16  C   UNL     1       8.245   9.469  17.916  0.00  0.00    +0.000 C 
BRANCH  16  17
ATOM     17  C   UNL     1       9.054  10.555  18.465  0.00  0.00    +0.000 A 
ATOM     18  C   UNL     1       9.624  10.418  19.736  0.00  0.00    +0.000 A 
ATOM     19  C   UNL     1      10.355  11.469  20.296  0.00  0.00    +0.000 A 
ATOM     20  C   UNL     1      10.519  12.659  19.588  0.00  0.00    +0.000 A 
ATOM     21  C   UNL     1       9.963  12.796  18.316  0.00  0.00    +0.000 A 
ATOM     22  C   UNL     1       9.232  11.747  17.755  0.00  0.00    +0.000 A 
ENDBRANCH  16  17
ENDBRANCH   8  15
TORSDOF 3
ENDMDL
MODEL 5
REMARK VINA RESULT:      -7.8      0.877      1.073
REMARK  Name = 
REMARK  3 active torsions:
REMARK  status: ('A' for Active; 'I' for Inactive)
REMARK    1  A    between atoms: N_2  and  C_4
REMARK    2  A    between atoms: C_11  and  C_12
REMARK    3  A    between atoms: C_13  and  C_14
REMARK                            x       y       z     vdW  Elec       q    Type
REMARK                         _______ _______ _______ _____ _____    ______ ____
ROOT
ATOM      1  C   UNL     1       5.119   4.493  16.605  0.00  0.00    +0.000 A 
ATOM      2  C   UNL     1       5.090   3.754  15.417  0.00  0.00    +0.000 A 
ATOM      3  C   UNL     1       6.041   4.032  14.440  0.00  0.00    +0.000 A 
ATOM      4 CL   UNL     1       6.022   3.136  12.968  0.00  0.00    +0.000 Cl
ATOM      5  C   UNL     1       7.021   5.024  14.617  0.00  0.00    +0.000 A 
ATOM      6  C   UNL     1       7.009   5.724  15.832  0.00  0.00    +0.000 A 
ATOM      7  N   UNL     1       7.804   6.725  16.331  0.00  0.00    +0.000 N 
ATOM      8  C   UNL     1       7.356   7.049  17.591  0.00  0.00    +0.000 A 
ATOM      9  N   UNL     1       6.322   6.301  17.919  0.00  0.00    +0.000 NA
ATOM     10  C   UNL     1       6.079   5.483  16.841  0.00  0.00    +0.000 A 
ATOM     11  H   UNL     1       8.584   7.155  15.856  0.00  0.00    +0.000 HD
ENDROOT
BRANCH   1  13
ATOM     12  O   UNL     1       3.236   5.054  17.761  0.00  0.00    +0.000 OA
ATOM     13  N   UNL     1       4.156   4.232  17.640  0.00  0.00    +0.000 N 
ATOM     14  O   UNL     1       4.365   3.268  18.387  0.00  0.00    +0.000 OA
ENDBRANCH   1  13
BRANCH   8  15
ATOM     15  C   UNL     1       8.021   8.081  18.296  0.00  0.00    +0.000 C 
ATOM     16  C   UNL     1       8.076   9.322  17.787  0.00  0.00    +0.000 C 
BRANCH  16  17
ATOM     17  C   UNL     1       8.807  10.381  18.480  0.00  0.00    +0.000 A 
ATOM     18  C   UNL     1       8.967  11.628  17.865  0.00  0.00    +0.000 A 
ATOM     19  C   UNL     1       9.710  12.631  18.492  0.00  0.00    +0.000 A 
ATOM     20  C   UNL     1      10.294  12.391  19.735  0.00  0.00    +0.000 A 
ATOM     21  C   UNL     1      10.127  11.154  20.358  0.00  0.00    +0.000 A 
ATOM     22  C   UNL     1       9.385  10.150  19.732  0.00  0.00    +0.000 A 
ENDBRANCH  16  17
ENDBRANCH   8  15
TORSDOF 3
ENDMDL
MODEL 6
REMARK VINA RESULT:      -7.8      5.459      6.595
REMARK  Name = 
REMARK  3 active torsions:
REMARK  status: ('A' for Active; 'I' for Inactive)
REMARK    1  A    between atoms: N_2  and  C_4
REMARK    2  A    between atoms: C_11  and  C_12
REMARK    3  A    between atoms: C_13  and  C_14
REMARK                            x       y       z     vdW  Elec       q    Type
REMARK                         _______ _______ _______ _____ _____    ______ ____
ROOT
ATOM      1  C   UNL     1       3.817   4.146  17.343  0.00  0.00    +0.000 A 
ATOM      2  C   UNL     1       4.846   3.886  16.432  0.00  0.00    +0.000 A 
ATOM      3  C   UNL     1       5.522   4.965  15.870  0.00  0.00    +0.000 A 
ATOM      4 CL   UNL     1       6.791   4.667  14.742  0.00  0.00    +0.000 Cl
ATOM      5  C   UNL     1       5.202   6.294  16.195  0.00  0.00    +0.000 A 
ATOM      6  C   UNL     1       4.171   6.494  17.123  0.00  0.00    +0.000 A 
ATOM      7  N   UNL     1       3.618   7.629  17.662  0.00  0.00    +0.000 N 
ATOM      8  C   UNL     1       2.628   7.256  18.542  0.00  0.00    +0.000 A 
ATOM      9  N   UNL     1       2.530   5.942  18.593  0.00  0.00    +0.000 NA
ATOM     10  C   UNL     1       3.463   5.449  17.714  0.00  0.00    +0.000 A 
ATOM     11  H   UNL     1       3.887   8.578  17.448  0.00  0.00    +0.000 HD
ENDROOT
BRANCH   1  13
ATOM     12  O   UNL     1       3.677   2.448  18.858  0.00  0.00    +0.000 OA
ATOM     13  N   UNL     1       3.097   3.059  17.948  0.00  0.00    +0.000 N 
ATOM     14  O   UNL     1       2.002   2.755  17.460  0.00  0.00    +0.000 OA
ENDBRANCH   1  13
BRANCH   8  15
ATOM     15  C   UNL     1       1.901   8.272  19.206  0.00  0.00    +0.000 C 
ATOM     16  C   UNL     1       1.501   8.099  20.476  0.00  0.00    +0.000 C 
BRANCH  16  17
ATOM     17  C   UNL     1       0.701   9.119  21.151  0.00  0.00    +0.000 A 
ATOM     18  C   UNL     1       0.438   8.996  22.520  0.00  0.00    +0.000 A 
ATOM     19  C   UNL     1      -0.370   9.934  23.167  0.00  0.00    +0.000 A 
ATOM     20  C   UNL     1      -0.916  10.998  22.449  0.00  0.00    +0.000 A 
ATOM     21  C   UNL     1      -0.646  11.130  21.087  0.00  0.00    +0.000 A 
ATOM     22  C   UNL     1       0.161  10.193  20.438  0.00  0.00    +0.000 A 
ENDBRANCH  16  17
ENDBRANCH   8  15
TORSDOF 3
ENDMDL
MODEL 7
REMARK VINA RESULT:      -7.7      5.475      6.524
REMARK  Name = 
REMARK  3 active torsions:
REMARK  status: ('A' for Active; 'I' for Inactive)
REMARK    1  A    between atoms: N_2  and  C_4
REMARK    2  A    between atoms: C_11  and  C_12
REMARK    3  A    between atoms: C_13  and  C_14
REMARK                            x       y       z     vdW  Elec       q    Type
REMARK                         _______ _______ _______ _____ _____    ______ ____
ROOT
ATOM      1  C   UNL     1       3.818   4.168  17.389  0.00  0.00    +0.000 A 
ATOM      2  C   UNL     1       4.863   3.920  16.492  0.00  0.00    +0.000 A 
ATOM      3  C   UNL     1       5.534   5.006  15.938  0.00  0.00    +0.000 A 
ATOM      4 CL   UNL     1       6.822   4.723  14.829  0.00  0.00    +0.000 Cl
ATOM      5  C   UNL     1       5.193   6.331  16.257  0.00  0.00    +0.000 A 
ATOM      6  C   UNL     1       4.145   6.520  17.170  0.00  0.00    +0.000 A 
ATOM      7  N   UNL     1       3.570   7.648  17.700  0.00  0.00    +0.000 N 
ATOM      8  C   UNL     1       2.574   7.263  18.566  0.00  0.00    +0.000 A 
ATOM      9  N   UNL     1       2.491   5.948  18.618  0.00  0.00    +0.000 NA
ATOM     10  C   UNL     1       3.443   5.467  17.753  0.00  0.00    +0.000 A 
ATOM     11  H   UNL     1       3.830   8.600  17.488  0.00  0.00    +0.000 HD
ENDROOT
BRANCH   1  13
ATOM     12  O   UNL     1       3.571   2.614  19.038  0.00  0.00    +0.000 OA
ATOM     13  N   UNL     1       3.105   3.073  17.986  0.00  0.00    +0.000 N 
ATOM     14  O   UNL     1       2.141   2.610  17.363  0.00  0.00    +0.000 OA
ENDBRANCH   1  13
BRANCH   8  15
ATOM     15  C   UNL     1       1.824   8.271  19.218  0.00  0.00    +0.000 C 
ATOM     16  C   UNL     1       1.482   8.132  20.509  0.00  0.00    +0.000 C 
BRANCH  16  17
ATOM     17  C   UNL     1       0.660   9.140  21.175  0.00  0.00    +0.000 A 
ATOM     18  C   UNL     1       0.305  10.307  20.489  0.00  0.00    +0.000 A 
ATOM     19  C   UNL     1      -0.434  11.303  21.131  0.00  0.00    +0.000 A 
ATOM     20  C   UNL     1      -0.822  11.136  22.460  0.00  0.00    +0.000 A 
ATOM     21  C   UNL     1      -0.480   9.970  23.145  0.00  0.00    +0.000 A 
ATOM     22  C   UNL     1       0.259   8.973  22.505  0.00  0.00    +0.000 A 
ENDBRANCH  16  17
ENDBRANCH   8  15
TORSDOF 3
ENDMDL
MODEL 8
REMARK VINA RESULT:      -7.7      5.749      6.871
REMARK  Name = 
REMARK  3 active torsions:
REMARK  status: ('A' for Active; 'I' for Inactive)
REMARK    1  A    between atoms: N_2  and  C_4
REMARK    2  A    between atoms: C_11  and  C_12
REMARK    3  A    between atoms: C_13  and  C_14
REMARK                            x       y       z     vdW  Elec       q    Type
REMARK                         _______ _______ _______ _____ _____    ______ ____
ROOT
ATOM      1  C   UNL     1       4.053   3.956  18.418  0.00  0.00    +0.000 A 
ATOM      2  C   UNL     1       4.844   3.919  17.264  0.00  0.00    +0.000 A 
ATOM      3  C   UNL     1       4.985   5.086  16.520  0.00  0.00    +0.000 A 
ATOM      4 CL   UNL     1       5.952   5.062  15.094  0.00  0.00    +0.000 Cl
ATOM      5  C   UNL     1       4.363   6.288  16.896  0.00  0.00    +0.000 A 
ATOM      6  C   UNL     1       3.592   6.269  18.067  0.00  0.00    +0.000 A 
ATOM      7  N   UNL     1       2.871   7.239  18.717  0.00  0.00    +0.000 N 
ATOM      8  C   UNL     1       2.305   6.682  19.841  0.00  0.00    +0.000 A 
ATOM      9  N   UNL     1       2.636   5.410  19.940  0.00  0.00    +0.000 NA
ATOM     10  C   UNL     1       3.419   5.128  18.848  0.00  0.00    +0.000 A 
ATOM     11  H   UNL     1       2.768   8.198  18.421  0.00  0.00    +0.000 HD
ENDROOT
BRANCH   1  13
ATOM     12  O   UNL     1       4.792   2.514  20.022  0.00  0.00    +0.000 OA
ATOM     13  N   UNL     1       3.886   2.772  19.216  0.00  0.00    +0.000 N 
ATOM     14  O   UNL     1       2.907   2.054  18.977  0.00  0.00    +0.000 OA
ENDBRANCH   1  13
BRANCH   8  15
ATOM     15  C   UNL     1       1.492   7.501  20.660  0.00  0.00    +0.000 C 
ATOM     16  C   UNL     1       1.198   8.756  20.284  0.00  0.00    +0.000 C 
BRANCH  16  17
ATOM     17  C   UNL     1       0.406   9.627  21.151  0.00  0.00    +0.000 A 
ATOM     18  C   UNL     1       0.207   9.275  22.490  0.00  0.00    +0.000 A 
ATOM     19  C   UNL     1      -0.592  10.070  23.315  0.00  0.00    +0.000 A 
ATOM     20  C   UNL     1      -1.193  11.221  22.804  0.00  0.00    +0.000 A 
ATOM     21  C   UNL     1      -0.987  11.582  21.473  0.00  0.00    +0.000 A 
ATOM     22  C   UNL     1      -0.189  10.788  20.647  0.00  0.00    +0.000 A 
ENDBRANCH  16  17
ENDBRANCH   8  15
TORSDOF 3
ENDMDL
MODEL 9
REMARK VINA RESULT:      -7.6      5.621      6.760
REMARK  Name = 
REMARK  3 active torsions:
REMARK  status: ('A' for Active; 'I' for Inactive)
REMARK    1  A    between atoms: N_2  and  C_4
REMARK    2  A    between atoms: C_11  and  C_12
REMARK    3  A    between atoms: C_13  and  C_14
REMARK                            x       y       z     vdW  Elec       q    Type
REMARK                         _______ _______ _______ _____ _____    ______ ____
ROOT
ATOM      1  C   UNL     1       3.443   3.736  18.376  0.00  0.00    +0.000 A 
ATOM      2  C   UNL     1       4.353   3.291  17.411  0.00  0.00    +0.000 A 
ATOM      3  C   UNL     1       4.963   4.233  16.589  0.00  0.00    +0.000 A 
ATOM      4 CL   UNL     1       6.085   3.705  15.392  0.00  0.00    +0.000 Cl
ATOM      5  C   UNL     1       4.693   5.607  16.706  0.00  0.00    +0.000 A 
ATOM      6  C   UNL     1       3.782   5.997  17.698  0.00  0.00    +0.000 A 
ATOM      7  N   UNL     1       3.305   7.224  18.086  0.00  0.00    +0.000 N 
ATOM      8  C   UNL     1       2.427   7.040  19.128  0.00  0.00    +0.000 A 
ATOM      9  N   UNL     1       2.327   5.760  19.425  0.00  0.00    +0.000 NA
ATOM     10  C   UNL     1       3.145   5.094  18.545  0.00  0.00    +0.000 A 
ATOM     11  H   UNL     1       3.552   8.112  17.675  0.00  0.00    +0.000 HD
ENDROOT
BRANCH   1  13
ATOM     12  O   UNL     1       1.693   2.364  18.876  0.00  0.00    +0.000 OA
ATOM     13  N   UNL     1       2.795   2.794  19.246  0.00  0.00    +0.000 N 
ATOM     14  O   UNL     1       3.334   2.555  20.334  0.00  0.00    +0.000 OA
ENDBRANCH   1  13
BRANCH   8  15
ATOM     15  C   UNL     1       1.790   8.178  19.680  0.00  0.00    +0.000 C 
ATOM     16  C   UNL     1       1.324   8.149  20.939  0.00  0.00    +0.000 C 
BRANCH  16  17
ATOM     17  C   UNL     1       0.616   9.299  21.498  0.00  0.00    +0.000 A 
ATOM     18  C   UNL     1      -0.101   9.156  22.691  0.00  0.00    +0.000 A 
ATOM     19  C   UNL     1      -0.827  10.231  23.209  0.00  0.00    +0.000 A 
ATOM     20  C   UNL     1      -0.836  11.453  22.536  0.00  0.00    +0.000 A 
ATOM     21  C   UNL     1      -0.113  11.604  21.354  0.00  0.00    +0.000 A 
ATOM     22  C   UNL     1       0.612  10.530  20.834  0.00  0.00    +0.000 A 
ENDBRANCH  16  17
ENDBRANCH   8  15
TORSDOF 3
ENDMDL
