MODEL 1
REMARK VINA RESULT:      -8.8      0.000      0.000
REMARK  Name = 
REMARK  7 active torsions:
REMARK  status: ('A' for Active; 'I' for Inactive)
REMARK    1  A    between atoms: C_1  and  O_2
REMARK    2  A    between atoms: O_2  and  C_3
REMARK    3  A    between atoms: C_6  and  N_7
REMARK    4  A    between atoms: C_10  and  C_11
REMARK    5  A    between atoms: C_14  and  N_15
REMARK    6  A    between atoms: C_16  and  C_18
REMARK    7  A    between atoms: C_18  and  C_19
REMARK                            x       y       z     vdW  Elec       q    Type
REMARK                         _______ _______ _______ _____ _____    ______ ____
ROOT
ATOM      1  N   UNL     1       2.290   7.814  17.990  0.00  0.00    +0.000 N 
ATOM      2  C   UNL     1       1.585   8.650  18.924  0.00  0.00    +0.000 A 
ATOM      3  C   UNL     1       1.019   9.778  18.349  0.00  0.00    +0.000 A 
ATOM      4  C   UNL     1       0.742  10.858  19.165  0.00  0.00    +0.000 A 
ATOM      5  C   UNL     1       1.491  12.157  18.948  0.00  0.00    +0.000 C 
ATOM      6  C   UNL     1       0.333  10.584  20.449  0.00  0.00    +0.000 A 
ATOM      7  C   UNL     1      -0.412  11.552  21.168  0.00  0.00    +0.000 A 
ATOM      8  C   UNL     1      -0.820  11.329  22.471  0.00  0.00    +0.000 A 
ATOM      9  C   UNL     1      -0.474  10.104  23.041  0.00  0.00    +0.000 A 
ATOM     10  C   UNL     1       0.286   9.146  22.301  0.00  0.00    +0.000 A 
ATOM     11  C   UNL     1       0.695   9.340  20.978  0.00  0.00    +0.000 A 
ATOM     12  N   UNL     1       1.433   8.434  20.250  0.00  0.00    +0.000 NA
ATOM     13  H   UNL     1       2.484   8.368  17.161  0.00  0.00    +0.000 HD
ENDROOT
BRANCH   1  17
ATOM     14  C   UNL     1       5.602   5.144  18.266  0.00  0.00    +0.000 A 
ATOM     15  C   UNL     1       4.596   5.131  19.243  0.00  0.00    +0.000 A 
ATOM     16  C   UNL     1       3.480   5.981  19.163  0.00  0.00    +0.000 A 
ATOM     17  C   UNL     1       3.371   6.909  18.135  0.00  0.00    +0.000 A 
ATOM     18  C   UNL     1       4.378   6.901  17.143  0.00  0.00    +0.000 A 
ATOM     19  C   UNL     1       5.487   6.030  17.200  0.00  0.00    +0.000 A 
BRANCH  14  21
ATOM     20  C   UNL     1       7.848   4.519  17.806  0.00  0.00    +0.000 C 
ATOM     21  O   UNL     1       6.635   4.284  18.506  0.00  0.00    +0.000 OA
ENDBRANCH  14  21
ENDBRANCH   1  17
BRANCH   8  22
ATOM     22  N   UNL     1      -1.585  12.277  23.202  0.00  0.00    +0.000 N 
ATOM     23  C   UNL     1      -1.262  13.626  23.361  0.00  0.00    +0.000 C 
ATOM     24  O   UNL     1      -0.254  14.188  22.951  0.00  0.00    +0.000 OA
ATOM     25  H   UNL     1      -2.375  11.923  23.722  0.00  0.00    +0.000 HD
BRANCH  23  26
ATOM     26  C   UNL     1      -2.299  14.438  24.141  0.00  0.00    +0.000 C 
BRANCH  26  27
ATOM     27  C   UNL     1      -3.705  13.915  23.956  0.00  0.00    +0.000 A 
ATOM     28  C   UNL     1      -4.212  12.912  24.799  0.00  0.00    +0.000 A 
ATOM     29  C   UNL     1      -5.484  12.377  24.580  0.00  0.00    +0.000 A 
ATOM     30  C   UNL     1      -6.261  12.855  23.528  0.00  0.00    +0.000 A 
ATOM     31 CL   UNL     1      -7.804  12.159  23.217  0.00  0.00    +0.000 Cl
ATOM     32  C   UNL     1      -5.791  13.886  22.718  0.00  0.00    +0.000 A 
ATOM     33  C   UNL     1      -4.519  14.420  22.934  0.00  0.00    +0.000 A 
ENDBRANCH  26  27
ENDBRANCH  23  26
ENDBRANCH   8  22
TORSDOF 5
ENDMDL
MODEL 2
REMARK VINA RESULT:      -8.5      2.995      4.829
REMARK  Name = 
REMARK  7 active torsions:
REMARK  status: ('A' for Active; 'I' for Inactive)
REMARK    1  A    between atoms: C_1  and  O_2
REMARK    2  A    between atoms: O_2  and  C_3
REMARK    3  A    between atoms: C_6  and  N_7
REMARK    4  A    between atoms: C_10  and  C_11
REMARK    5  A    between atoms: C_14  and  N_15
REMARK    6  A    between atoms: C_16  and  C_18
REMARK    7  A    between atoms: C_18  and  C_19
REMARK                            x       y       z     vdW  Elec       q    Type
REMARK                         _______ _______ _______ _____ _____    ______ ____
ROOT
ATOM      1  N   UNL     1       5.509   5.040  17.588  0.00  0.00    +0.000 N 
ATOM      2  C   UNL     1       4.487   5.826  18.224  0.00  0.00    +0.000 A 
ATOM      3  C   UNL     1       4.215   5.440  19.529  0.00  0.00    +0.000 A 
ATOM      4  C   UNL     1       2.986   5.774  20.065  0.00  0.00    +0.000 A 
ATOM      5  C   UNL     1       2.016   4.668  20.430  0.00  0.00    +0.000 C 
ATOM      6  C   UNL     1       2.441   6.977  19.681  0.00  0.00    +0.000 A 
ATOM      7  C   UNL     1       1.477   7.604  20.510  0.00  0.00    +0.000 A 
ATOM      8  C   UNL     1       0.883   8.800  20.150  0.00  0.00    +0.000 A 
ATOM      9  C   UNL     1       1.284   9.367  18.939  0.00  0.00    +0.000 A 
ATOM     10  C   UNL     1       2.251   8.712  18.115  0.00  0.00    +0.000 A 
ATOM     11  C   UNL     1       2.879   7.512  18.465  0.00  0.00    +0.000 A 
ATOM     12  N   UNL     1       3.807   6.862  17.683  0.00  0.00    +0.000 NA
ATOM     13  H   UNL     1       5.614   4.179  18.115  0.00  0.00    +0.000 HD
ENDROOT
BRANCH   1  17
ATOM     14  C   UNL     1       6.459   4.169  13.525  0.00  0.00    +0.000 A 
ATOM     15  C   UNL     1       5.212   3.808  14.055  0.00  0.00    +0.000 A 
ATOM     16  C   UNL     1       4.862   4.107  15.383  0.00  0.00    +0.000 A 
ATOM     17  C   UNL     1       5.774   4.721  16.233  0.00  0.00    +0.000 A 
ATOM     18  C   UNL     1       7.020   5.102  15.684  0.00  0.00    +0.000 A 
ATOM     19  C   UNL     1       7.368   4.831  14.343  0.00  0.00    +0.000 A 
BRANCH  14  21
ATOM     20  C   UNL     1       5.921   2.651  11.777  0.00  0.00    +0.000 C 
ATOM     21  O   UNL     1       6.658   3.777  12.232  0.00  0.00    +0.000 OA
ENDBRANCH  14  21
ENDBRANCH   1  17
BRANCH   8  22
ATOM     22  N   UNL     1      -0.070   9.456  20.974  0.00  0.00    +0.000 N 
ATOM     23  C   UNL     1       0.162   9.912  22.273  0.00  0.00    +0.000 C 
ATOM     24  O   UNL     1       1.191   9.771  22.923  0.00  0.00    +0.000 OA
ATOM     25  H   UNL     1      -1.016   9.512  20.624  0.00  0.00    +0.000 HD
BRANCH  23  26
ATOM     26  C   UNL     1      -1.021  10.646  22.909  0.00  0.00    +0.000 C 
BRANCH  26  27
ATOM     27  C   UNL     1      -1.170  12.060  22.395  0.00  0.00    +0.000 A 
ATOM     28  C   UNL     1      -1.425  13.120  23.281  0.00  0.00    +0.000 A 
ATOM     29  C   UNL     1      -1.636  14.414  22.798  0.00  0.00    +0.000 A 
ATOM     30  C   UNL     1      -1.575  14.656  21.428  0.00  0.00    +0.000 A 
ATOM     31 CL   UNL     1      -1.892  16.235  20.823  0.00  0.00    +0.000 Cl
ATOM     32  C   UNL     1      -1.269  13.624  20.544  0.00  0.00    +0.000 A 
ATOM     33  C   UNL     1      -1.061  12.330  21.026  0.00  0.00    +0.000 A 
ENDBRANCH  26  27
ENDBRANCH  23  26
ENDBRANCH   8  22
TORSDOF 5
ENDMDL
MODEL 3
REMARK VINA RESULT:      -8.4      2.222      2.959
REMARK  Name = 
REMARK  7 active torsions:
REMARK  status: ('A' for Active; 'I' for Inactive)
REMARK    1  A    between atoms: C_1  and  O_2
REMARK    2  A    between atoms: O_2  and  C_3
REMARK    3  A    between atoms: C_6  and  N_7
REMARK    4  A    between atoms: C_10  and  C_11
REMARK    5  A    between atoms: C_14  and  N_15
REMARK    6  A    between atoms: C_16  and  C_18
REMARK    7  A    between atoms: C_18  and  C_19
REMARK                            x       y       z     vdW  Elec       q    Type
REMARK                         _______ _______ _______ _____ _____    ______ ____
ROOT
ATOM      1  N   UNL     1       2.056   8.067  18.137  0.00  0.00    +0.000 N 
ATOM      2  C   UNL     1       1.353   8.882  19.090  0.00  0.00    +0.000 A 
ATOM      3  C   UNL     1       0.825  10.046  18.551  0.00  0.00    +0.000 A 
ATOM      4  C   UNL     1       0.558  11.099  19.405  0.00  0.00    +0.000 A 
ATOM      5  C   UNL     1       1.342  12.387  19.254  0.00  0.00    +0.000 C 
ATOM      6  C   UNL     1       0.118  10.784  20.669  0.00  0.00    +0.000 A 
ATOM      7  C   UNL     1      -0.618  11.740  21.412  0.00  0.00    +0.000 A 
ATOM      8  C   UNL     1      -1.056  11.476  22.697  0.00  0.00    +0.000 A 
ATOM      9  C   UNL     1      -0.751  10.221  23.224  0.00  0.00    +0.000 A 
ATOM     10  C   UNL     1       0.001   9.275  22.460  0.00  0.00    +0.000 A 
ATOM     11  C   UNL     1       0.440   9.511  21.154  0.00  0.00    +0.000 A 
ATOM     12  N   UNL     1       1.170   8.617  20.404  0.00  0.00    +0.000 NA
ATOM     13  H   UNL     1       2.278   8.648  17.335  0.00  0.00    +0.000 HD
ENDROOT
BRANCH   1  17
ATOM     14  C   UNL     1       5.298   5.310  18.368  0.00  0.00    +0.000 A 
ATOM     15  C   UNL     1       4.260   5.264  19.309  0.00  0.00    +0.000 A 
ATOM     16  C   UNL     1       3.165   6.143  19.240  0.00  0.00    +0.000 A 
ATOM     17  C   UNL     1       3.111   7.131  18.265  0.00  0.00    +0.000 A 
ATOM     18  C   UNL     1       4.151   7.155  17.308  0.00  0.00    +0.000 A 
ATOM     19  C   UNL     1       5.239   6.257  17.352  0.00  0.00    +0.000 A 
BRANCH  14  21
ATOM     20  C   UNL     1       7.565   4.696  18.002  0.00  0.00    +0.000 C 
ATOM     21  O   UNL     1       6.304   4.414  18.592  0.00  0.00    +0.000 OA
ENDBRANCH  14  21
ENDBRANCH   1  17
BRANCH   8  22
ATOM     22  N   UNL     1      -1.812  12.413  23.452  0.00  0.00    +0.000 N 
ATOM     23  C   UNL     1      -3.168  12.691  23.271  0.00  0.00    +0.000 C 
ATOM     24  O   UNL     1      -3.900  12.222  22.409  0.00  0.00    +0.000 OA
ATOM     25  H   UNL     1      -1.303  12.988  24.109  0.00  0.00    +0.000 HD
BRANCH  23  26
ATOM     26  C   UNL     1      -3.748  13.695  24.270  0.00  0.00    +0.000 C 
BRANCH  26  27
ATOM     27  C   UNL     1      -2.889  14.931  24.416  0.00  0.00    +0.000 A 
ATOM     28  C   UNL     1      -2.671  15.785  23.322  0.00  0.00    +0.000 A 
ATOM     29  C   UNL     1      -1.818  16.885  23.439  0.00  0.00    +0.000 A 
ATOM     30  C   UNL     1      -1.192  17.145  24.655  0.00  0.00    +0.000 A 
ATOM     31 CL   UNL     1      -0.094  18.463  24.789  0.00  0.00    +0.000 Cl
ATOM     32  C   UNL     1      -1.441  16.337  25.762  0.00  0.00    +0.000 A 
ATOM     33  C   UNL     1      -2.293  15.236  25.646  0.00  0.00    +0.000 A 
ENDBRANCH  26  27
ENDBRANCH  23  26
ENDBRANCH   8  22
TORSDOF 5
ENDMDL
MODEL 4
REMARK VINA RESULT:      -8.4      0.833      1.291
REMARK  Name = 
REMARK  7 active torsions:
REMARK  status: ('A' for Active; 'I' for Inactive)
REMARK    1  A    between atoms: C_1  and  O_2
REMARK    2  A    between atoms: O_2  and  C_3
REMARK    3  A    between atoms: C_6  and  N_7
REMARK    4  A    between atoms: C_10  and  C_11
REMARK    5  A    between atoms: C_14  and  N_15
REMARK    6  A    between atoms: C_16  and  C_18
REMARK    7  A    between atoms: C_18  and  C_19
REMARK                            x       y       z     vdW  Elec       q    Type
REMARK                         _______ _______ _______ _____ _____    ______ ____
ROOT
ATOM      1  N   UNL     1       2.235   7.842  17.958  0.00  0.00    +0.000 N 
ATOM      2  C   UNL     1       1.529   8.685  18.885  0.00  0.00    +0.000 A 
ATOM      3  C   UNL     1       0.959   9.806  18.301  0.00  0.00    +0.000 A 
ATOM      4  C   UNL     1       0.681  10.892  19.108  0.00  0.00    +0.000 A 
ATOM      5  C   UNL     1       1.426  12.191  18.879  0.00  0.00    +0.000 C 
ATOM      6  C   UNL     1       0.274  10.629  20.395  0.00  0.00    +0.000 A 
ATOM      7  C   UNL     1      -0.473  11.601  21.106  0.00  0.00    +0.000 A 
ATOM      8  C   UNL     1      -0.879  11.389  22.411  0.00  0.00    +0.000 A 
ATOM      9  C   UNL     1      -0.529  10.170  22.992  0.00  0.00    +0.000 A 
ATOM     10  C   UNL     1       0.233   9.207  22.259  0.00  0.00    +0.000 A 
ATOM     11  C   UNL     1       0.640   9.390  20.934  0.00  0.00    +0.000 A 
ATOM     12  N   UNL     1       1.379   8.480  20.214  0.00  0.00    +0.000 NA
ATOM     13  H   UNL     1       2.426   8.389  17.124  0.00  0.00    +0.000 HD
ENDROOT
BRANCH   1  17
ATOM     14  C   UNL     1       5.554   5.184  18.255  0.00  0.00    +0.000 A 
ATOM     15  C   UNL     1       4.542   5.166  19.225  0.00  0.00    +0.000 A 
ATOM     16  C   UNL     1       3.423   6.013  19.138  0.00  0.00    +0.000 A 
ATOM     17  C   UNL     1       3.318   6.941  18.109  0.00  0.00    +0.000 A 
ATOM     18  C   UNL     1       4.331   6.937  17.124  0.00  0.00    +0.000 A 
ATOM     19  C   UNL     1       5.443   6.070  17.189  0.00  0.00    +0.000 A 
BRANCH  14  21
ATOM     20  C   UNL     1       7.809   4.573  17.816  0.00  0.00    +0.000 C 
ATOM     21  O   UNL     1       6.589   4.327  18.501  0.00  0.00    +0.000 OA
ENDBRANCH  14  21
ENDBRANCH   1  17
BRANCH   8  22
ATOM     22  N   UNL     1      -1.645  12.342  23.135  0.00  0.00    +0.000 N 
ATOM     23  C   UNL     1      -1.278  13.669  23.363  0.00  0.00    +0.000 C 
ATOM     24  O   UNL     1      -0.226  14.203  23.031  0.00  0.00    +0.000 OA
ATOM     25  H   UNL     1      -2.476  12.003  23.597  0.00  0.00    +0.000 HD
BRANCH  23  26
ATOM     26  C   UNL     1      -2.323  14.496  24.115  0.00  0.00    +0.000 C 
BRANCH  26  27
ATOM     27  C   UNL     1      -3.643  14.570  23.380  0.00  0.00    +0.000 A 
ATOM     28  C   UNL     1      -3.741  15.244  22.151  0.00  0.00    +0.000 A 
ATOM     29  C   UNL     1      -4.975  15.375  21.510  0.00  0.00    +0.000 A 
ATOM     30  C   UNL     1      -6.113  14.818  22.087  0.00  0.00    +0.000 A 
ATOM     31 CL   UNL     1      -7.646  15.027  21.333  0.00  0.00    +0.000 Cl
ATOM     32  C   UNL     1      -6.020  14.102  23.278  0.00  0.00    +0.000 A 
ATOM     33  C   UNL     1      -4.787  13.972  23.921  0.00  0.00    +0.000 A 
ENDBRANCH  26  27
ENDBRANCH  23  26
ENDBRANCH   8  22
TORSDOF 5
ENDMDL
MODEL 5
REMARK VINA RESULT:      -8.3      0.555      1.073
REMARK  Name = 
REMARK  7 active torsions:
REMARK  status: ('A' for Active; 'I' for Inactive)
REMARK    1  A    between atoms: C_1  and  O_2
REMARK    2  A    between atoms: O_2  and  C_3
REMARK    3  A    between atoms: C_6  and  N_7
REMARK    4  A    between atoms: C_10  and  C_11
REMARK    5  A    between atoms: C_14  and  N_15
REMARK    6  A    between atoms: C_16  and  C_18
REMARK    7  A    between atoms: C_18  and  C_19
REMARK                            x       y       z     vdW  Elec       q    Type
REMARK                         _______ _______ _______ _____ _____    ______ ____
ROOT
ATOM      1  N   UNL     1       2.241   7.811  17.908  0.00  0.00    +0.000 N 
ATOM      2  C   UNL     1       1.519   8.626  18.847  0.00  0.00    +0.000 A 
ATOM      3  C   UNL     1       0.869   9.706  18.267  0.00  0.00    +0.000 A 
ATOM      4  C   UNL     1       0.557  10.787  19.069  0.00  0.00    +0.000 A 
ATOM      5  C   UNL     1       1.221  12.122  18.800  0.00  0.00    +0.000 C 
ATOM      6  C   UNL     1       0.206  10.519  20.372  0.00  0.00    +0.000 A 
ATOM      7  C   UNL     1      -0.571  11.459  21.095  0.00  0.00    +0.000 A 
ATOM      8  C   UNL     1      -0.923  11.244  22.415  0.00  0.00    +0.000 A 
ATOM      9  C   UNL     1      -0.488  10.053  22.999  0.00  0.00    +0.000 A 
ATOM     10  C   UNL     1       0.302   9.124  22.254  0.00  0.00    +0.000 A 
ATOM     11  C   UNL     1       0.656   9.310  20.914  0.00  0.00    +0.000 A 
ATOM     12  N   UNL     1       1.422   8.432  20.182  0.00  0.00    +0.000 NA
ATOM     13  H   UNL     1       2.375   8.355  17.061  0.00  0.00    +0.000 HD
ENDROOT
BRANCH   1  17
ATOM     14  C   UNL     1       5.589   5.227  18.443  0.00  0.00    +0.000 A 
ATOM     15  C   UNL     1       5.567   6.152  17.389  0.00  0.00    +0.000 A 
ATOM     16  C   UNL     1       4.489   7.035  17.206  0.00  0.00    +0.000 A 
ATOM     17  C   UNL     1       3.376   6.973  18.035  0.00  0.00    +0.000 A 
ATOM     18  C   UNL     1       3.416   6.053  19.108  0.00  0.00    +0.000 A 
ATOM     19  C   UNL     1       4.508   5.184  19.317  0.00  0.00    +0.000 A 
BRANCH  14  21
ATOM     20  C   UNL     1       7.953   5.053  18.608  0.00  0.00    +0.000 C 
ATOM     21  O   UNL     1       6.690   4.420  18.464  0.00  0.00    +0.000 OA
ENDBRANCH  14  21
ENDBRANCH   1  17
BRANCH   8  22
ATOM     22  N   UNL     1      -1.718  12.163  23.151  0.00  0.00    +0.000 N 
ATOM     23  C   UNL     1      -1.402  13.504  23.377  0.00  0.00    +0.000 C 
ATOM     24  O   UNL     1      -0.378  14.081  23.033  0.00  0.00    +0.000 OA
ATOM     25  H   UNL     1      -2.529  11.790  23.624  0.00  0.00    +0.000 HD
BRANCH  23  26
ATOM     26  C   UNL     1      -2.470  14.286  24.145  0.00  0.00    +0.000 C 
BRANCH  26  27
ATOM     27  C   UNL     1      -3.851  14.120  23.550  0.00  0.00    +0.000 A 
ATOM     28  C   UNL     1      -4.836  13.378  24.223  0.00  0.00    +0.000 A 
ATOM     29  C   UNL     1      -6.086  13.164  23.638  0.00  0.00    +0.000 A 
ATOM     30  C   UNL     1      -6.362  13.705  22.385  0.00  0.00    +0.000 A 
ATOM     31 CL   UNL     1      -7.879  13.395  21.633  0.00  0.00    +0.000 Cl
ATOM     32  C   UNL     1      -5.413  14.487  21.731  0.00  0.00    +0.000 A 
ATOM     33  C   UNL     1      -4.162  14.700  22.314  0.00  0.00    +0.000 A 
ENDBRANCH  26  27
ENDBRANCH  23  26
ENDBRANCH   8  22
TORSDOF 5
ENDMDL
MODEL 6
REMARK VINA RESULT:      -8.3      3.324      4.295
REMARK  Name = 
REMARK  7 active torsions:
REMARK  status: ('A' for Active; 'I' for Inactive)
REMARK    1  A    between atoms: C_1  and  O_2
REMARK    2  A    between atoms: O_2  and  C_3
REMARK    3  A    between atoms: C_6  and  N_7
REMARK    4  A    between atoms: C_10  and  C_11
REMARK    5  A    between atoms: C_14  and  N_15
REMARK    6  A    between atoms: C_16  and  C_18
REMARK    7  A    between atoms: C_18  and  C_19
REMARK                            x       y       z     vdW  Elec       q    Type
REMARK                         _______ _______ _______ _____ _____    ______ ____
ROOT
ATOM      1  N   UNL     1       2.050   7.726  20.607  0.00  0.00    +0.000 N 
ATOM      2  C   UNL     1       1.116   8.819  20.582  0.00  0.00    +0.000 A 
ATOM      3  C   UNL     1       1.145   9.607  21.722  0.00  0.00    +0.000 A 
ATOM      4  C   UNL     1       0.026  10.360  22.024  0.00  0.00    +0.000 A 
ATOM      5  C   UNL     1      -0.756  10.046  23.283  0.00  0.00    +0.000 C 
ATOM      6  C   UNL     1      -0.682  10.881  20.967  0.00  0.00    +0.000 A 
ATOM      7  C   UNL     1      -1.507  12.015  21.168  0.00  0.00    +0.000 A 
ATOM      8  C   UNL     1      -2.258  12.556  20.140  0.00  0.00    +0.000 A 
ATOM      9  C   UNL     1      -2.157  11.940  18.892  0.00  0.00    +0.000 A 
ATOM     10  C   UNL     1      -1.325  10.791  18.714  0.00  0.00    +0.000 A 
ATOM     11  C   UNL     1      -0.544  10.237  19.732  0.00  0.00    +0.000 A 
ATOM     12  N   UNL     1       0.257   9.128  19.583  0.00  0.00    +0.000 NA
ATOM     13  H   UNL     1       2.329   7.577  21.572  0.00  0.00    +0.000 HD
ENDROOT
BRANCH   1  17
ATOM     14  C   UNL     1       2.147   3.980  18.576  0.00  0.00    +0.000 A 
ATOM     15  C   UNL     1       1.594   4.076  19.861  0.00  0.00    +0.000 A 
ATOM     16  C   UNL     1       1.524   5.303  20.542  0.00  0.00    +0.000 A 
ATOM     17  C   UNL     1       2.061   6.455  19.981  0.00  0.00    +0.000 A 
ATOM     18  C   UNL     1       2.597   6.353  18.677  0.00  0.00    +0.000 A 
ATOM     19  C   UNL     1       2.644   5.130  17.974  0.00  0.00    +0.000 A 
BRANCH  14  21
ATOM     20  C   UNL     1       3.447   2.109  17.898  0.00  0.00    +0.000 C 
ATOM     21  O   UNL     1       2.172   2.713  18.065  0.00  0.00    +0.000 OA
ENDBRANCH  14  21
ENDBRANCH   1  17
BRANCH   8  22
ATOM     22  N   UNL     1      -3.076  13.704  20.316  0.00  0.00    +0.000 N 
ATOM     23  C   UNL     1      -4.270  13.743  21.039  0.00  0.00    +0.000 C 
ATOM     24  O   UNL     1      -4.826  12.796  21.582  0.00  0.00    +0.000 OA
ATOM     25  H   UNL     1      -2.818  14.532  19.799  0.00  0.00    +0.000 HD
BRANCH  23  26
ATOM     26  C   UNL     1      -4.914  15.129  21.125  0.00  0.00    +0.000 C 
BRANCH  26  27
ATOM     27  C   UNL     1      -5.653  15.505  19.860  0.00  0.00    +0.000 A 
ATOM     28  C   UNL     1      -6.381  14.541  19.143  0.00  0.00    +0.000 A 
ATOM     29  C   UNL     1      -7.001  14.873  17.937  0.00  0.00    +0.000 A 
ATOM     30  C   UNL     1      -6.910  16.175  17.451  0.00  0.00    +0.000 A 
ATOM     31 CL   UNL     1      -7.621  16.576  15.936  0.00  0.00    +0.000 Cl
ATOM     32  C   UNL     1      -6.236  17.153  18.179  0.00  0.00    +0.000 A 
ATOM     33  C   UNL     1      -5.614  16.821  19.385  0.00  0.00    +0.000 A 
ENDBRANCH  26  27
ENDBRANCH  23  26
ENDBRANCH   8  22
TORSDOF 5
ENDMDL
MODEL 7
REMARK VINA RESULT:      -8.3      4.516     11.282
REMARK  Name = 
REMARK  7 active torsions:
REMARK  status: ('A' for Active; 'I' for Inactive)
REMARK    1  A    between atoms: C_1  and  O_2
REMARK    2  A    between atoms: O_2  and  C_3
REMARK    3  A    between atoms: C_6  and  N_7
REMARK    4  A    between atoms: C_10  and  C_11
REMARK    5  A    between atoms: C_14  and  N_15
REMARK    6  A    between atoms: C_16  and  C_18
REMARK    7  A    between atoms: C_18  and  C_19
REMARK                            x       y       z     vdW  Elec       q    Type
REMARK                         _______ _______ _______ _____ _____    ______ ____
ROOT
ATOM      1  N   UNL     1      -1.298  11.966  20.553  0.00  0.00    +0.000 N 
ATOM      2  C   UNL     1      -0.419  10.883  20.205  0.00  0.00    +0.000 A 
ATOM      3  C   UNL     1      -0.457   9.821  21.097  0.00  0.00    +0.000 A 
ATOM      4  C   UNL     1       0.630   8.972  21.148  0.00  0.00    +0.000 A 
ATOM      5  C   UNL     1       1.458   8.908  22.416  0.00  0.00    +0.000 C 
ATOM      6  C   UNL     1       1.287   8.723  19.965  0.00  0.00    +0.000 A 
ATOM      7  C   UNL     1       2.061   7.544  19.829  0.00  0.00    +0.000 A 
ATOM      8  C   UNL     1       2.760   7.267  18.668  0.00  0.00    +0.000 A 
ATOM      9  C   UNL     1       2.658   8.196  17.632  0.00  0.00    +0.000 A 
ATOM     10  C   UNL     1       1.879   9.384  17.795  0.00  0.00    +0.000 A 
ATOM     11  C   UNL     1       1.150   9.677  18.951  0.00  0.00    +0.000 A 
ATOM     12  N   UNL     1       0.399  10.817  19.130  0.00  0.00    +0.000 NA
ATOM     13  H   UNL     1      -1.546  11.864  21.533  0.00  0.00    +0.000 HD
ENDROOT
BRANCH   1  17
ATOM     14  C   UNL     1      -1.058  16.123  19.641  0.00  0.00    +0.000 A 
ATOM     15  C   UNL     1      -1.946  15.662  20.624  0.00  0.00    +0.000 A 
ATOM     16  C   UNL     1      -2.026  14.301  20.964  0.00  0.00    +0.000 A 
ATOM     17  C   UNL     1      -1.264  13.357  20.287  0.00  0.00    +0.000 A 
ATOM     18  C   UNL     1      -0.356  13.833  19.313  0.00  0.00    +0.000 A 
ATOM     19  C   UNL     1      -0.248  15.202  18.986  0.00  0.00    +0.000 A 
BRANCH  14  21
ATOM     20  C   UNL     1      -0.859  17.902  18.078  0.00  0.00    +0.000 C 
ATOM     21  O   UNL     1      -1.125  17.466  19.403  0.00  0.00    +0.000 OA
ENDBRANCH  14  21
ENDBRANCH   1  17
BRANCH   8  22
ATOM     22  N   UNL     1       3.526   6.082  18.504  0.00  0.00    +0.000 N 
ATOM     23  C   UNL     1       3.028   4.851  18.073  0.00  0.00    +0.000 C 
ATOM     24  O   UNL     1       1.859   4.583  17.825  0.00  0.00    +0.000 OA
ATOM     25  H   UNL     1       4.487   6.113  18.813  0.00  0.00    +0.000 HD
BRANCH  23  26
ATOM     26  C   UNL     1       4.088   3.758  17.918  0.00  0.00    +0.000 C 
BRANCH  26  27
ATOM     27  C   UNL     1       5.081   4.063  16.819  0.00  0.00    +0.000 A 
ATOM     28  C   UNL     1       6.409   4.402  17.129  0.00  0.00    +0.000 A 
ATOM     29  C   UNL     1       7.305   4.756  16.118  0.00  0.00    +0.000 A 
ATOM     30  C   UNL     1       6.882   4.756  14.791  0.00  0.00    +0.000 A 
ATOM     31 CL   UNL     1       7.963   5.249  13.546  0.00  0.00    +0.000 Cl
ATOM     32  C   UNL     1       5.583   4.371  14.466  0.00  0.00    +0.000 A 
ATOM     33  C   UNL     1       4.686   4.018  15.477  0.00  0.00    +0.000 A 
ENDBRANCH  26  27
ENDBRANCH  23  26
ENDBRANCH   8  22
TORSDOF 5
ENDMDL
MODEL 8
REMARK VINA RESULT:      -8.3      2.921      4.818
REMARK  Name = 
REMARK  7 active torsions:
REMARK  status: ('A' for Active; 'I' for Inactive)
REMARK    1  A    between atoms: C_1  and  O_2
REMARK    2  A    between atoms: O_2  and  C_3
REMARK    3  A    between atoms: C_6  and  N_7
REMARK    4  A    between atoms: C_10  and  C_11
REMARK    5  A    between atoms: C_14  and  N_15
REMARK    6  A    between atoms: C_16  and  C_18
REMARK    7  A    between atoms: C_18  and  C_19
REMARK                            x       y       z     vdW  Elec       q    Type
REMARK                         _______ _______ _______ _____ _____    ______ ____
ROOT
ATOM      1  N   UNL     1       5.462   4.834  17.878  0.00  0.00    +0.000 N 
ATOM      2  C   UNL     1       4.427   5.601  18.516  0.00  0.00    +0.000 A 
ATOM      3  C   UNL     1       4.062   5.122  19.765  0.00  0.00    +0.000 A 
ATOM      4  C   UNL     1       2.814   5.455  20.253  0.00  0.00    +0.000 A 
ATOM      5  C   UNL     1       1.789   4.359  20.466  0.00  0.00    +0.000 C 
ATOM      6  C   UNL     1       2.331   6.704  19.939  0.00  0.00    +0.000 A 
ATOM      7  C   UNL     1       1.338   7.297  20.758  0.00  0.00    +0.000 A 
ATOM      8  C   UNL     1       0.805   8.539  20.464  0.00  0.00    +0.000 A 
ATOM      9  C   UNL     1       1.298   9.187  19.331  0.00  0.00    +0.000 A 
ATOM     10  C   UNL     1       2.294   8.566  18.514  0.00  0.00    +0.000 A 
ATOM     11  C   UNL     1       2.861   7.320  18.799  0.00  0.00    +0.000 A 
ATOM     12  N   UNL     1       3.814   6.702  18.023  0.00  0.00    +0.000 NA
ATOM     13  H   UNL     1       5.506   3.929  18.337  0.00  0.00    +0.000 HD
ENDROOT
BRANCH   1  17
ATOM     14  C   UNL     1       6.328   4.086  13.772  0.00  0.00    +0.000 A 
ATOM     15  C   UNL     1       7.267   4.733  14.589  0.00  0.00    +0.000 A 
ATOM     16  C   UNL     1       7.018   4.968  15.952  0.00  0.00    +0.000 A 
ATOM     17  C   UNL     1       5.800   4.616  16.519  0.00  0.00    +0.000 A 
ATOM     18  C   UNL     1       4.869   3.945  15.694  0.00  0.00    +0.000 A 
ATOM     19  C   UNL     1       5.123   3.679  14.331  0.00  0.00    +0.000 A 
BRANCH  14  21
ATOM     20  C   UNL     1       7.572   4.964  11.946  0.00  0.00    +0.000 C 
ATOM     21  O   UNL     1       6.705   3.965  12.464  0.00  0.00    +0.000 OA
ENDBRANCH  14  21
ENDBRANCH   1  17
BRANCH   8  22
ATOM     22  N   UNL     1      -0.177   9.159  21.282  0.00  0.00    +0.000 N 
ATOM     23  C   UNL     1       0.050   9.695  22.552  0.00  0.00    +0.000 C 
ATOM     24  O   UNL     1       1.101   9.664  23.179  0.00  0.00    +0.000 OA
ATOM     25  H   UNL     1      -1.131   9.127  20.955  0.00  0.00    +0.000 HD
BRANCH  23  26
ATOM     26  C   UNL     1      -1.171  10.367  23.183  0.00  0.00    +0.000 C 
BRANCH  26  27
ATOM     27  C   UNL     1      -1.307  11.818  22.782  0.00  0.00    +0.000 A 
ATOM     28  C   UNL     1      -0.340  12.429  21.966  0.00  0.00    +0.000 A 
ATOM     29  C   UNL     1      -0.428  13.788  21.657  0.00  0.00    +0.000 A 
ATOM     30  C   UNL     1      -1.494  14.539  22.149  0.00  0.00    +0.000 A 
ATOM     31 CL   UNL     1      -1.576  16.226  21.822  0.00  0.00    +0.000 Cl
ATOM     32  C   UNL     1      -2.487  13.933  22.914  0.00  0.00    +0.000 A 
ATOM     33  C   UNL     1      -2.399  12.574  23.225  0.00  0.00    +0.000 A 
ENDBRANCH  26  27
ENDBRANCH  23  26
ENDBRANCH   8  22
TORSDOF 5
ENDMDL
MODEL 9
REMARK VINA RESULT:      -8.2      4.085     11.229
REMARK  Name = 
REMARK  7 active torsions:
REMARK  status: ('A' for Active; 'I' for Inactive)
REMARK    1  A    between atoms: C_1  and  O_2
REMARK    2  A    between atoms: O_2  and  C_3
REMARK    3  A    between atoms: C_6  and  N_7
REMARK    4  A    between atoms: C_10  and  C_11
REMARK    5  A    between atoms: C_14  and  N_15
REMARK    6  A    between atoms: C_16  and  C_18
REMARK    7  A    between atoms: C_18  and  C_19
REMARK                            x       y       z     vdW  Elec       q    Type
REMARK                         _______ _______ _______ _____ _____    ______ ____
ROOT
ATOM      1  N   UNL     1      -2.536  13.679  20.154  0.00  0.00    +0.000 N 
ATOM      2  C   UNL     1      -1.675  12.528  20.193  0.00  0.00    +0.000 A 
ATOM      3  C   UNL     1      -1.143  12.185  18.958  0.00  0.00    +0.000 A 
ATOM      4  C   UNL     1      -0.711  10.887  18.772  0.00  0.00    +0.000 A 
ATOM      5  C   UNL     1      -1.424  10.009  17.764  0.00  0.00    +0.000 C 
ATOM      6  C   UNL     1      -0.143  10.254  19.854  0.00  0.00    +0.000 A 
ATOM      7  C   UNL     1       0.735   9.161  19.644  0.00  0.00    +0.000 A 
ATOM      8  C   UNL     1       1.307   8.479  20.702  0.00  0.00    +0.000 A 
ATOM      9  C   UNL     1       0.988   8.923  21.986  0.00  0.00    +0.000 A 
ATOM     10  C   UNL     1       0.093  10.021  22.175  0.00  0.00    +0.000 A 
ATOM     11  C   UNL     1      -0.484  10.738  21.122  0.00  0.00    +0.000 A 
ATOM     12  N   UNL     1      -1.353  11.793  21.281  0.00  0.00    +0.000 NA
ATOM     13  H   UNL     1      -2.816  13.826  19.190  0.00  0.00    +0.000 HD
ENDROOT
BRANCH   1  17
ATOM     14  C   UNL     1      -5.887  14.762  22.556  0.00  0.00    +0.000 A 
ATOM     15  C   UNL     1      -4.910  15.715  22.229  0.00  0.00    +0.000 A 
ATOM     16  C   UNL     1      -3.810  15.391  21.417  0.00  0.00    +0.000 A 
ATOM     17  C   UNL     1      -3.625  14.092  20.960  0.00  0.00    +0.000 A 
ATOM     18  C   UNL     1      -4.626  13.145  21.277  0.00  0.00    +0.000 A 
ATOM     19  C   UNL     1      -5.749  13.468  22.067  0.00  0.00    +0.000 A 
BRANCH  14  21
ATOM     20  C   UNL     1      -7.664  14.252  24.050  0.00  0.00    +0.000 C 
ATOM     21  O   UNL     1      -6.872  15.224  23.382  0.00  0.00    +0.000 OA
ENDBRANCH  14  21
ENDBRANCH   1  17
BRANCH   8  22
ATOM     22  N   UNL     1       2.204   7.394  20.514  0.00  0.00    +0.000 N 
ATOM     23  C   UNL     1       2.567   6.850  19.281  0.00  0.00    +0.000 C 
ATOM     24  O   UNL     1       2.133   7.177  18.183  0.00  0.00    +0.000 OA
ATOM     25  H   UNL     1       2.533   6.923  21.345  0.00  0.00    +0.000 HD
BRANCH  23  26
ATOM     26  C   UNL     1       3.608   5.731  19.363  0.00  0.00    +0.000 C 
BRANCH  26  27
ATOM     27  C   UNL     1       4.326   5.508  18.051  0.00  0.00    +0.000 A 
ATOM     28  C   UNL     1       4.088   4.350  17.292  0.00  0.00    +0.000 A 
ATOM     29  C   UNL     1       4.806   4.110  16.118  0.00  0.00    +0.000 A 
ATOM     30  C   UNL     1       5.753   5.037  15.689  0.00  0.00    +0.000 A 
ATOM     31 CL   UNL     1       6.683   4.720  14.276  0.00  0.00    +0.000 Cl
ATOM     32  C   UNL     1       5.959   6.215  16.403  0.00  0.00    +0.000 A 
ATOM     33  C   UNL     1       5.243   6.454  17.578  0.00  0.00    +0.000 A 
ENDBRANCH  26  27
ENDBRANCH  23  26
ENDBRANCH   8  22
TORSDOF 5
ENDMDL
