MODEL 1
REMARK VINA RESULT:      -8.5      0.000      0.000
REMARK  Name = 
REMARK  7 active torsions:
REMARK  status: ('A' for Active; 'I' for Inactive)
REMARK    1  A    between atoms: C_1  and  C_2
REMARK    2  A    between atoms: C_5  and  C_6
REMARK    3  A    between atoms: N_7  and  O_8
REMARK    4  A    between atoms: C_12  and  C_13
REMARK    5  A    between atoms: C_16  and  O_17
REMARK    6  A    between atoms: O_17  and  C_18
REMARK    7  A    between atoms: C_18  and  C_19
REMARK                            x       y       z     vdW  Elec       q    Type
REMARK                         _______ _______ _______ _____ _____    ______ ____
ROOT
ATOM      1  C   UNL     1       1.338   3.012  21.581  0.00  0.00    +0.000 C 
ATOM      2  C   UNL     1       2.315   3.279  20.479  0.00  0.00    +0.000 A 
ATOM      3  C   UNL     1       3.433   2.496  20.283  0.00  0.00    +0.000 A 
ATOM      4  C   UNL     1       4.294   2.826  19.239  0.00  0.00    +0.000 A 
ATOM      5  C   UNL     1       4.037   3.928  18.396  0.00  0.00    +0.000 A 
ATOM      6  C   UNL     1       2.877   4.659  18.657  0.00  0.00    +0.000 A 
ATOM      7  N   UNL     1       2.045   4.338  19.691  0.00  0.00    +0.000 NA
ENDROOT
BRANCH   5   8
ATOM      8  C   UNL     1       5.030   4.177  17.283  0.00  0.00    +0.000 C 
ATOM      9  N   UNL     1       5.020   3.364  16.264  0.00  0.00    +0.000 NA
ATOM     10  N   UNL     1       5.897   5.274  17.456  0.00  0.00    +0.000 N 
ATOM     11  C   UNL     1       7.335   5.012  17.641  0.00  0.00    +0.000 C 
ATOM     12  C   UNL     1       7.986   6.215  18.338  0.00  0.00    +0.000 C 
ATOM     13  C   UNL     1       7.739   7.521  17.565  0.00  0.00    +0.000 C 
ATOM     14  C   UNL     1       8.272   8.729  18.335  0.00  0.00    +0.000 C 
ATOM     15  C   UNL     1       6.242   7.688  17.267  0.00  0.00    +0.000 C 
ATOM     16  C   UNL     1       5.661   6.442  16.597  0.00  0.00    +0.000 C 
BRANCH   9  17
ATOM     17  O   UNL     1       5.994   3.699  15.313  0.00  0.00    +0.000 OA
ATOM     18  H   UNL     1       5.668   4.554  14.982  0.00  0.00    +0.000 HD
ENDBRANCH   9  17
ENDBRANCH   5   8
BRANCH   6  19
ATOM     19  O   UNL     1       2.517   5.796  17.938  0.00  0.00    +0.000 OA
BRANCH  19  20
ATOM     20  C   UNL     1       2.999   6.982  18.608  0.00  0.00    +0.000 C 
BRANCH  20  21
ATOM     21  C   UNL     1       2.004   8.089  18.885  0.00  0.00    +0.000 A 
ATOM     22  C   UNL     1       1.683   9.112  17.992  0.00  0.00    +0.000 A 
ATOM     23  C   UNL     1       0.820  10.144  18.390  0.00  0.00    +0.000 A 
ATOM     24  C   UNL     1       0.279  10.168  19.679  0.00  0.00    +0.000 A 
ATOM     25  C   UNL     1       0.593   9.155  20.577  0.00  0.00    +0.000 A 
ATOM     26  C   UNL     1       1.446   8.133  20.176  0.00  0.00    +0.000 A 
ATOM     27  F   UNL     1       1.762   7.181  21.067  0.00  0.00    +0.000 F 
ENDBRANCH  20  21
ENDBRANCH  19  20
ENDBRANCH   6  19
TORSDOF 5
ENDMDL
MODEL 2
REMARK VINA RESULT:      -8.3      0.875      1.280
REMARK  Name = 
REMARK  7 active torsions:
REMARK  status: ('A' for Active; 'I' for Inactive)
REMARK    1  A    between atoms: C_1  and  C_2
REMARK    2  A    between atoms: C_5  and  C_6
REMARK    3  A    between atoms: N_7  and  O_8
REMARK    4  A    between atoms: C_12  and  C_13
REMARK    5  A    between atoms: C_16  and  O_17
REMARK    6  A    between atoms: O_17  and  C_18
REMARK    7  A    between atoms: C_18  and  C_19
REMARK                            x       y       z     vdW  Elec       q    Type
REMARK                         _______ _______ _______ _____ _____    ______ ____
ROOT
ATOM      1  C   UNL     1       1.406   2.781  21.593  0.00  0.00    +0.000 C 
ATOM      2  C   UNL     1       2.341   3.093  20.468  0.00  0.00    +0.000 A 
ATOM      3  C   UNL     1       3.345   2.228  20.085  0.00  0.00    +0.000 A 
ATOM      4  C   UNL     1       4.175   2.606  19.033  0.00  0.00    +0.000 A 
ATOM      5  C   UNL     1       4.002   3.837  18.367  0.00  0.00    +0.000 A 
ATOM      6  C   UNL     1       2.954   4.647  18.809  0.00  0.00    +0.000 A 
ATOM      7  N   UNL     1       2.152   4.276  19.850  0.00  0.00    +0.000 NA
ENDROOT
BRANCH   5   8
ATOM      8  C   UNL     1       4.950   4.131  17.225  0.00  0.00    +0.000 C 
ATOM      9  N   UNL     1       4.909   3.349  16.183  0.00  0.00    +0.000 NA
ATOM     10  N   UNL     1       5.812   5.232  17.399  0.00  0.00    +0.000 N 
ATOM     11  C   UNL     1       7.258   4.980  17.522  0.00  0.00    +0.000 C 
ATOM     12  C   UNL     1       7.923   6.169  18.231  0.00  0.00    +0.000 C 
ATOM     13  C   UNL     1       7.634   7.495  17.508  0.00  0.00    +0.000 C 
ATOM     14  C   UNL     1       8.183   8.685  18.295  0.00  0.00    +0.000 C 
ATOM     15  C   UNL     1       6.125   7.654  17.271  0.00  0.00    +0.000 C 
ATOM     16  C   UNL     1       5.531   6.423  16.586  0.00  0.00    +0.000 C 
BRANCH   9  17
ATOM     17  O   UNL     1       5.843   3.724  15.207  0.00  0.00    +0.000 OA
ATOM     18  H   UNL     1       6.567   3.093  15.367  0.00  0.00    +0.000 HD
ENDBRANCH   9  17
ENDBRANCH   5   8
BRANCH   6  19
ATOM     19  O   UNL     1       2.689   5.906  18.276  0.00  0.00    +0.000 OA
BRANCH  19  20
ATOM     20  C   UNL     1       3.005   6.932  19.244  0.00  0.00    +0.000 C 
BRANCH  20  21
ATOM     21  C   UNL     1       2.008   8.055  19.430  0.00  0.00    +0.000 A 
ATOM     22  C   UNL     1       1.292   8.298  20.604  0.00  0.00    +0.000 A 
ATOM     23  C   UNL     1       0.320   9.309  20.635  0.00  0.00    +0.000 A 
ATOM     24  C   UNL     1       0.048  10.077  19.499  0.00  0.00    +0.000 A 
ATOM     25  C   UNL     1       0.754   9.843  18.324  0.00  0.00    +0.000 A 
ATOM     26  C   UNL     1       1.720   8.842  18.300  0.00  0.00    +0.000 A 
ATOM     27  F   UNL     1       2.368   8.611  17.149  0.00  0.00    +0.000 F 
ENDBRANCH  20  21
ENDBRANCH  19  20
ENDBRANCH   6  19
TORSDOF 5
ENDMDL
MODEL 3
REMARK VINA RESULT:      -7.9      0.968      1.004
REMARK  Name = 
REMARK  7 active torsions:
REMARK  status: ('A' for Active; 'I' for Inactive)
REMARK    1  A    between atoms: C_1  and  C_2
REMARK    2  A    between atoms: C_5  and  C_6
REMARK    3  A    between atoms: N_7  and  O_8
REMARK    4  A    between atoms: C_12  and  C_13
REMARK    5  A    between atoms: C_16  and  O_17
REMARK    6  A    between atoms: O_17  and  C_18
REMARK    7  A    between atoms: C_18  and  C_19
REMARK                            x       y       z     vdW  Elec       q    Type
REMARK                         _______ _______ _______ _____ _____    ______ ____
ROOT
ATOM      1  C   UNL     1       0.468   2.795  19.958  0.00  0.00    +0.000 C 
ATOM      2  C   UNL     1       1.665   3.052  19.098  0.00  0.00    +0.000 A 
ATOM      3  C   UNL     1       2.225   2.072  18.306  0.00  0.00    +0.000 A 
ATOM      4  C   UNL     1       3.345   2.398  17.546  0.00  0.00    +0.000 A 
ATOM      5  C   UNL     1       3.901   3.695  17.576  0.00  0.00    +0.000 A 
ATOM      6  C   UNL     1       3.265   4.630  18.395  0.00  0.00    +0.000 A 
ATOM      7  N   UNL     1       2.175   4.299  19.148  0.00  0.00    +0.000 NA
ENDROOT
BRANCH   5   8
ATOM      8  C   UNL     1       5.104   3.938  16.694  0.00  0.00    +0.000 C 
ATOM      9  N   UNL     1       5.289   3.139  15.681  0.00  0.00    +0.000 NA
ATOM     10  N   UNL     1       5.936   5.016  17.058  0.00  0.00    +0.000 N 
ATOM     11  C   UNL     1       7.301   4.723  17.529  0.00  0.00    +0.000 C 
ATOM     12  C   UNL     1       7.816   5.903  18.364  0.00  0.00    +0.000 C 
ATOM     13  C   UNL     1       7.754   7.224  17.579  0.00  0.00    +0.000 C 
ATOM     14  C   UNL     1       8.139   8.411  18.462  0.00  0.00    +0.000 C 
ATOM     15  C   UNL     1       6.353   7.425  16.984  0.00  0.00    +0.000 C 
ATOM     16  C   UNL     1       5.900   6.199  16.189  0.00  0.00    +0.000 C 
BRANCH   9  17
ATOM     17  O   UNL     1       6.442   3.467  14.954  0.00  0.00    +0.000 OA
ATOM     18  H   UNL     1       7.107   2.881  15.354  0.00  0.00    +0.000 HD
ENDBRANCH   9  17
ENDBRANCH   5   8
BRANCH   6  19
ATOM     19  O   UNL     1       3.725   5.934  18.559  0.00  0.00    +0.000 OA
BRANCH  19  20
ATOM     20  C   UNL     1       2.985   6.593  19.611  0.00  0.00    +0.000 C 
BRANCH  20  21
ATOM     21  C   UNL     1       2.182   7.822  19.245  0.00  0.00    +0.000 A 
ATOM     22  C   UNL     1       2.234   8.468  18.008  0.00  0.00    +0.000 A 
ATOM     23  C   UNL     1       1.519   9.659  17.810  0.00  0.00    +0.000 A 
ATOM     24  C   UNL     1       0.757  10.218  18.840  0.00  0.00    +0.000 A 
ATOM     25  C   UNL     1       0.700   9.584  20.076  0.00  0.00    +0.000 A 
ATOM     26  C   UNL     1       1.406   8.402  20.266  0.00  0.00    +0.000 A 
ATOM     27  F   UNL     1       1.363   7.821  21.475  0.00  0.00    +0.000 F 
ENDBRANCH  20  21
ENDBRANCH  19  20
ENDBRANCH   6  19
TORSDOF 5
ENDMDL
MODEL 4
REMARK VINA RESULT:      -7.7      1.748      2.668
REMARK  Name = 
REMARK  7 active torsions:
REMARK  status: ('A' for Active; 'I' for Inactive)
REMARK    1  A    between atoms: C_1  and  C_2
REMARK    2  A    between atoms: C_5  and  C_6
REMARK    3  A    between atoms: N_7  and  O_8
REMARK    4  A    between atoms: C_12  and  C_13
REMARK    5  A    between atoms: C_16  and  O_17
REMARK    6  A    between atoms: O_17  and  C_18
REMARK    7  A    between atoms: C_18  and  C_19
REMARK                            x       y       z     vdW  Elec       q    Type
REMARK                         _______ _______ _______ _____ _____    ______ ____
ROOT
ATOM      1  C   UNL     1       1.200   2.661  21.365  0.00  0.00    +0.000 C 
ATOM      2  C   UNL     1       2.412   3.238  20.704  0.00  0.00    +0.000 A 
ATOM      3  C   UNL     1       3.571   2.512  20.531  0.00  0.00    +0.000 A 
ATOM      4  C   UNL     1       4.654   3.135  19.915  0.00  0.00    +0.000 A 
ATOM      5  C   UNL     1       4.577   4.471  19.472  0.00  0.00    +0.000 A 
ATOM      6  C   UNL     1       3.363   5.130  19.674  0.00  0.00    +0.000 A 
ATOM      7  N   UNL     1       2.310   4.517  20.291  0.00  0.00    +0.000 NA
ENDROOT
BRANCH   5   8
ATOM      8  C   UNL     1       5.808   5.035  18.797  0.00  0.00    +0.000 C 
ATOM      9  N   UNL     1       6.730   5.562  19.553  0.00  0.00    +0.000 NA
ATOM     10  N   UNL     1       5.843   4.948  17.391  0.00  0.00    +0.000 N 
ATOM     11  C   UNL     1       5.782   6.194  16.608  0.00  0.00    +0.000 C 
ATOM     12  C   UNL     1       5.287   5.880  15.189  0.00  0.00    +0.000 C 
ATOM     13  C   UNL     1       6.161   4.817  14.504  0.00  0.00    +0.000 C 
ATOM     14  C   UNL     1       5.581   4.412  13.149  0.00  0.00    +0.000 C 
ATOM     15  C   UNL     1       6.317   3.589  15.413  0.00  0.00    +0.000 C 
ATOM     16  C   UNL     1       6.788   3.984  16.814  0.00  0.00    +0.000 C 
BRANCH   9  17
ATOM     17  O   UNL     1       7.807   6.054  18.803  0.00  0.00    +0.000 OA
ATOM     18  H   UNL     1       8.551   5.530  19.149  0.00  0.00    +0.000 HD
ENDBRANCH   9  17
ENDBRANCH   5   8
BRANCH   6  19
ATOM     19  O   UNL     1       3.154   6.463  19.329  0.00  0.00    +0.000 OA
BRANCH  19  20
ATOM     20  C   UNL     1       2.153   7.049  20.190  0.00  0.00    +0.000 C 
BRANCH  20  21
ATOM     21  C   UNL     1       1.541   8.366  19.766  0.00  0.00    +0.000 A 
ATOM     22  C   UNL     1       1.767   8.990  18.538  0.00  0.00    +0.000 A 
ATOM     23  C   UNL     1       1.227  10.260  18.287  0.00  0.00    +0.000 A 
ATOM     24  C   UNL     1       0.465  10.919  19.257  0.00  0.00    +0.000 A 
ATOM     25  C   UNL     1       0.235  10.308  20.485  0.00  0.00    +0.000 A 
ATOM     26  C   UNL     1       0.770   9.047  20.726  0.00  0.00    +0.000 A 
ATOM     27  F   UNL     1       0.563   8.487  21.927  0.00  0.00    +0.000 F 
ENDBRANCH  20  21
ENDBRANCH  19  20
ENDBRANCH   6  19
TORSDOF 5
ENDMDL
MODEL 5
REMARK VINA RESULT:      -7.7      1.928      2.937
REMARK  Name = 
REMARK  7 active torsions:
REMARK  status: ('A' for Active; 'I' for Inactive)
REMARK    1  A    between atoms: C_1  and  C_2
REMARK    2  A    between atoms: C_5  and  C_6
REMARK    3  A    between atoms: N_7  and  O_8
REMARK    4  A    between atoms: C_12  and  C_13
REMARK    5  A    between atoms: C_16  and  O_17
REMARK    6  A    between atoms: O_17  and  C_18
REMARK    7  A    between atoms: C_18  and  C_19
REMARK                            x       y       z     vdW  Elec       q    Type
REMARK                         _______ _______ _______ _____ _____    ______ ____
ROOT
ATOM      1  C   UNL     1       1.136   2.791  21.254  0.00  0.00    +0.000 C 
ATOM      2  C   UNL     1       2.369   3.340  20.608  0.00  0.00    +0.000 A 
ATOM      3  C   UNL     1       3.438   2.540  20.266  0.00  0.00    +0.000 A 
ATOM      4  C   UNL     1       4.550   3.140  19.678  0.00  0.00    +0.000 A 
ATOM      5  C   UNL     1       4.591   4.529  19.433  0.00  0.00    +0.000 A 
ATOM      6  C   UNL     1       3.461   5.263  19.799  0.00  0.00    +0.000 A 
ATOM      7  N   UNL     1       2.380   4.670  20.387  0.00  0.00    +0.000 NA
ENDROOT
BRANCH   5   8
ATOM      8  C   UNL     1       5.840   5.064  18.771  0.00  0.00    +0.000 C 
ATOM      9  N   UNL     1       6.764   5.574  19.536  0.00  0.00    +0.000 NA
ATOM     10  N   UNL     1       5.889   4.974  17.366  0.00  0.00    +0.000 N 
ATOM     11  C   UNL     1       5.863   6.219  16.580  0.00  0.00    +0.000 C 
ATOM     12  C   UNL     1       5.377   5.913  15.156  0.00  0.00    +0.000 C 
ATOM     13  C   UNL     1       6.237   4.830  14.483  0.00  0.00    +0.000 C 
ATOM     14  C   UNL     1       5.664   4.434  13.122  0.00  0.00    +0.000 C 
ATOM     15  C   UNL     1       6.357   3.601  15.397  0.00  0.00    +0.000 C 
ATOM     16  C   UNL     1       6.821   3.989  16.801  0.00  0.00    +0.000 C 
BRANCH   9  17
ATOM     17  O   UNL     1       7.860   6.042  18.798  0.00  0.00    +0.000 OA
ATOM     18  H   UNL     1       7.582   5.859  17.884  0.00  0.00    +0.000 HD
ENDBRANCH   9  17
ENDBRANCH   5   8
BRANCH   6  19
ATOM     19  O   UNL     1       3.374   6.645  19.658  0.00  0.00    +0.000 OA
BRANCH  19  20
ATOM     20  C   UNL     1       2.002   7.037  19.431  0.00  0.00    +0.000 C 
BRANCH  20  21
ATOM     21  C   UNL     1       1.518   8.318  20.076  0.00  0.00    +0.000 A 
ATOM     22  C   UNL     1       1.251   8.472  21.437  0.00  0.00    +0.000 A 
ATOM     23  C   UNL     1       0.711   9.676  21.913  0.00  0.00    +0.000 A 
ATOM     24  C   UNL     1       0.427  10.730  21.039  0.00  0.00    +0.000 A 
ATOM     25  C   UNL     1       0.688  10.587  19.681  0.00  0.00    +0.000 A 
ATOM     26  C   UNL     1       1.227   9.392  19.215  0.00  0.00    +0.000 A 
ATOM     27  F   UNL     1       1.442   9.262  17.897  0.00  0.00    +0.000 F 
ENDBRANCH  20  21
ENDBRANCH  19  20
ENDBRANCH   6  19
TORSDOF 5
ENDMDL
MODEL 6
REMARK VINA RESULT:      -7.6      2.230      5.209
REMARK  Name = 
REMARK  7 active torsions:
REMARK  status: ('A' for Active; 'I' for Inactive)
REMARK    1  A    between atoms: C_1  and  C_2
REMARK    2  A    between atoms: C_5  and  C_6
REMARK    3  A    between atoms: N_7  and  O_8
REMARK    4  A    between atoms: C_12  and  C_13
REMARK    5  A    between atoms: C_16  and  O_17
REMARK    6  A    between atoms: O_17  and  C_18
REMARK    7  A    between atoms: C_18  and  C_19
REMARK                            x       y       z     vdW  Elec       q    Type
REMARK                         _______ _______ _______ _____ _____    ______ ____
ROOT
ATOM      1  C   UNL     1       0.633   9.539  18.284  0.00  0.00    +0.000 C 
ATOM      2  C   UNL     1       1.794   8.597  18.290  0.00  0.00    +0.000 A 
ATOM      3  C   UNL     1       2.750   8.602  17.296  0.00  0.00    +0.000 A 
ATOM      4  C   UNL     1       3.791   7.680  17.377  0.00  0.00    +0.000 A 
ATOM      5  C   UNL     1       3.877   6.762  18.445  0.00  0.00    +0.000 A 
ATOM      6  C   UNL     1       2.876   6.834  19.415  0.00  0.00    +0.000 A 
ATOM      7  N   UNL     1       1.851   7.731  19.321  0.00  0.00    +0.000 NA
ENDROOT
BRANCH   5   8
ATOM      8  C   UNL     1       5.063   5.824  18.439  0.00  0.00    +0.000 C 
ATOM      9  N   UNL     1       5.631   5.552  19.580  0.00  0.00    +0.000 NA
ATOM     10  N   UNL     1       5.460   5.329  17.180  0.00  0.00    +0.000 N 
ATOM     11  C   UNL     1       6.764   5.749  16.639  0.00  0.00    +0.000 C 
ATOM     12  C   UNL     1       6.762   5.576  15.114  0.00  0.00    +0.000 C 
ATOM     13  C   UNL     1       6.413   4.135  14.707  0.00  0.00    +0.000 C 
ATOM     14  C   UNL     1       6.279   4.005  13.189  0.00  0.00    +0.000 C 
ATOM     15  C   UNL     1       5.120   3.683  15.403  0.00  0.00    +0.000 C 
ATOM     16  C   UNL     1       5.189   3.911  16.914  0.00  0.00    +0.000 C 
BRANCH   9  17
ATOM     17  O   UNL     1       6.721   4.683  19.432  0.00  0.00    +0.000 OA
ATOM     18  H   UNL     1       7.335   5.216  18.898  0.00  0.00    +0.000 HD
ENDBRANCH   9  17
ENDBRANCH   5   8
BRANCH   6  19
ATOM     19  O   UNL     1       2.806   5.965  20.501  0.00  0.00    +0.000 OA
BRANCH  19  20
ATOM     20  C   UNL     1       1.859   4.907  20.231  0.00  0.00    +0.000 C 
BRANCH  20  21
ATOM     21  C   UNL     1       2.394   3.613  19.656  0.00  0.00    +0.000 A 
ATOM     22  C   UNL     1       3.405   2.843  20.232  0.00  0.00    +0.000 A 
ATOM     23  C   UNL     1       3.893   1.711  19.561  0.00  0.00    +0.000 A 
ATOM     24  C   UNL     1       3.384   1.344  18.312  0.00  0.00    +0.000 A 
ATOM     25  C   UNL     1       2.377   2.105  17.728  0.00  0.00    +0.000 A 
ATOM     26  C   UNL     1       1.895   3.223  18.399  0.00  0.00    +0.000 A 
ATOM     27  F   UNL     1       0.945   3.962  17.806  0.00  0.00    +0.000 F 
ENDBRANCH  20  21
ENDBRANCH  19  20
ENDBRANCH   6  19
TORSDOF 5
ENDMDL
MODEL 7
REMARK VINA RESULT:      -7.2      6.240     10.370
REMARK  Name = 
REMARK  7 active torsions:
REMARK  status: ('A' for Active; 'I' for Inactive)
REMARK    1  A    between atoms: C_1  and  C_2
REMARK    2  A    between atoms: C_5  and  C_6
REMARK    3  A    between atoms: N_7  and  O_8
REMARK    4  A    between atoms: C_12  and  C_13
REMARK    5  A    between atoms: C_16  and  O_17
REMARK    6  A    between atoms: O_17  and  C_18
REMARK    7  A    between atoms: C_18  and  C_19
REMARK                            x       y       z     vdW  Elec       q    Type
REMARK                         _______ _______ _______ _____ _____    ______ ____
ROOT
ATOM      1  C   UNL     1       1.004   7.994  21.144  0.00  0.00    +0.000 C 
ATOM      2  C   UNL     1       0.364   9.254  21.636  0.00  0.00    +0.000 A 
ATOM      3  C   UNL     1      -0.241   9.337  22.872  0.00  0.00    +0.000 A 
ATOM      4  C   UNL     1      -0.821  10.548  23.242  0.00  0.00    +0.000 A 
ATOM      5  C   UNL     1      -0.795  11.667  22.385  0.00  0.00    +0.000 A 
ATOM      6  C   UNL     1      -0.152  11.501  21.157  0.00  0.00    +0.000 A 
ATOM      7  N   UNL     1       0.403  10.307  20.795  0.00  0.00    +0.000 NA
ENDROOT
BRANCH   5   8
ATOM      8  C   UNL     1      -1.438  12.934  22.902  0.00  0.00    +0.000 C 
ATOM      9  N   UNL     1      -0.663  13.948  23.165  0.00  0.00    +0.000 NA
ATOM     10  N   UNL     1      -2.838  12.900  23.067  0.00  0.00    +0.000 N 
ATOM     11  C   UNL     1      -3.387  12.976  24.431  0.00  0.00    +0.000 C 
ATOM     12  C   UNL     1      -4.805  12.386  24.443  0.00  0.00    +0.000 C 
ATOM     13  C   UNL     1      -5.718  13.082  23.420  0.00  0.00    +0.000 C 
ATOM     14  C   UNL     1      -7.083  12.399  23.341  0.00  0.00    +0.000 C 
ATOM     15  C   UNL     1      -5.047  13.109  22.038  0.00  0.00    +0.000 C 
ATOM     16  C   UNL     1      -3.632  13.684  22.113  0.00  0.00    +0.000 C 
BRANCH   9  17
ATOM     17  O   UNL     1      -1.382  15.051  23.647  0.00  0.00    +0.000 OA
ATOM     18  H   UNL     1      -1.471  15.599  22.848  0.00  0.00    +0.000 HD
ENDBRANCH   9  17
ENDBRANCH   5   8
BRANCH   6  19
ATOM     19  O   UNL     1      -0.085  12.502  20.191  0.00  0.00    +0.000 OA
BRANCH  19  20
ATOM     20  C   UNL     1      -0.254  11.934  18.873  0.00  0.00    +0.000 C 
BRANCH  20  21
ATOM     21  C   UNL     1      -1.647  11.509  18.463  0.00  0.00    +0.000 A 
ATOM     22  C   UNL     1      -2.822  12.160  18.841  0.00  0.00    +0.000 A 
ATOM     23  C   UNL     1      -4.068  11.621  18.484  0.00  0.00    +0.000 A 
ATOM     24  C   UNL     1      -4.151  10.430  17.758  0.00  0.00    +0.000 A 
ATOM     25  C   UNL     1      -2.987   9.772  17.377  0.00  0.00    +0.000 A 
ATOM     26  C   UNL     1      -1.755  10.312  17.730  0.00  0.00    +0.000 A 
ATOM     27  F   UNL     1      -0.644   9.647  17.381  0.00  0.00    +0.000 F 
ENDBRANCH  20  21
ENDBRANCH  19  20
ENDBRANCH   6  19
TORSDOF 5
ENDMDL
MODEL 8
REMARK VINA RESULT:      -7.2      2.903      5.798
REMARK  Name = 
REMARK  7 active torsions:
REMARK  status: ('A' for Active; 'I' for Inactive)
REMARK    1  A    between atoms: C_1  and  C_2
REMARK    2  A    between atoms: C_5  and  C_6
REMARK    3  A    between atoms: N_7  and  O_8
REMARK    4  A    between atoms: C_12  and  C_13
REMARK    5  A    between atoms: C_16  and  O_17
REMARK    6  A    between atoms: O_17  and  C_18
REMARK    7  A    between atoms: C_18  and  C_19
REMARK                            x       y       z     vdW  Elec       q    Type
REMARK                         _______ _______ _______ _____ _____    ______ ____
ROOT
ATOM      1  C   UNL     1       6.045   2.865  11.879  0.00  0.00    +0.000 C 
ATOM      2  C   UNL     1       6.211   3.732  13.087  0.00  0.00    +0.000 A 
ATOM      3  C   UNL     1       7.367   4.445  13.327  0.00  0.00    +0.000 A 
ATOM      4  C   UNL     1       7.436   5.218  14.483  0.00  0.00    +0.000 A 
ATOM      5  C   UNL     1       6.359   5.281  15.391  0.00  0.00    +0.000 A 
ATOM      6  C   UNL     1       5.222   4.538  15.066  0.00  0.00    +0.000 A 
ATOM      7  N   UNL     1       5.166   3.772  13.937  0.00  0.00    +0.000 NA
ENDROOT
BRANCH   5   8
ATOM      8  C   UNL     1       6.540   6.170  16.601  0.00  0.00    +0.000 C 
ATOM      9  N   UNL     1       7.624   6.890  16.671  0.00  0.00    +0.000 NA
ATOM     10  N   UNL     1       5.511   6.131  17.563  0.00  0.00    +0.000 N 
ATOM     11  C   UNL     1       5.811   5.564  18.890  0.00  0.00    +0.000 C 
ATOM     12  C   UNL     1       4.504   5.114  19.558  0.00  0.00    +0.000 C 
ATOM     13  C   UNL     1       3.485   6.263  19.644  0.00  0.00    +0.000 C 
ATOM     14  C   UNL     1       2.141   5.772  20.183  0.00  0.00    +0.000 C 
ATOM     15  C   UNL     1       3.306   6.920  18.267  0.00  0.00    +0.000 C 
ATOM     16  C   UNL     1       4.651   7.317  17.656  0.00  0.00    +0.000 C 
BRANCH   9  17
ATOM     17  O   UNL     1       7.673   7.657  17.843  0.00  0.00    +0.000 OA
ATOM     18  H   UNL     1       8.622   7.857  17.915  0.00  0.00    +0.000 HD
ENDBRANCH   9  17
ENDBRANCH   5   8
BRANCH   6  19
ATOM     19  O   UNL     1       4.099   4.468  15.886  0.00  0.00    +0.000 OA
BRANCH  19  20
ATOM     20  C   UNL     1       4.044   3.184  16.546  0.00  0.00    +0.000 C 
BRANCH  20  21
ATOM     21  C   UNL     1       2.875   2.915  17.469  0.00  0.00    +0.000 A 
ATOM     22  C   UNL     1       1.675   3.628  17.463  0.00  0.00    +0.000 A 
ATOM     23  C   UNL     1       0.696   3.358  18.431  0.00  0.00    +0.000 A 
ATOM     24  C   UNL     1       0.906   2.386  19.413  0.00  0.00    +0.000 A 
ATOM     25  C   UNL     1       2.099   1.671  19.429  0.00  0.00    +0.000 A 
ATOM     26  C   UNL     1       3.065   1.940  18.466  0.00  0.00    +0.000 A 
ATOM     27  F   UNL     1       4.221   1.262  18.517  0.00  0.00    +0.000 F 
ENDBRANCH  20  21
ENDBRANCH  19  20
ENDBRANCH   6  19
TORSDOF 5
ENDMDL
MODEL 9
REMARK VINA RESULT:      -7.0      2.804      7.190
REMARK  Name = 
REMARK  7 active torsions:
REMARK  status: ('A' for Active; 'I' for Inactive)
REMARK    1  A    between atoms: C_1  and  C_2
REMARK    2  A    between atoms: C_5  and  C_6
REMARK    3  A    between atoms: N_7  and  O_8
REMARK    4  A    between atoms: C_12  and  C_13
REMARK    5  A    between atoms: C_16  and  O_17
REMARK    6  A    between atoms: O_17  and  C_18
REMARK    7  A    between atoms: C_18  and  C_19
REMARK                            x       y       z     vdW  Elec       q    Type
REMARK                         _______ _______ _______ _____ _____    ______ ____
ROOT
ATOM      1  C   UNL     1       4.634   6.143  16.836  0.00  0.00    +0.000 C 
ATOM      2  C   UNL     1       3.662   6.837  17.737  0.00  0.00    +0.000 A 
ATOM      3  C   UNL     1       3.196   8.108  17.475  0.00  0.00    +0.000 A 
ATOM      4  C   UNL     1       2.300   8.680  18.376  0.00  0.00    +0.000 A 
ATOM      5  C   UNL     1       1.872   7.986  19.526  0.00  0.00    +0.000 A 
ATOM      6  C   UNL     1       2.382   6.699  19.708  0.00  0.00    +0.000 A 
ATOM      7  N   UNL     1       3.271   6.150  18.828  0.00  0.00    +0.000 NA
ENDROOT
BRANCH   5   8
ATOM      8  C   UNL     1       0.881   8.698  20.420  0.00  0.00    +0.000 C 
ATOM      9  N   UNL     1       0.431   8.059  21.462  0.00  0.00    +0.000 NA
ATOM     10  N   UNL     1       0.521  10.005  20.033  0.00  0.00    +0.000 N 
ATOM     11  C   UNL     1      -0.864  10.251  19.595  0.00  0.00    +0.000 C 
ATOM     12  C   UNL     1      -0.905  11.518  18.728  0.00  0.00    +0.000 C 
ATOM     13  C   UNL     1      -0.316  12.731  19.467  0.00  0.00    +0.000 C 
ATOM     14  C   UNL     1      -0.235  13.952  18.550  0.00  0.00    +0.000 C 
ATOM     15  C   UNL     1       1.071  12.388  20.031  0.00  0.00    +0.000 C 
ATOM     16  C   UNL     1       1.037  11.103  20.860  0.00  0.00    +0.000 C 
BRANCH   9  17
ATOM     17  O   UNL     1      -0.485   8.826  22.196  0.00  0.00    +0.000 OA
ATOM     18  H   UNL     1       0.100   9.453  22.657  0.00  0.00    +0.000 HD
ENDBRANCH   9  17
ENDBRANCH   5   8
BRANCH   6  19
ATOM     19  O   UNL     1       2.084   5.912  20.818  0.00  0.00    +0.000 OA
BRANCH  19  20
ATOM     20  C   UNL     1       1.338   4.743  20.413  0.00  0.00    +0.000 C 
BRANCH  20  21
ATOM     21  C   UNL     1       2.104   3.601  19.781  0.00  0.00    +0.000 A 
ATOM     22  C   UNL     1       3.154   2.914  20.391  0.00  0.00    +0.000 A 
ATOM     23  C   UNL     1       3.861   1.936  19.675  0.00  0.00    +0.000 A 
ATOM     24  C   UNL     1       3.532   1.641  18.349  0.00  0.00    +0.000 A 
ATOM     25  C   UNL     1       2.489   2.321  17.731  0.00  0.00    +0.000 A 
ATOM     26  C   UNL     1       1.790   3.287  18.446  0.00  0.00    +0.000 A 
ATOM     27  F   UNL     1       0.806   3.954  17.823  0.00  0.00    +0.000 F 
ENDBRANCH  20  21
ENDBRANCH  19  20
ENDBRANCH   6  19
TORSDOF 5
ENDMDL
