MODEL 1
REMARK VINA RESULT:      -5.7      0.000      0.000
REMARK  Name = 
REMARK  20 active torsions:
REMARK  status: ('A' for Active; 'I' for Inactive)
REMARK    1  A    between atoms: C_1  and  C_2
REMARK    2  A    between atoms: C_2  and  C_3
REMARK    3  A    between atoms: C_3  and  C_4
REMARK    4  A    between atoms: C_4  and  C_5
REMARK    5  A    between atoms: C_5  and  C_6
REMARK    6  A    between atoms: C_6  and  C_7
REMARK    7  A    between atoms: C_7  and  C_8
REMARK    8  A    between atoms: C_8  and  C_9
REMARK    9  A    between atoms: C_9  and  C_10
REMARK   10  A    between atoms: C_10  and  C_11
REMARK   11  A    between atoms: C_11  and  C_12
REMARK   12  A    between atoms: C_12  and  C_13
REMARK   13  A    between atoms: C_13  and  C_14
REMARK   14  A    between atoms: C_14  and  C_15
REMARK   15  A    between atoms: C_15  and  C_16
REMARK   16  A    between atoms: C_16  and  C_17
REMARK   17  A    between atoms: C_17  and  C_19
REMARK   18  A    between atoms: C_20  and  C_21
REMARK   19  A    between atoms: C_23  and  C_24
REMARK   20  A    between atoms: C_24  and  O_26
REMARK                            x       y       z     vdW  Elec       q    Type
REMARK                         _______ _______ _______ _____ _____    ______ ____
ROOT
ATOM      1  C   UNL     1       2.563   6.724  18.073  0.00  0.00    +0.000 C 
ENDROOT
BRANCH   1   2
ATOM      2  C   UNL     1       2.818   8.220  17.972  0.00  0.00    +0.000 C 
BRANCH   2   3
ATOM      3  C   UNL     1       1.552   8.984  17.598  0.00  0.00    +0.000 C 
BRANCH   3   4
ATOM      4  C   UNL     1       0.915   9.604  18.828  0.00  0.00    +0.000 C 
ATOM      5  O   UNL     1       1.277   9.338  19.973  0.00  0.00    +0.000 OA
BRANCH   4   6
ATOM      6  C   UNL     1      -0.185  10.563  18.613  0.00  0.00    +0.000 C 
ATOM      7  C   UNL     1      -1.252  10.224  17.873  0.00  0.00    +0.000 C 
BRANCH   7   8
ATOM      8  C   UNL     1      -2.379  11.121  17.596  0.00  0.00    +0.000 C 
ATOM      9  O   UNL     1      -3.017  11.161  16.305  0.00  0.00    +0.000 OA
ATOM     10  C   UNL     1      -3.759  10.539  17.360  0.00  0.00    +0.000 C 
BRANCH  10  11
ATOM     11  C   UNL     1      -4.955  11.277  17.786  0.00  0.00    +0.000 C 
ATOM     12  O   UNL     1      -5.250  11.403  18.968  0.00  0.00    +0.000 OA
BRANCH  11  13
ATOM     13  O   UNL     1      -5.700  11.788  16.778  0.00  0.00    +0.000 OA
ATOM     14  H   UNL     1      -6.639  11.510  16.794  0.00  0.00    +0.000 HD
ENDBRANCH  11  13
ENDBRANCH  10  11
ENDBRANCH   7   8
ENDBRANCH   4   6
ENDBRANCH   3   4
ENDBRANCH   2   3
ENDBRANCH   1   2
BRANCH   1  15
ATOM     15  C   UNL     1       2.855   6.241  19.487  0.00  0.00    +0.000 C 
BRANCH  15  16
ATOM     16  C   UNL     1       1.623   5.577  20.077  0.00  0.00    +0.000 C 
BRANCH  16  17
ATOM     17  C   UNL     1       2.028   4.613  21.177  0.00  0.00    +0.000 C 
BRANCH  17  18
ATOM     18  C   UNL     1       1.543   3.215  20.843  0.00  0.00    +0.000 C 
BRANCH  18  19
ATOM     19  C   UNL     1       2.665   2.416  20.208  0.00  0.00    +0.000 C 
BRANCH  19  20
ATOM     20  C   UNL     1       2.340   2.140  18.752  0.00  0.00    +0.000 C 
BRANCH  20  21
ATOM     21  C   UNL     1       3.604   2.229  17.917  0.00  0.00    +0.000 C 
BRANCH  21  22
ATOM     22  C   UNL     1       3.588   3.503  17.093  0.00  0.00    +0.000 C 
BRANCH  22  23
ATOM     23  C   UNL     1       5.009   3.938  16.787  0.00  0.00    +0.000 C 
BRANCH  23  24
ATOM     24  C   UNL     1       4.997   5.285  16.085  0.00  0.00    +0.000 C 
BRANCH  24  25
ATOM     25  C   UNL     1       6.048   6.196  16.694  0.00  0.00    +0.000 C 
BRANCH  25  27
ATOM     26  C   UNL     1       7.725   6.184  18.535  0.00  0.00    +0.000 C 
ATOM     27  C   UNL     1       6.313   5.804  18.140  0.00  0.00    +0.000 C 
ENDBRANCH  25  27
ENDBRANCH  24  25
ENDBRANCH  23  24
ENDBRANCH  22  23
ENDBRANCH  21  22
ENDBRANCH  20  21
ENDBRANCH  19  20
ENDBRANCH  18  19
ENDBRANCH  17  18
ENDBRANCH  16  17
ENDBRANCH  15  16
ENDBRANCH   1  15
TORSDOF 19
ENDMDL
MODEL 2
REMARK VINA RESULT:      -5.6      4.740      8.444
REMARK  Name = 
REMARK  20 active torsions:
REMARK  status: ('A' for Active; 'I' for Inactive)
REMARK    1  A    between atoms: C_1  and  C_2
REMARK    2  A    between atoms: C_2  and  C_3
REMARK    3  A    between atoms: C_3  and  C_4
REMARK    4  A    between atoms: C_4  and  C_5
REMARK    5  A    between atoms: C_5  and  C_6
REMARK    6  A    between atoms: C_6  and  C_7
REMARK    7  A    between atoms: C_7  and  C_8
REMARK    8  A    between atoms: C_8  and  C_9
REMARK    9  A    between atoms: C_9  and  C_10
REMARK   10  A    between atoms: C_10  and  C_11
REMARK   11  A    between atoms: C_11  and  C_12
REMARK   12  A    between atoms: C_12  and  C_13
REMARK   13  A    between atoms: C_13  and  C_14
REMARK   14  A    between atoms: C_14  and  C_15
REMARK   15  A    between atoms: C_15  and  C_16
REMARK   16  A    between atoms: C_16  and  C_17
REMARK   17  A    between atoms: C_17  and  C_19
REMARK   18  A    between atoms: C_20  and  C_21
REMARK   19  A    between atoms: C_23  and  C_24
REMARK   20  A    between atoms: C_24  and  O_26
REMARK                            x       y       z     vdW  Elec       q    Type
REMARK                         _______ _______ _______ _____ _____    ______ ____
ROOT
ATOM      1  C   UNL     1       6.230   5.315  19.056  0.00  0.00    +0.000 C 
ENDROOT
BRANCH   1   2
ATOM      2  C   UNL     1       7.323   4.952  18.064  0.00  0.00    +0.000 C 
BRANCH   2   3
ATOM      3  C   UNL     1       7.288   5.849  16.832  0.00  0.00    +0.000 C 
BRANCH   3   4
ATOM      4  C   UNL     1       7.177   7.309  17.231  0.00  0.00    +0.000 C 
ATOM      5  O   UNL     1       6.184   7.993  16.989  0.00  0.00    +0.000 OA
BRANCH   4   6
ATOM      6  C   UNL     1       8.323   7.910  17.939  0.00  0.00    +0.000 C 
ATOM      7  C   UNL     1       8.260   9.171  18.392  0.00  0.00    +0.000 C 
BRANCH   7   8
ATOM      8  C   UNL     1       9.358   9.850  19.090  0.00  0.00    +0.000 C 
ATOM      9  O   UNL     1      10.072  10.950  18.493  0.00  0.00    +0.000 OA
ATOM     10  C   UNL     1       9.176  11.280  19.561  0.00  0.00    +0.000 C 
BRANCH  10  11
ATOM     11  C   UNL     1       9.833  11.742  20.791  0.00  0.00    +0.000 C 
ATOM     12  O   UNL     1      10.780  12.518  20.765  0.00  0.00    +0.000 OA
BRANCH  11  13
ATOM     13  O   UNL     1       9.320  11.237  21.937  0.00  0.00    +0.000 OA
ATOM     14  H   UNL     1       9.482  10.279  22.059  0.00  0.00    +0.000 HD
ENDBRANCH  11  13
ENDBRANCH  10  11
ENDBRANCH   7   8
ENDBRANCH   4   6
ENDBRANCH   3   4
ENDBRANCH   2   3
ENDBRANCH   1   2
BRANCH   1  15
ATOM     15  C   UNL     1       5.269   4.147  19.224  0.00  0.00    +0.000 C 
BRANCH  15  16
ATOM     16  C   UNL     1       4.512   3.903  17.930  0.00  0.00    +0.000 C 
BRANCH  16  17
ATOM     17  C   UNL     1       3.673   2.644  18.048  0.00  0.00    +0.000 C 
BRANCH  17  18
ATOM     18  C   UNL     1       2.298   2.881  17.450  0.00  0.00    +0.000 C 
BRANCH  18  19
ATOM     19  C   UNL     1       1.231   2.675  18.509  0.00  0.00    +0.000 C 
BRANCH  19  20
ATOM     20  C   UNL     1       1.858   2.107  19.768  0.00  0.00    +0.000 C 
BRANCH  20  21
ATOM     21  C   UNL     1       1.509   2.982  20.957  0.00  0.00    +0.000 C 
BRANCH  21  22
ATOM     22  C   UNL     1       0.993   4.325  20.474  0.00  0.00    +0.000 C 
BRANCH  22  23
ATOM     23  C   UNL     1       2.039   5.397  20.713  0.00  0.00    +0.000 C 
BRANCH  23  24
ATOM     24  C   UNL     1       2.223   6.229  19.456  0.00  0.00    +0.000 C 
BRANCH  24  25
ATOM     25  C   UNL     1       1.997   7.699  19.769  0.00  0.00    +0.000 C 
BRANCH  25  27
ATOM     26  C   UNL     1       0.243   9.030  20.930  0.00  0.00    +0.000 C 
ATOM     27  C   UNL     1       1.183   7.848  21.045  0.00  0.00    +0.000 C 
ENDBRANCH  25  27
ENDBRANCH  24  25
ENDBRANCH  23  24
ENDBRANCH  22  23
ENDBRANCH  21  22
ENDBRANCH  20  21
ENDBRANCH  19  20
ENDBRANCH  18  19
ENDBRANCH  17  18
ENDBRANCH  16  17
ENDBRANCH  15  16
ENDBRANCH   1  15
TORSDOF 19
ENDMDL
MODEL 3
REMARK VINA RESULT:      -5.5      5.408      8.427
REMARK  Name = 
REMARK  20 active torsions:
REMARK  status: ('A' for Active; 'I' for Inactive)
REMARK    1  A    between atoms: C_1  and  C_2
REMARK    2  A    between atoms: C_2  and  C_3
REMARK    3  A    between atoms: C_3  and  C_4
REMARK    4  A    between atoms: C_4  and  C_5
REMARK    5  A    between atoms: C_5  and  C_6
REMARK    6  A    between atoms: C_6  and  C_7
REMARK    7  A    between atoms: C_7  and  C_8
REMARK    8  A    between atoms: C_8  and  C_9
REMARK    9  A    between atoms: C_9  and  C_10
REMARK   10  A    between atoms: C_10  and  C_11
REMARK   11  A    between atoms: C_11  and  C_12
REMARK   12  A    between atoms: C_12  and  C_13
REMARK   13  A    between atoms: C_13  and  C_14
REMARK   14  A    between atoms: C_14  and  C_15
REMARK   15  A    between atoms: C_15  and  C_16
REMARK   16  A    between atoms: C_16  and  C_17
REMARK   17  A    between atoms: C_17  and  C_19
REMARK   18  A    between atoms: C_20  and  C_21
REMARK   19  A    between atoms: C_23  and  C_24
REMARK   20  A    between atoms: C_24  and  O_26
REMARK                            x       y       z     vdW  Elec       q    Type
REMARK                         _______ _______ _______ _____ _____    ______ ____
ROOT
ATOM      1  C   UNL     1       5.948   4.225  19.548  0.00  0.00    +0.000 C 
ENDROOT
BRANCH   1   2
ATOM      2  C   UNL     1       6.648   5.547  19.279  0.00  0.00    +0.000 C 
BRANCH   2   3
ATOM      3  C   UNL     1       7.778   5.391  18.267  0.00  0.00    +0.000 C 
BRANCH   3   4
ATOM      4  C   UNL     1       7.298   5.727  16.867  0.00  0.00    +0.000 C 
ATOM      5  O   UNL     1       7.125   6.882  16.480  0.00  0.00    +0.000 OA
BRANCH   4   6
ATOM      6  C   UNL     1       7.034   4.602  15.951  0.00  0.00    +0.000 C 
ATOM      7  C   UNL     1       6.166   4.737  14.937  0.00  0.00    +0.000 C 
BRANCH   7   8
ATOM      8  C   UNL     1       5.832   3.666  13.991  0.00  0.00    +0.000 C 
ATOM      9  O   UNL     1       4.919   3.876  12.897  0.00  0.00    +0.000 OA
ATOM     10  C   UNL     1       6.304   3.762  12.554  0.00  0.00    +0.000 C 
BRANCH  10  11
ATOM     11  C   UNL     1       6.652   2.546  11.807  0.00  0.00    +0.000 C 
ATOM     12  O   UNL     1       7.729   2.423  11.238  0.00  0.00    +0.000 OA
BRANCH  11  13
ATOM     13  O   UNL     1       5.691   1.592  11.790  0.00  0.00    +0.000 OA
ATOM     14  H   UNL     1       6.014   0.695  12.015  0.00  0.00    +0.000 HD
ENDBRANCH  11  13
ENDBRANCH  10  11
ENDBRANCH   7   8
ENDBRANCH   4   6
ENDBRANCH   3   4
ENDBRANCH   2   3
ENDBRANCH   1   2
BRANCH   1  15
ATOM     15  C   UNL     1       4.510   4.286  19.053  0.00  0.00    +0.000 C 
BRANCH  15  16
ATOM     16  C   UNL     1       4.281   3.234  17.981  0.00  0.00    +0.000 C 
BRANCH  16  17
ATOM     17  C   UNL     1       2.933   3.453  17.317  0.00  0.00    +0.000 C 
BRANCH  17  18
ATOM     18  C   UNL     1       1.970   2.356  17.729  0.00  0.00    +0.000 C 
BRANCH  18  19
ATOM     19  C   UNL     1       1.039   2.865  18.813  0.00  0.00    +0.000 C 
BRANCH  19  20
ATOM     20  C   UNL     1       1.503   2.366  20.167  0.00  0.00    +0.000 C 
BRANCH  20  21
ATOM     21  C   UNL     1       1.530   3.515  21.158  0.00  0.00    +0.000 C 
BRANCH  21  22
ATOM     22  C   UNL     1       1.221   4.818  20.444  0.00  0.00    +0.000 C 
BRANCH  22  23
ATOM     23  C   UNL     1       2.299   5.841  20.747  0.00  0.00    +0.000 C 
BRANCH  23  24
ATOM     24  C   UNL     1       1.940   7.173  20.112  0.00  0.00    +0.000 C 
BRANCH  24  25
ATOM     25  C   UNL     1       1.963   7.050  18.598  0.00  0.00    +0.000 C 
BRANCH  25  27
ATOM     26  C   UNL     1       3.874   6.914  17.007  0.00  0.00    +0.000 C 
ATOM     27  C   UNL     1       3.167   7.783  18.027  0.00  0.00    +0.000 C 
ENDBRANCH  25  27
ENDBRANCH  24  25
ENDBRANCH  23  24
ENDBRANCH  22  23
ENDBRANCH  21  22
ENDBRANCH  20  21
ENDBRANCH  19  20
ENDBRANCH  18  19
ENDBRANCH  17  18
ENDBRANCH  16  17
ENDBRANCH  15  16
ENDBRANCH   1  15
TORSDOF 19
ENDMDL
MODEL 4
REMARK VINA RESULT:      -5.4      5.001      9.422
REMARK  Name = 
REMARK  20 active torsions:
REMARK  status: ('A' for Active; 'I' for Inactive)
REMARK    1  A    between atoms: C_1  and  C_2
REMARK    2  A    between atoms: C_2  and  C_3
REMARK    3  A    between atoms: C_3  and  C_4
REMARK    4  A    between atoms: C_4  and  C_5
REMARK    5  A    between atoms: C_5  and  C_6
REMARK    6  A    between atoms: C_6  and  C_7
REMARK    7  A    between atoms: C_7  and  C_8
REMARK    8  A    between atoms: C_8  and  C_9
REMARK    9  A    between atoms: C_9  and  C_10
REMARK   10  A    between atoms: C_10  and  C_11
REMARK   11  A    between atoms: C_11  and  C_12
REMARK   12  A    between atoms: C_12  and  C_13
REMARK   13  A    between atoms: C_13  and  C_14
REMARK   14  A    between atoms: C_14  and  C_15
REMARK   15  A    between atoms: C_15  and  C_16
REMARK   16  A    between atoms: C_16  and  C_17
REMARK   17  A    between atoms: C_17  and  C_19
REMARK   18  A    between atoms: C_20  and  C_21
REMARK   19  A    between atoms: C_23  and  C_24
REMARK   20  A    between atoms: C_24  and  O_26
REMARK                            x       y       z     vdW  Elec       q    Type
REMARK                         _______ _______ _______ _____ _____    ______ ____
ROOT
ATOM      1  C   UNL     1       1.277   4.199  18.706  0.00  0.00    +0.000 C 
ENDROOT
BRANCH   1   2
ATOM      2  C   UNL     1       1.979   2.962  18.170  0.00  0.00    +0.000 C 
BRANCH   2   3
ATOM      3  C   UNL     1       2.714   2.208  19.273  0.00  0.00    +0.000 C 
BRANCH   3   4
ATOM      4  C   UNL     1       4.195   2.541  19.259  0.00  0.00    +0.000 C 
ATOM      5  O   UNL     1       4.947   2.275  20.196  0.00  0.00    +0.000 OA
BRANCH   4   6
ATOM      6  C   UNL     1       4.729   3.215  18.061  0.00  0.00    +0.000 C 
ATOM      7  C   UNL     1       5.623   4.209  18.179  0.00  0.00    +0.000 C 
BRANCH   7   8
ATOM      8  C   UNL     1       6.191   4.942  17.042  0.00  0.00    +0.000 C 
ATOM      9  O   UNL     1       7.614   5.102  16.877  0.00  0.00    +0.000 OA
ATOM     10  C   UNL     1       6.969   4.191  15.980  0.00  0.00    +0.000 C 
BRANCH  10  11
ATOM     11  C   UNL     1       6.928   4.636  14.580  0.00  0.00    +0.000 C 
ATOM     12  O   UNL     1       6.149   4.149  13.770  0.00  0.00    +0.000 OA
BRANCH  11  13
ATOM     13  O   UNL     1       7.817   5.606  14.263  0.00  0.00    +0.000 OA
ATOM     14  H   UNL     1       7.434   6.507  14.237  0.00  0.00    +0.000 HD
ENDBRANCH  11  13
ENDBRANCH  10  11
ENDBRANCH   7   8
ENDBRANCH   4   6
ENDBRANCH   3   4
ENDBRANCH   2   3
ENDBRANCH   1   2
BRANCH   1  15
ATOM     15  C   UNL     1       1.965   5.454  18.190  0.00  0.00    +0.000 C 
BRANCH  15  16
ATOM     16  C   UNL     1       2.752   6.116  19.308  0.00  0.00    +0.000 C 
BRANCH  16  17
ATOM     17  C   UNL     1       2.248   7.531  19.532  0.00  0.00    +0.000 C 
BRANCH  17  18
ATOM     18  C   UNL     1       1.460   7.600  20.826  0.00  0.00    +0.000 C 
BRANCH  18  19
ATOM     19  C   UNL     1       0.842   8.976  20.983  0.00  0.00    +0.000 C 
BRANCH  19  20
ATOM     20  C   UNL     1       0.723   9.645  19.626  0.00  0.00    +0.000 C 
BRANCH  20  21
ATOM     21  C   UNL     1       0.704  11.152  19.795  0.00  0.00    +0.000 C 
BRANCH  21  22
ATOM     22  C   UNL     1      -0.320  11.763  18.857  0.00  0.00    +0.000 C 
BRANCH  22  23
ATOM     23  C   UNL     1      -1.191  10.673  18.262  0.00  0.00    +0.000 C 
BRANCH  23  24
ATOM     24  C   UNL     1      -2.602  11.195  18.054  0.00  0.00    +0.000 C 
BRANCH  24  25
ATOM     25  C   UNL     1      -3.445  10.146  17.349  0.00  0.00    +0.000 C 
BRANCH  25  27
ATOM     26  C   UNL     1      -2.861  10.292  14.933  0.00  0.00    +0.000 C 
ATOM     27  C   UNL     1      -3.888  10.654  15.986  0.00  0.00    +0.000 C 
ENDBRANCH  25  27
ENDBRANCH  24  25
ENDBRANCH  23  24
ENDBRANCH  22  23
ENDBRANCH  21  22
ENDBRANCH  20  21
ENDBRANCH  19  20
ENDBRANCH  18  19
ENDBRANCH  17  18
ENDBRANCH  16  17
ENDBRANCH  15  16
ENDBRANCH   1  15
TORSDOF 19
ENDMDL
MODEL 5
REMARK VINA RESULT:      -5.3      2.032      4.758
REMARK  Name = 
REMARK  20 active torsions:
REMARK  status: ('A' for Active; 'I' for Inactive)
REMARK    1  A    between atoms: C_1  and  C_2
REMARK    2  A    between atoms: C_2  and  C_3
REMARK    3  A    between atoms: C_3  and  C_4
REMARK    4  A    between atoms: C_4  and  C_5
REMARK    5  A    between atoms: C_5  and  C_6
REMARK    6  A    between atoms: C_6  and  C_7
REMARK    7  A    between atoms: C_7  and  C_8
REMARK    8  A    between atoms: C_8  and  C_9
REMARK    9  A    between atoms: C_9  and  C_10
REMARK   10  A    between atoms: C_10  and  C_11
REMARK   11  A    between atoms: C_11  and  C_12
REMARK   12  A    between atoms: C_12  and  C_13
REMARK   13  A    between atoms: C_13  and  C_14
REMARK   14  A    between atoms: C_14  and  C_15
REMARK   15  A    between atoms: C_15  and  C_16
REMARK   16  A    between atoms: C_16  and  C_17
REMARK   17  A    between atoms: C_17  and  C_19
REMARK   18  A    between atoms: C_20  and  C_21
REMARK   19  A    between atoms: C_23  and  C_24
REMARK   20  A    between atoms: C_24  and  O_26
REMARK                            x       y       z     vdW  Elec       q    Type
REMARK                         _______ _______ _______ _____ _____    ______ ____
ROOT
ATOM      1  C   UNL     1       5.409   5.190  19.458  0.00  0.00    +0.000 C 
ENDROOT
BRANCH   1   2
ATOM      2  C   UNL     1       4.090   5.944  19.506  0.00  0.00    +0.000 C 
BRANCH   2   3
ATOM      3  C   UNL     1       3.434   6.023  18.132  0.00  0.00    +0.000 C 
BRANCH   3   4
ATOM      4  C   UNL     1       3.150   7.465  17.752  0.00  0.00    +0.000 C 
ATOM      5  O   UNL     1       3.742   8.044  16.842  0.00  0.00    +0.000 OA
BRANCH   4   6
ATOM      6  C   UNL     1       2.117   8.180  18.524  0.00  0.00    +0.000 C 
ATOM      7  C   UNL     1       1.471   9.229  17.992  0.00  0.00    +0.000 C 
BRANCH   7   8
ATOM      8  C   UNL     1       0.444  10.005  18.695  0.00  0.00    +0.000 C 
ATOM      9  O   UNL     1       0.754  10.794  19.860  0.00  0.00    +0.000 OA
ATOM     10  C   UNL     1       0.492  11.520  18.654  0.00  0.00    +0.000 C 
BRANCH  10  11
ATOM     11  C   UNL     1      -0.754  12.299  18.666  0.00  0.00    +0.000 C 
ATOM     12  O   UNL     1      -1.457  12.378  19.666  0.00  0.00    +0.000 OA
BRANCH  11  13
ATOM     13  O   UNL     1      -1.061  12.904  17.495  0.00  0.00    +0.000 OA
ATOM     14  H   UNL     1      -0.352  12.854  16.821  0.00  0.00    +0.000 HD
ENDBRANCH  11  13
ENDBRANCH  10  11
ENDBRANCH   7   8
ENDBRANCH   4   6
ENDBRANCH   3   4
ENDBRANCH   2   3
ENDBRANCH   1   2
BRANCH   1  15
ATOM     15  C   UNL     1       6.386   5.909  18.539  0.00  0.00    +0.000 C 
BRANCH  15  16
ATOM     16  C   UNL     1       7.551   4.996  18.197  0.00  0.00    +0.000 C 
BRANCH  16  17
ATOM     17  C   UNL     1       7.476   4.581  16.739  0.00  0.00    +0.000 C 
BRANCH  17  18
ATOM     18  C   UNL     1       6.609   5.558  15.967  0.00  0.00    +0.000 C 
BRANCH  18  19
ATOM     19  C   UNL     1       5.561   4.803  15.171  0.00  0.00    +0.000 C 
BRANCH  19  20
ATOM     20  C   UNL     1       5.254   3.481  15.848  0.00  0.00    +0.000 C 
BRANCH  20  21
ATOM     21  C   UNL     1       3.884   3.542  16.497  0.00  0.00    +0.000 C 
BRANCH  21  22
ATOM     22  C   UNL     1       3.801   2.528  17.623  0.00  0.00    +0.000 C 
BRANCH  22  23
ATOM     23  C   UNL     1       2.391   1.977  17.720  0.00  0.00    +0.000 C 
BRANCH  23  24
ATOM     24  C   UNL     1       1.610   2.741  18.775  0.00  0.00    +0.000 C 
BRANCH  24  25
ATOM     25  C   UNL     1       2.029   2.283  20.162  0.00  0.00    +0.000 C 
BRANCH  25  27
ATOM     26  C   UNL     1       1.010   4.525  20.533  0.00  0.00    +0.000 C 
ATOM     27  C   UNL     1       1.598   3.302  21.206  0.00  0.00    +0.000 C 
ENDBRANCH  25  27
ENDBRANCH  24  25
ENDBRANCH  23  24
ENDBRANCH  22  23
ENDBRANCH  21  22
ENDBRANCH  20  21
ENDBRANCH  19  20
ENDBRANCH  18  19
ENDBRANCH  17  18
ENDBRANCH  16  17
ENDBRANCH  15  16
ENDBRANCH   1  15
TORSDOF 19
ENDMDL
MODEL 6
REMARK VINA RESULT:      -5.3      5.777      9.892
REMARK  Name = 
REMARK  20 active torsions:
REMARK  status: ('A' for Active; 'I' for Inactive)
REMARK    1  A    between atoms: C_1  and  C_2
REMARK    2  A    between atoms: C_2  and  C_3
REMARK    3  A    between atoms: C_3  and  C_4
REMARK    4  A    between atoms: C_4  and  C_5
REMARK    5  A    between atoms: C_5  and  C_6
REMARK    6  A    between atoms: C_6  and  C_7
REMARK    7  A    between atoms: C_7  and  C_8
REMARK    8  A    between atoms: C_8  and  C_9
REMARK    9  A    between atoms: C_9  and  C_10
REMARK   10  A    between atoms: C_10  and  C_11
REMARK   11  A    between atoms: C_11  and  C_12
REMARK   12  A    between atoms: C_12  and  C_13
REMARK   13  A    between atoms: C_13  and  C_14
REMARK   14  A    between atoms: C_14  and  C_15
REMARK   15  A    between atoms: C_15  and  C_16
REMARK   16  A    between atoms: C_16  and  C_17
REMARK   17  A    between atoms: C_17  and  C_19
REMARK   18  A    between atoms: C_20  and  C_21
REMARK   19  A    between atoms: C_23  and  C_24
REMARK   20  A    between atoms: C_24  and  O_26
REMARK                            x       y       z     vdW  Elec       q    Type
REMARK                         _______ _______ _______ _____ _____    ______ ____
ROOT
ATOM      1  C   UNL     1       8.312   7.741  18.652  0.00  0.00    +0.000 C 
ENDROOT
BRANCH   1   2
ATOM      2  C   UNL     1       7.693   6.431  18.192  0.00  0.00    +0.000 C 
BRANCH   2   3
ATOM      3  C   UNL     1       6.756   6.636  17.006  0.00  0.00    +0.000 C 
BRANCH   3   4
ATOM      4  C   UNL     1       6.845   5.468  16.040  0.00  0.00    +0.000 C 
ATOM      5  O   UNL     1       7.650   5.432  15.110  0.00  0.00    +0.000 OA
BRANCH   4   6
ATOM      6  C   UNL     1       5.916   4.342  16.248  0.00  0.00    +0.000 C 
ATOM      7  C   UNL     1       4.786   4.510  16.952  0.00  0.00    +0.000 C 
BRANCH   7   8
ATOM      8  C   UNL     1       3.818   3.441  17.219  0.00  0.00    +0.000 C 
ATOM      9  O   UNL     1       4.006   2.496  18.291  0.00  0.00    +0.000 OA
ATOM     10  C   UNL     1       2.987   3.483  18.487  0.00  0.00    +0.000 C 
BRANCH  10  11
ATOM     11  C   UNL     1       1.616   2.956  18.490  0.00  0.00    +0.000 C 
ATOM     12  O   UNL     1       1.316   1.938  19.102  0.00  0.00    +0.000 OA
BRANCH  11  13
ATOM     13  O   UNL     1       0.727   3.670  17.760  0.00  0.00    +0.000 OA
ATOM     14  H   UNL     1       0.643   4.606  18.037  0.00  0.00    +0.000 HD
ENDBRANCH  11  13
ENDBRANCH  10  11
ENDBRANCH   7   8
ENDBRANCH   4   6
ENDBRANCH   3   4
ENDBRANCH   2   3
ENDBRANCH   1   2
BRANCH   1  15
ATOM     15  C   UNL     1       8.025   8.838  17.637  0.00  0.00    +0.000 C 
BRANCH  15  16
ATOM     16  C   UNL     1       8.225  10.203  18.273  0.00  0.00    +0.000 C 
BRANCH  16  17
ATOM     17  C   UNL     1       9.659  10.350  18.749  0.00  0.00    +0.000 C 
BRANCH  17  18
ATOM     18  C   UNL     1      10.379  11.388  17.908  0.00  0.00    +0.000 C 
BRANCH  18  19
ATOM     19  C   UNL     1       9.488  12.600  17.710  0.00  0.00    +0.000 C 
BRANCH  19  20
ATOM     20  C   UNL     1      10.249  13.863  18.067  0.00  0.00    +0.000 C 
BRANCH  20  21
ATOM     21  C   UNL     1       9.951  14.255  19.502  0.00  0.00    +0.000 C 
BRANCH  21  22
ATOM     22  C   UNL     1       8.496  13.968  19.822  0.00  0.00    +0.000 C 
BRANCH  22  23
ATOM     23  C   UNL     1       8.329  13.752  21.315  0.00  0.00    +0.000 C 
BRANCH  23  24
ATOM     24  C   UNL     1       9.160  12.562  21.761  0.00  0.00    +0.000 C 
BRANCH  24  25
ATOM     25  C   UNL     1       8.347  11.682  22.695  0.00  0.00    +0.000 C 
BRANCH  25  27
ATOM     26  C   UNL     1       6.211  11.779  23.971  0.00  0.00    +0.000 C 
ATOM     27  C   UNL     1       7.466  12.538  23.593  0.00  0.00    +0.000 C 
ENDBRANCH  25  27
ENDBRANCH  24  25
ENDBRANCH  23  24
ENDBRANCH  22  23
ENDBRANCH  21  22
ENDBRANCH  20  21
ENDBRANCH  19  20
ENDBRANCH  18  19
ENDBRANCH  17  18
ENDBRANCH  16  17
ENDBRANCH  15  16
ENDBRANCH   1  15
TORSDOF 19
ENDMDL
MODEL 7
REMARK VINA RESULT:      -5.3      4.350      9.755
REMARK  Name = 
REMARK  20 active torsions:
REMARK  status: ('A' for Active; 'I' for Inactive)
REMARK    1  A    between atoms: C_1  and  C_2
REMARK    2  A    between atoms: C_2  and  C_3
REMARK    3  A    between atoms: C_3  and  C_4
REMARK    4  A    between atoms: C_4  and  C_5
REMARK    5  A    between atoms: C_5  and  C_6
REMARK    6  A    between atoms: C_6  and  C_7
REMARK    7  A    between atoms: C_7  and  C_8
REMARK    8  A    between atoms: C_8  and  C_9
REMARK    9  A    between atoms: C_9  and  C_10
REMARK   10  A    between atoms: C_10  and  C_11
REMARK   11  A    between atoms: C_11  and  C_12
REMARK   12  A    between atoms: C_12  and  C_13
REMARK   13  A    between atoms: C_13  and  C_14
REMARK   14  A    between atoms: C_14  and  C_15
REMARK   15  A    between atoms: C_15  and  C_16
REMARK   16  A    between atoms: C_16  and  C_17
REMARK   17  A    between atoms: C_17  and  C_19
REMARK   18  A    between atoms: C_20  and  C_21
REMARK   19  A    between atoms: C_23  and  C_24
REMARK   20  A    between atoms: C_24  and  O_26
REMARK                            x       y       z     vdW  Elec       q    Type
REMARK                         _______ _______ _______ _____ _____    ______ ____
ROOT
ATOM      1  C   UNL     1       2.333   6.438  19.737  0.00  0.00    +0.000 C 
ENDROOT
BRANCH   1   2
ATOM      2  C   UNL     1       2.513   5.041  20.309  0.00  0.00    +0.000 C 
BRANCH   2   3
ATOM      3  C   UNL     1       1.421   4.090  19.830  0.00  0.00    +0.000 C 
BRANCH   3   4
ATOM      4  C   UNL     1       2.025   2.829  19.240  0.00  0.00    +0.000 C 
ATOM      5  O   UNL     1       1.441   1.747  19.240  0.00  0.00    +0.000 OA
BRANCH   4   6
ATOM      6  C   UNL     1       3.372   2.933  18.650  0.00  0.00    +0.000 C 
ATOM      7  C   UNL     1       3.531   3.327  17.377  0.00  0.00    +0.000 C 
BRANCH   7   8
ATOM      8  C   UNL     1       4.831   3.441  16.708  0.00  0.00    +0.000 C 
ATOM      9  O   UNL     1       5.075   4.428  15.686  0.00  0.00    +0.000 OA
ATOM     10  C   UNL     1       5.697   4.661  16.955  0.00  0.00    +0.000 C 
BRANCH  10  11
ATOM     11  C   UNL     1       7.161   4.542  16.951  0.00  0.00    +0.000 C 
ATOM     12  O   UNL     1       7.816   4.648  15.921  0.00  0.00    +0.000 OA
BRANCH  11  13
ATOM     13  O   UNL     1       7.717   4.296  18.160  0.00  0.00    +0.000 OA
ATOM     14  H   UNL     1       8.692   4.198  18.140  0.00  0.00    +0.000 HD
ENDBRANCH  11  13
ENDBRANCH  10  11
ENDBRANCH   7   8
ENDBRANCH   4   6
ENDBRANCH   3   4
ENDBRANCH   2   3
ENDBRANCH   1   2
BRANCH   1  15
ATOM     15  C   UNL     1       2.782   6.468  18.283  0.00  0.00    +0.000 C 
BRANCH  15  16
ATOM     16  C   UNL     1       2.971   7.903  17.823  0.00  0.00    +0.000 C 
BRANCH  16  17
ATOM     17  C   UNL     1       1.882   8.784  18.408  0.00  0.00    +0.000 C 
BRANCH  17  18
ATOM     18  C   UNL     1       2.038  10.205  17.899  0.00  0.00    +0.000 C 
BRANCH  18  19
ATOM     19  C   UNL     1       1.259  11.160  18.783  0.00  0.00    +0.000 C 
BRANCH  19  20
ATOM     20  C   UNL     1       0.503  10.381  19.842  0.00  0.00    +0.000 C 
BRANCH  20  21
ATOM     21  C   UNL     1      -0.975  10.715  19.770  0.00  0.00    +0.000 C 
BRANCH  21  22
ATOM     22  C   UNL     1      -1.513  10.378  18.392  0.00  0.00    +0.000 C 
BRANCH  22  23
ATOM     23  C   UNL     1      -2.151  11.606  17.771  0.00  0.00    +0.000 C 
BRANCH  23  24
ATOM     24  C   UNL     1      -3.351  11.198  16.934  0.00  0.00    +0.000 C 
BRANCH  24  25
ATOM     25  C   UNL     1      -4.432  10.614  17.828  0.00  0.00    +0.000 C 
BRANCH  25  27
ATOM     26  C   UNL     1      -6.636  11.175  18.839  0.00  0.00    +0.000 C 
ATOM     27  C   UNL     1      -5.740  11.365  17.633  0.00  0.00    +0.000 C 
ENDBRANCH  25  27
ENDBRANCH  24  25
ENDBRANCH  23  24
ENDBRANCH  22  23
ENDBRANCH  21  22
ENDBRANCH  20  21
ENDBRANCH  19  20
ENDBRANCH  18  19
ENDBRANCH  17  18
ENDBRANCH  16  17
ENDBRANCH  15  16
ENDBRANCH   1  15
TORSDOF 19
ENDMDL
MODEL 8
REMARK VINA RESULT:      -5.3      5.592      8.214
REMARK  Name = 
REMARK  20 active torsions:
REMARK  status: ('A' for Active; 'I' for Inactive)
REMARK    1  A    between atoms: C_1  and  C_2
REMARK    2  A    between atoms: C_2  and  C_3
REMARK    3  A    between atoms: C_3  and  C_4
REMARK    4  A    between atoms: C_4  and  C_5
REMARK    5  A    between atoms: C_5  and  C_6
REMARK    6  A    between atoms: C_6  and  C_7
REMARK    7  A    between atoms: C_7  and  C_8
REMARK    8  A    between atoms: C_8  and  C_9
REMARK    9  A    between atoms: C_9  and  C_10
REMARK   10  A    between atoms: C_10  and  C_11
REMARK   11  A    between atoms: C_11  and  C_12
REMARK   12  A    between atoms: C_12  and  C_13
REMARK   13  A    between atoms: C_13  and  C_14
REMARK   14  A    between atoms: C_14  and  C_15
REMARK   15  A    between atoms: C_15  and  C_16
REMARK   16  A    between atoms: C_16  and  C_17
REMARK   17  A    between atoms: C_17  and  C_19
REMARK   18  A    between atoms: C_20  and  C_21
REMARK   19  A    between atoms: C_23  and  C_24
REMARK   20  A    between atoms: C_24  and  O_26
REMARK                            x       y       z     vdW  Elec       q    Type
REMARK                         _______ _______ _______ _____ _____    ______ ____
ROOT
ATOM      1  C   UNL     1       3.406   7.957  17.262  0.00  0.00    +0.000 C 
ENDROOT
BRANCH   1   2
ATOM      2  C   UNL     1       4.676   7.122  17.240  0.00  0.00    +0.000 C 
BRANCH   2   3
ATOM      3  C   UNL     1       5.037   6.682  15.825  0.00  0.00    +0.000 C 
BRANCH   3   4
ATOM      4  C   UNL     1       6.307   5.851  15.827  0.00  0.00    +0.000 C 
ATOM      5  O   UNL     1       7.322   6.185  16.437  0.00  0.00    +0.000 OA
BRANCH   4   6
ATOM      6  C   UNL     1       6.298   4.594  15.055  0.00  0.00    +0.000 C 
ATOM      7  C   UNL     1       5.536   4.472  13.958  0.00  0.00    +0.000 C 
BRANCH   7   8
ATOM      8  C   UNL     1       5.456   3.255  13.144  0.00  0.00    +0.000 C 
ATOM      9  O   UNL     1       4.767   3.232  11.878  0.00  0.00    +0.000 OA
ATOM     10  C   UNL     1       6.197   3.186  11.823  0.00  0.00    +0.000 C 
BRANCH  10  11
ATOM     11  C   UNL     1       6.751   1.910  11.352  0.00  0.00    +0.000 C 
ATOM     12  O   UNL     1       7.911   1.810  10.971  0.00  0.00    +0.000 OA
BRANCH  11  13
ATOM     13  O   UNL     1       5.883   0.872  11.361  0.00  0.00    +0.000 OA
ATOM     14  H   UNL     1       4.943   1.135  11.274  0.00  0.00    +0.000 HD
ENDBRANCH  11  13
ENDBRANCH  10  11
ENDBRANCH   7   8
ENDBRANCH   4   6
ENDBRANCH   3   4
ENDBRANCH   2   3
ENDBRANCH   1   2
BRANCH   1  15
ATOM     15  C   UNL     1       2.772   7.905  18.645  0.00  0.00    +0.000 C 
BRANCH  15  16
ATOM     16  C   UNL     1       2.106   6.558  18.865  0.00  0.00    +0.000 C 
BRANCH  16  17
ATOM     17  C   UNL     1       2.013   6.259  20.350  0.00  0.00    +0.000 C 
BRANCH  17  18
ATOM     18  C   UNL     1       1.247   4.968  20.570  0.00  0.00    +0.000 C 
BRANCH  18  19
ATOM     19  C   UNL     1       2.095   3.993  21.366  0.00  0.00    +0.000 C 
BRANCH  19  20
ATOM     20  C   UNL     1       1.551   2.587  21.205  0.00  0.00    +0.000 C 
BRANCH  20  21
ATOM     21  C   UNL     1       1.198   2.334  19.751  0.00  0.00    +0.000 C 
BRANCH  21  22
ATOM     22  C   UNL     1       2.408   1.795  19.013  0.00  0.00    +0.000 C 
BRANCH  22  23
ATOM     23  C   UNL     1       2.431   2.334  17.595  0.00  0.00    +0.000 C 
BRANCH  23  24
ATOM     24  C   UNL     1       3.783   2.962  17.303  0.00  0.00    +0.000 C 
BRANCH  24  25
ATOM     25  C   UNL     1       4.011   4.152  18.220  0.00  0.00    +0.000 C 
BRANCH  25  27
ATOM     26  C   UNL     1       6.051   4.975  19.386  0.00  0.00    +0.000 C 
ATOM     27  C   UNL     1       5.075   3.824  19.256  0.00  0.00    +0.000 C 
ENDBRANCH  25  27
ENDBRANCH  24  25
ENDBRANCH  23  24
ENDBRANCH  22  23
ENDBRANCH  21  22
ENDBRANCH  20  21
ENDBRANCH  19  20
ENDBRANCH  18  19
ENDBRANCH  17  18
ENDBRANCH  16  17
ENDBRANCH  15  16
ENDBRANCH   1  15
TORSDOF 19
ENDMDL
MODEL 9
REMARK VINA RESULT:      -5.3      5.866      8.809
REMARK  Name = 
REMARK  20 active torsions:
REMARK  status: ('A' for Active; 'I' for Inactive)
REMARK    1  A    between atoms: C_1  and  C_2
REMARK    2  A    between atoms: C_2  and  C_3
REMARK    3  A    between atoms: C_3  and  C_4
REMARK    4  A    between atoms: C_4  and  C_5
REMARK    5  A    between atoms: C_5  and  C_6
REMARK    6  A    between atoms: C_6  and  C_7
REMARK    7  A    between atoms: C_7  and  C_8
REMARK    8  A    between atoms: C_8  and  C_9
REMARK    9  A    between atoms: C_9  and  C_10
REMARK   10  A    between atoms: C_10  and  C_11
REMARK   11  A    between atoms: C_11  and  C_12
REMARK   12  A    between atoms: C_12  and  C_13
REMARK   13  A    between atoms: C_13  and  C_14
REMARK   14  A    between atoms: C_14  and  C_15
REMARK   15  A    between atoms: C_15  and  C_16
REMARK   16  A    between atoms: C_16  and  C_17
REMARK   17  A    between atoms: C_17  and  C_19
REMARK   18  A    between atoms: C_20  and  C_21
REMARK   19  A    between atoms: C_23  and  C_24
REMARK   20  A    between atoms: C_24  and  O_26
REMARK                            x       y       z     vdW  Elec       q    Type
REMARK                         _______ _______ _______ _____ _____    ______ ____
ROOT
ATOM      1  C   UNL     1       7.708   8.859  17.648  0.00  0.00    +0.000 C 
ENDROOT
BRANCH   1   2
ATOM      2  C   UNL     1       8.656  10.014  17.925  0.00  0.00    +0.000 C 
BRANCH   2   3
ATOM      3  C   UNL     1       9.352   9.863  19.273  0.00  0.00    +0.000 C 
BRANCH   3   4
ATOM      4  C   UNL     1       9.998  11.170  19.696  0.00  0.00    +0.000 C 
ATOM      5  O   UNL     1      10.656  11.868  18.927  0.00  0.00    +0.000 OA
BRANCH   4   6
ATOM      6  C   UNL     1       9.813  11.597  21.095  0.00  0.00    +0.000 C 
ATOM      7  C   UNL     1       8.582  11.772  21.599  0.00  0.00    +0.000 C 
BRANCH   7   8
ATOM      8  C   UNL     1       8.310  12.211  22.972  0.00  0.00    +0.000 C 
ATOM      9  O   UNL     1       7.301  13.197  23.268  0.00  0.00    +0.000 OA
ATOM     10  C   UNL     1       6.992  11.846  23.628  0.00  0.00    +0.000 C 
BRANCH  10  11
ATOM     11  C   UNL     1       6.931  11.596  25.074  0.00  0.00    +0.000 C 
ATOM     12  O   UNL     1       7.696  12.144  25.858  0.00  0.00    +0.000 OA
BRANCH  11  13
ATOM     13  O   UNL     1       5.982  10.712  25.462  0.00  0.00    +0.000 OA
ATOM     14  H   UNL     1       5.430  11.020  26.210  0.00  0.00    +0.000 HD
ENDBRANCH  11  13
ENDBRANCH  10  11
ENDBRANCH   7   8
ENDBRANCH   4   6
ENDBRANCH   3   4
ENDBRANCH   2   3
ENDBRANCH   1   2
BRANCH   1  15
ATOM     15  C   UNL     1       8.225   7.590  18.312  0.00  0.00    +0.000 C 
BRANCH  15  16
ATOM     16  C   UNL     1       7.575   6.370  17.684  0.00  0.00    +0.000 C 
BRANCH  16  17
ATOM     17  C   UNL     1       6.497   5.823  18.602  0.00  0.00    +0.000 C 
BRANCH  17  18
ATOM     18  C   UNL     1       5.706   4.744  17.886  0.00  0.00    +0.000 C 
BRANCH  18  19
ATOM     19  C   UNL     1       4.564   5.370  17.108  0.00  0.00    +0.000 C 
BRANCH  19  20
ATOM     20  C   UNL     1       3.240   4.831  17.614  0.00  0.00    +0.000 C 
BRANCH  20  21
ATOM     21  C   UNL     1       2.371   5.975  18.102  0.00  0.00    +0.000 C 
BRANCH  21  22
ATOM     22  C   UNL     1       2.758   6.347  19.521  0.00  0.00    +0.000 C 
BRANCH  22  23
ATOM     23  C   UNL     1       1.787   5.719  20.503  0.00  0.00    +0.000 C 
BRANCH  23  24
ATOM     24  C   UNL     1       2.373   4.433  21.058  0.00  0.00    +0.000 C 
BRANCH  24  25
ATOM     25  C   UNL     1       1.308   3.349  21.089  0.00  0.00    +0.000 C 
BRANCH  25  27
ATOM     26  C   UNL     1       0.885   2.522  18.779  0.00  0.00    +0.000 C 
ATOM     27  C   UNL     1       1.630   2.264  20.073  0.00  0.00    +0.000 C 
ENDBRANCH  25  27
ENDBRANCH  24  25
ENDBRANCH  23  24
ENDBRANCH  22  23
ENDBRANCH  21  22
ENDBRANCH  20  21
ENDBRANCH  19  20
ENDBRANCH  18  19
ENDBRANCH  17  18
ENDBRANCH  16  17
ENDBRANCH  15  16
ENDBRANCH   1  15
TORSDOF 19
ENDMDL
