MODEL 1
REMARK VINA RESULT:      -8.7      0.000      0.000
REMARK  Name = 
REMARK  6 active torsions:
REMARK  status: ('A' for Active; 'I' for Inactive)
REMARK    1  A    between atoms: C_1  and  N_2
REMARK    2  A    between atoms: C_7  and  O_8
REMARK    3  A    between atoms: C_9  and  N_10
REMARK    4  A    between atoms: N_10  and  S_11
REMARK    5  A    between atoms: S_11  and  C_14
REMARK    6  A    between atoms: C_17  and  C_18
REMARK                            x       y       z     vdW  Elec       q    Type
REMARK                         _______ _______ _______ _____ _____    ______ ____
ROOT
ATOM      1  N   UNL     1       4.061   5.077  17.384  0.00  0.00    +0.000 N 
ATOM      2  H   UNL     1       3.772   5.040  16.398  0.00  0.00    +0.000 HD
ENDROOT
BRANCH   1  10
ATOM      3  C   UNL     1      -1.476  10.665  18.991  0.00  0.00    +0.000 C 
ATOM      4  N   UNL     1      -0.103  10.176  19.239  0.00  0.00    +0.000 NA
ATOM      5  C   UNL     1      -0.167   9.097  20.248  0.00  0.00    +0.000 C 
ATOM      6  C   UNL     1       1.206   8.706  20.804  0.00  0.00    +0.000 C 
ATOM      7  C   UNL     1       1.945   7.772  19.881  0.00  0.00    +0.000 A 
ATOM      8  C   UNL     1       2.248   6.474  20.328  0.00  0.00    +0.000 A 
ATOM      9  C   UNL     1       2.940   5.569  19.513  0.00  0.00    +0.000 A 
ATOM     10  C   UNL     1       3.329   5.957  18.224  0.00  0.00    +0.000 A 
ATOM     11  C   UNL     1       3.019   7.242  17.767  0.00  0.00    +0.000 A 
ATOM     12  C   UNL     1       2.331   8.162  18.584  0.00  0.00    +0.000 A 
ATOM     13  C   UNL     1       2.038   9.543  18.053  0.00  0.00    +0.000 C 
ATOM     14  C   UNL     1       0.532   9.828  17.947  0.00  0.00    +0.000 C 
BRANCH   9  15
ATOM     15  O   UNL     1       3.220   4.326  19.959  0.00  0.00    +0.000 OA
ATOM     16  H   UNL     1       2.963   4.029  20.845  0.00  0.00    +0.000 HD
ENDBRANCH   9  15
ENDBRANCH   1  10
BRANCH   1  17
ATOM     17  S   UNL     1       5.797   4.878  17.608  0.00  0.00    +0.000 S 
ATOM     18  O   UNL     1       5.970   3.779  18.669  0.00  0.00    +0.000 OA
ATOM     19  O   UNL     1       6.252   4.159  16.329  0.00  0.00    +0.000 OA
BRANCH  17  20
ATOM     20  C   UNL     1       6.806   6.341  17.922  0.00  0.00    +0.000 A 
ATOM     21  C   UNL     1       7.812   6.332  18.892  0.00  0.00    +0.000 A 
ATOM     22  C   UNL     1       8.567   7.486  19.143  0.00  0.00    +0.000 A 
ATOM     23  C   UNL     1       8.318   8.684  18.437  0.00  0.00    +0.000 A 
ATOM     24  C   UNL     1       7.304   8.671  17.453  0.00  0.00    +0.000 A 
ATOM     25  C   UNL     1       6.565   7.512  17.197  0.00  0.00    +0.000 A 
BRANCH  23  26
ATOM     26  C   UNL     1       9.091   9.938  18.736  0.00  0.00    +0.000 A 
ATOM     27  C   UNL     1       9.617  10.740  17.700  0.00  0.00    +0.000 A 
ATOM     28  C   UNL     1      10.348  11.897  17.990  0.00  0.00    +0.000 A 
ATOM     29  C   UNL     1      10.582  12.267  19.315  0.00  0.00    +0.000 A 
ATOM     30 CL   UNL     1      11.516  13.709  19.676  0.00  0.00    +0.000 Cl
ATOM     31  C   UNL     1      10.075  11.486  20.353  0.00  0.00    +0.000 A 
ATOM     32  C   UNL     1       9.330  10.338  20.070  0.00  0.00    +0.000 A 
ENDBRANCH  23  26
ENDBRANCH  17  20
ENDBRANCH   1  17
TORSDOF 5
ENDMDL
MODEL 2
REMARK VINA RESULT:      -8.2      5.521      7.575
REMARK  Name = 
REMARK  6 active torsions:
REMARK  status: ('A' for Active; 'I' for Inactive)
REMARK    1  A    between atoms: C_1  and  N_2
REMARK    2  A    between atoms: C_7  and  O_8
REMARK    3  A    between atoms: C_9  and  N_10
REMARK    4  A    between atoms: N_10  and  S_11
REMARK    5  A    between atoms: S_11  and  C_14
REMARK    6  A    between atoms: C_17  and  C_18
REMARK                            x       y       z     vdW  Elec       q    Type
REMARK                         _______ _______ _______ _____ _____    ______ ____
ROOT
ATOM      1  N   UNL     1       0.544  11.089  21.190  0.00  0.00    +0.000 N 
ATOM      2  H   UNL     1       1.196  11.694  21.705  0.00  0.00    +0.000 HD
ENDROOT
BRANCH   1  10
ATOM      3  C   UNL     1      -6.945  10.954  18.299  0.00  0.00    +0.000 C 
ATOM      4  N   UNL     1      -5.730  11.758  18.550  0.00  0.00    +0.000 NA
ATOM      5  C   UNL     1      -5.742  12.193  19.963  0.00  0.00    +0.000 C 
ATOM      6  C   UNL     1      -4.695  13.266  20.274  0.00  0.00    +0.000 C 
ATOM      7  C   UNL     1      -3.325  12.675  20.489  0.00  0.00    +0.000 A 
ATOM      8  C   UNL     1      -2.718  12.809  21.750  0.00  0.00    +0.000 A 
ATOM      9  C   UNL     1      -1.443  12.284  22.001  0.00  0.00    +0.000 A 
ATOM     10  C   UNL     1      -0.763  11.604  20.981  0.00  0.00    +0.000 A 
ATOM     11  C   UNL     1      -1.366  11.456  19.728  0.00  0.00    +0.000 A 
ATOM     12  C   UNL     1      -2.645  11.989  19.465  0.00  0.00    +0.000 A 
ATOM     13  C   UNL     1      -3.245  11.819  18.092  0.00  0.00    +0.000 C 
ATOM     14  C   UNL     1      -4.540  10.994  18.110  0.00  0.00    +0.000 C 
BRANCH   9  15
ATOM     15  O   UNL     1      -0.877  12.420  23.218  0.00  0.00    +0.000 OA
ATOM     16  H   UNL     1       0.083  12.377  23.344  0.00  0.00    +0.000 HD
ENDBRANCH   9  15
ENDBRANCH   1  10
BRANCH   1  17
ATOM     17  S   UNL     1       0.777   9.374  21.520  0.00  0.00    +0.000 S 
ATOM     18  O   UNL     1       1.392   9.286  22.925  0.00  0.00    +0.000 OA
ATOM     19  O   UNL     1      -0.648   8.851  21.763  0.00  0.00    +0.000 OA
BRANCH  17  20
ATOM     20  C   UNL     1       1.637   8.363  20.298  0.00  0.00    +0.000 A 
ATOM     21  C   UNL     1       2.083   7.076  20.609  0.00  0.00    +0.000 A 
ATOM     22  C   UNL     1       2.775   6.315  19.656  0.00  0.00    +0.000 A 
ATOM     23  C   UNL     1       3.052   6.836  18.372  0.00  0.00    +0.000 A 
ATOM     24  C   UNL     1       2.585   8.135  18.073  0.00  0.00    +0.000 A 
ATOM     25  C   UNL     1       1.881   8.882  19.023  0.00  0.00    +0.000 A 
BRANCH  23  26
ATOM     26  C   UNL     1       3.837   6.044  17.365  0.00  0.00    +0.000 A 
ATOM     27  C   UNL     1       3.789   4.633  17.342  0.00  0.00    +0.000 A 
ATOM     28  C   UNL     1       4.536   3.905  16.410  0.00  0.00    +0.000 A 
ATOM     29  C   UNL     1       5.356   4.567  15.495  0.00  0.00    +0.000 A 
ATOM     30 CL   UNL     1       6.306   3.649  14.339  0.00  0.00    +0.000 Cl
ATOM     31  C   UNL     1       5.421   5.959  15.503  0.00  0.00    +0.000 A 
ATOM     32  C   UNL     1       4.665   6.694  16.421  0.00  0.00    +0.000 A 
ENDBRANCH  23  26
ENDBRANCH  17  20
ENDBRANCH   1  17
TORSDOF 5
ENDMDL
MODEL 3
REMARK VINA RESULT:      -8.1      5.531      7.985
REMARK  Name = 
REMARK  6 active torsions:
REMARK  status: ('A' for Active; 'I' for Inactive)
REMARK    1  A    between atoms: C_1  and  N_2
REMARK    2  A    between atoms: C_7  and  O_8
REMARK    3  A    between atoms: C_9  and  N_10
REMARK    4  A    between atoms: N_10  and  S_11
REMARK    5  A    between atoms: S_11  and  C_14
REMARK    6  A    between atoms: C_17  and  C_18
REMARK                            x       y       z     vdW  Elec       q    Type
REMARK                         _______ _______ _______ _____ _____    ______ ____
ROOT
ATOM      1  N   UNL     1       0.356  11.082  21.178  0.00  0.00    +0.000 N 
ATOM      2  H   UNL     1       1.119  11.681  21.518  0.00  0.00    +0.000 HD
ENDROOT
BRANCH   1  10
ATOM      3  C   UNL     1      -5.397  15.874  24.074  0.00  0.00    +0.000 C 
ATOM      4  N   UNL     1      -5.045  14.532  23.563  0.00  0.00    +0.000 NA
ATOM      5  C   UNL     1      -5.044  14.582  22.085  0.00  0.00    +0.000 C 
ATOM      6  C   UNL     1      -4.980  13.197  21.434  0.00  0.00    +0.000 C 
ATOM      7  C   UNL     1      -3.575  12.653  21.397  0.00  0.00    +0.000 A 
ATOM      8  C   UNL     1      -2.969  12.421  20.150  0.00  0.00    +0.000 A 
ATOM      9  C   UNL     1      -1.668  11.909  20.060  0.00  0.00    +0.000 A 
ATOM     10  C   UNL     1      -0.951  11.632  21.232  0.00  0.00    +0.000 A 
ATOM     11  C   UNL     1      -1.543  11.873  22.476  0.00  0.00    +0.000 A 
ATOM     12  C   UNL     1      -2.855  12.379  22.576  0.00  0.00    +0.000 A 
ATOM     13  C   UNL     1      -3.457  12.604  23.940  0.00  0.00    +0.000 C 
ATOM     14  C   UNL     1      -3.790  14.079  24.205  0.00  0.00    +0.000 C 
BRANCH   9  15
ATOM     15  O   UNL     1      -1.101  11.695  18.854  0.00  0.00    +0.000 OA
ATOM     16  H   UNL     1      -0.906  12.422  18.243  0.00  0.00    +0.000 HD
ENDBRANCH   9  15
ENDBRANCH   1  10
BRANCH   1  17
ATOM     17  S   UNL     1       0.611   9.371  21.515  0.00  0.00    +0.000 S 
ATOM     18  O   UNL     1       1.198   9.295  22.933  0.00  0.00    +0.000 OA
ATOM     19  O   UNL     1      -0.809   8.825  21.729  0.00  0.00    +0.000 OA
BRANCH  17  20
ATOM     20  C   UNL     1       1.513   8.372  20.312  0.00  0.00    +0.000 A 
ATOM     21  C   UNL     1       1.941   7.079  20.621  0.00  0.00    +0.000 A 
ATOM     22  C   UNL     1       2.665   6.328  19.685  0.00  0.00    +0.000 A 
ATOM     23  C   UNL     1       2.994   6.866  18.420  0.00  0.00    +0.000 A 
ATOM     24  C   UNL     1       2.545   8.171  18.123  0.00  0.00    +0.000 A 
ATOM     25  C   UNL     1       1.809   8.909  19.055  0.00  0.00    +0.000 A 
BRANCH  23  26
ATOM     26  C   UNL     1       3.813   6.085  17.432  0.00  0.00    +0.000 A 
ATOM     27  C   UNL     1       4.648   6.734  16.496  0.00  0.00    +0.000 A 
ATOM     28  C   UNL     1       5.396   5.998  15.570  0.00  0.00    +0.000 A 
ATOM     29  C   UNL     1       5.313   4.605  15.548  0.00  0.00    +0.000 A 
ATOM     30 CL   UNL     1       6.237   3.686  14.373  0.00  0.00    +0.000 Cl
ATOM     31  C   UNL     1       4.490   3.945  16.460  0.00  0.00    +0.000 A 
ATOM     32  C   UNL     1       3.754   4.673  17.399  0.00  0.00    +0.000 A 
ENDBRANCH  23  26
ENDBRANCH  17  20
ENDBRANCH   1  17
TORSDOF 5
ENDMDL
MODEL 4
REMARK VINA RESULT:      -8.1      5.265      7.650
REMARK  Name = 
REMARK  6 active torsions:
REMARK  status: ('A' for Active; 'I' for Inactive)
REMARK    1  A    between atoms: C_1  and  N_2
REMARK    2  A    between atoms: C_7  and  O_8
REMARK    3  A    between atoms: C_9  and  N_10
REMARK    4  A    between atoms: N_10  and  S_11
REMARK    5  A    between atoms: S_11  and  C_14
REMARK    6  A    between atoms: C_17  and  C_18
REMARK                            x       y       z     vdW  Elec       q    Type
REMARK                         _______ _______ _______ _____ _____    ______ ____
ROOT
ATOM      1  N   UNL     1      -0.659  10.613  20.783  0.00  0.00    +0.000 N 
ATOM      2  H   UNL     1      -1.543  10.343  20.334  0.00  0.00    +0.000 HD
ENDROOT
BRANCH   1  10
ATOM      3  C   UNL     1       5.478  15.719  19.932  0.00  0.00    +0.000 C 
ATOM      4  N   UNL     1       4.013  15.553  20.044  0.00  0.00    +0.000 NA
ATOM      5  C   UNL     1       3.483  15.175  18.717  0.00  0.00    +0.000 C 
ATOM      6  C   UNL     1       1.956  15.255  18.630  0.00  0.00    +0.000 C 
ATOM      7  C   UNL     1       1.291  14.038  19.220  0.00  0.00    +0.000 A 
ATOM      8  C   UNL     1       0.527  13.207  18.381  0.00  0.00    +0.000 A 
ATOM      9  C   UNL     1      -0.117  12.068  18.880  0.00  0.00    +0.000 A 
ATOM     10  C   UNL     1       0.008  11.742  20.238  0.00  0.00    +0.000 A 
ATOM     11  C   UNL     1       0.777  12.556  21.075  0.00  0.00    +0.000 A 
ATOM     12  C   UNL     1       1.421  13.709  20.583  0.00  0.00    +0.000 A 
ATOM     13  C   UNL     1       2.223  14.566  21.531  0.00  0.00    +0.000 C 
ATOM     14  C   UNL     1       3.712  14.625  21.159  0.00  0.00    +0.000 C 
BRANCH   9  15
ATOM     15  O   UNL     1      -0.844  11.282  18.059  0.00  0.00    +0.000 OA
ATOM     16  H   UNL     1      -0.746  10.317  18.054  0.00  0.00    +0.000 HD
ENDBRANCH   9  15
ENDBRANCH   1  10
BRANCH   1  17
ATOM     17  S   UNL     1       0.269   9.238  21.376  0.00  0.00    +0.000 S 
ATOM     18  O   UNL     1       1.002   9.725  22.636  0.00  0.00    +0.000 OA
ATOM     19  O   UNL     1      -0.797   8.305  21.969  0.00  0.00    +0.000 OA
BRANCH  17  20
ATOM     20  C   UNL     1       1.339   8.349  20.226  0.00  0.00    +0.000 A 
ATOM     21  C   UNL     1       1.680   8.897  18.986  0.00  0.00    +0.000 A 
ATOM     22  C   UNL     1       2.488   8.181  18.093  0.00  0.00    +0.000 A 
ATOM     23  C   UNL     1       2.960   6.888  18.415  0.00  0.00    +0.000 A 
ATOM     24  C   UNL     1       2.612   6.356  19.676  0.00  0.00    +0.000 A 
ATOM     25  C   UNL     1       1.818   7.082  20.570  0.00  0.00    +0.000 A 
BRANCH  23  26
ATOM     26  C   UNL     1       3.784   6.096  17.441  0.00  0.00    +0.000 A 
ATOM     27  C   UNL     1       3.724   4.685  17.405  0.00  0.00    +0.000 A 
ATOM     28  C   UNL     1       4.508   3.956  16.504  0.00  0.00    +0.000 A 
ATOM     29  C   UNL     1       5.377   4.615  15.635  0.00  0.00    +0.000 A 
ATOM     30 CL   UNL     1       6.373   3.697  14.520  0.00  0.00    +0.000 Cl
ATOM     31  C   UNL     1       5.456   6.007  15.658  0.00  0.00    +0.000 A 
ATOM     32  C   UNL     1       4.664   6.743  16.543  0.00  0.00    +0.000 A 
ENDBRANCH  23  26
ENDBRANCH  17  20
ENDBRANCH   1  17
TORSDOF 5
ENDMDL
MODEL 5
REMARK VINA RESULT:      -8.0      6.429      8.617
REMARK  Name = 
REMARK  6 active torsions:
REMARK  status: ('A' for Active; 'I' for Inactive)
REMARK    1  A    between atoms: C_1  and  N_2
REMARK    2  A    between atoms: C_7  and  O_8
REMARK    3  A    between atoms: C_9  and  N_10
REMARK    4  A    between atoms: N_10  and  S_11
REMARK    5  A    between atoms: S_11  and  C_14
REMARK    6  A    between atoms: C_17  and  C_18
REMARK                            x       y       z     vdW  Elec       q    Type
REMARK                         _______ _______ _______ _____ _____    ______ ____
ROOT
ATOM      1  N   UNL     1      -0.338  11.860  19.165  0.00  0.00    +0.000 N 
ATOM      2  H   UNL     1       0.027  12.818  19.092  0.00  0.00    +0.000 HD
ENDROOT
BRANCH   1  10
ATOM      3  C   UNL     1      -7.912  14.273  18.039  0.00  0.00    +0.000 C 
ATOM      4  N   UNL     1      -7.012  13.239  18.592  0.00  0.00    +0.000 NA
ATOM      5  C   UNL     1      -6.599  12.343  17.490  0.00  0.00    +0.000 C 
ATOM      6  C   UNL     1      -5.904  11.068  17.977  0.00  0.00    +0.000 C 
ATOM      7  C   UNL     1      -4.451  11.304  18.303  0.00  0.00    +0.000 A 
ATOM      8  C   UNL     1      -3.469  10.634  17.552  0.00  0.00    +0.000 A 
ATOM      9  C   UNL     1      -2.106  10.812  17.819  0.00  0.00    +0.000 A 
ATOM     10  C   UNL     1      -1.709  11.682  18.846  0.00  0.00    +0.000 A 
ATOM     11  C   UNL     1      -2.681  12.361  19.587  0.00  0.00    +0.000 A 
ATOM     12  C   UNL     1      -4.056  12.180  19.331  0.00  0.00    +0.000 A 
ATOM     13  C   UNL     1      -5.065  12.921  20.172  0.00  0.00    +0.000 C 
ATOM     14  C   UNL     1      -5.921  13.895  19.348  0.00  0.00    +0.000 C 
BRANCH   9  15
ATOM     15  O   UNL     1      -1.177  10.163  17.087  0.00  0.00    +0.000 OA
ATOM     16  H   UNL     1      -0.293   9.969  17.436  0.00  0.00    +0.000 HD
ENDBRANCH   9  15
ENDBRANCH   1  10
BRANCH   1  17
ATOM     17  S   UNL     1       0.395  10.932  20.472  0.00  0.00    +0.000 S 
ATOM     18  O   UNL     1       1.403  11.871  21.153  0.00  0.00    +0.000 OA
ATOM     19  O   UNL     1      -0.719  10.844  21.527  0.00  0.00    +0.000 OA
BRANCH  17  20
ATOM     20  C   UNL     1       1.071   9.299  20.106  0.00  0.00    +0.000 A 
ATOM     21  C   UNL     1       1.609   9.004  18.851  0.00  0.00    +0.000 A 
ATOM     22  C   UNL     1       2.104   7.722  18.575  0.00  0.00    +0.000 A 
ATOM     23  C   UNL     1       2.054   6.699  19.548  0.00  0.00    +0.000 A 
ATOM     24  C   UNL     1       1.515   7.019  20.814  0.00  0.00    +0.000 A 
ATOM     25  C   UNL     1       1.037   8.304  21.088  0.00  0.00    +0.000 A 
BRANCH  23  26
ATOM     26  C   UNL     1       2.537   5.310  19.241  0.00  0.00    +0.000 A 
ATOM     27  C   UNL     1       2.745   4.883  17.911  0.00  0.00    +0.000 A 
ATOM     28  C   UNL     1       3.180   3.582  17.635  0.00  0.00    +0.000 A 
ATOM     29  C   UNL     1       3.399   2.679  18.676  0.00  0.00    +0.000 A 
ATOM     30 CL   UNL     1       3.926   1.042  18.325  0.00  0.00    +0.000 Cl
ATOM     31  C   UNL     1       3.194   3.078  19.996  0.00  0.00    +0.000 A 
ATOM     32  C   UNL     1       2.776   4.381  20.280  0.00  0.00    +0.000 A 
ENDBRANCH  23  26
ENDBRANCH  17  20
ENDBRANCH   1  17
TORSDOF 5
ENDMDL
MODEL 6
REMARK VINA RESULT:      -8.0      5.453      7.596
REMARK  Name = 
REMARK  6 active torsions:
REMARK  status: ('A' for Active; 'I' for Inactive)
REMARK    1  A    between atoms: C_1  and  N_2
REMARK    2  A    between atoms: C_7  and  O_8
REMARK    3  A    between atoms: C_9  and  N_10
REMARK    4  A    between atoms: N_10  and  S_11
REMARK    5  A    between atoms: S_11  and  C_14
REMARK    6  A    between atoms: C_17  and  C_18
REMARK                            x       y       z     vdW  Elec       q    Type
REMARK                         _______ _______ _______ _____ _____    ______ ____
ROOT
ATOM      1  N   UNL     1      -0.544  10.566  21.012  0.00  0.00    +0.000 N 
ATOM      2  H   UNL     1      -1.174  10.370  20.223  0.00  0.00    +0.000 HD
ENDROOT
BRANCH   1  10
ATOM      3  C   UNL     1       2.736  17.073  17.641  0.00  0.00    +0.000 C 
ATOM      4  N   UNL     1       2.813  16.067  18.722  0.00  0.00    +0.000 NA
ATOM      5  C   UNL     1       1.888  16.470  19.802  0.00  0.00    +0.000 C 
ATOM      6  C   UNL     1       2.086  15.675  21.096  0.00  0.00    +0.000 C 
ATOM      7  C   UNL     1       1.406  14.330  21.043  0.00  0.00    +0.000 A 
ATOM      8  C   UNL     1       0.361  14.062  21.944  0.00  0.00    +0.000 A 
ATOM      9  C   UNL     1      -0.299  12.826  21.942  0.00  0.00    +0.000 A 
ATOM     10  C   UNL     1       0.080  11.841  21.020  0.00  0.00    +0.000 A 
ATOM     11  C   UNL     1       1.111  12.106  20.112  0.00  0.00    +0.000 A 
ATOM     12  C   UNL     1       1.786  13.344  20.113  0.00  0.00    +0.000 A 
ATOM     13  C   UNL     1       2.904  13.574  19.127  0.00  0.00    +0.000 C 
ATOM     14  C   UNL     1       2.603  14.718  18.148  0.00  0.00    +0.000 C 
BRANCH   9  15
ATOM     15  O   UNL     1      -1.302  12.587  22.812  0.00  0.00    +0.000 OA
ATOM     16  H   UNL     1      -1.205  12.748  23.764  0.00  0.00    +0.000 HD
ENDBRANCH   9  15
ENDBRANCH   1  10
BRANCH   1  17
ATOM     17  S   UNL     1       0.337   9.146  21.570  0.00  0.00    +0.000 S 
ATOM     18  O   UNL     1       1.147   9.597  22.795  0.00  0.00    +0.000 OA
ATOM     19  O   UNL     1      -0.750   8.271  22.213  0.00  0.00    +0.000 OA
BRANCH  17  20
ATOM     20  C   UNL     1       1.307   8.201  20.378  0.00  0.00    +0.000 A 
ATOM     21  C   UNL     1       1.762   6.913  20.674  0.00  0.00    +0.000 A 
ATOM     22  C   UNL     1       2.539   6.205  19.747  0.00  0.00    +0.000 A 
ATOM     23  C   UNL     1       2.893   6.779  18.506  0.00  0.00    +0.000 A 
ATOM     24  C   UNL     1       2.417   8.078  18.221  0.00  0.00    +0.000 A 
ATOM     25  C   UNL     1       1.629   8.773  19.143  0.00  0.00    +0.000 A 
BRANCH  23  26
ATOM     26  C   UNL     1       3.768   6.044  17.530  0.00  0.00    +0.000 A 
ATOM     27  C   UNL     1       4.646   6.736  16.667  0.00  0.00    +0.000 A 
ATOM     28  C   UNL     1       5.445   6.043  15.751  0.00  0.00    +0.000 A 
ATOM     29  C   UNL     1       5.372   4.652  15.666  0.00  0.00    +0.000 A 
ATOM     30 CL   UNL     1       6.361   3.787  14.502  0.00  0.00    +0.000 Cl
ATOM     31  C   UNL     1       4.508   3.950  16.505  0.00  0.00    +0.000 A 
ATOM     32  C   UNL     1       3.719   4.635  17.434  0.00  0.00    +0.000 A 
ENDBRANCH  23  26
ENDBRANCH  17  20
ENDBRANCH   1  17
TORSDOF 5
ENDMDL
MODEL 7
REMARK VINA RESULT:      -7.9      5.640      8.171
REMARK  Name = 
REMARK  6 active torsions:
REMARK  status: ('A' for Active; 'I' for Inactive)
REMARK    1  A    between atoms: C_1  and  N_2
REMARK    2  A    between atoms: C_7  and  O_8
REMARK    3  A    between atoms: C_9  and  N_10
REMARK    4  A    between atoms: N_10  and  S_11
REMARK    5  A    between atoms: S_11  and  C_14
REMARK    6  A    between atoms: C_17  and  C_18
REMARK                            x       y       z     vdW  Elec       q    Type
REMARK                         _______ _______ _______ _____ _____    ______ ____
ROOT
ATOM      1  N   UNL     1      -0.396  11.860  19.861  0.00  0.00    +0.000 N 
ATOM      2  H   UNL     1       0.048  12.730  20.179  0.00  0.00    +0.000 HD
ENDROOT
BRANCH   1  10
ATOM      3  C   UNL     1      -7.540  15.475  19.269  0.00  0.00    +0.000 C 
ATOM      4  N   UNL     1      -6.805  14.233  19.586  0.00  0.00    +0.000 NA
ATOM      5  C   UNL     1      -6.480  13.546  18.318  0.00  0.00    +0.000 C 
ATOM      6  C   UNL     1      -5.977  12.113  18.517  0.00  0.00    +0.000 C 
ATOM      7  C   UNL     1      -4.518  12.072  18.890  0.00  0.00    +0.000 A 
ATOM      8  C   UNL     1      -3.610  11.450  18.014  0.00  0.00    +0.000 A 
ATOM      9  C   UNL     1      -2.244  11.378  18.317  0.00  0.00    +0.000 A 
ATOM     10  C   UNL     1      -1.768  11.944  19.508  0.00  0.00    +0.000 A 
ATOM     11  C   UNL     1      -2.663  12.576  20.377  0.00  0.00    +0.000 A 
ATOM     12  C   UNL     1      -4.041  12.644  20.085  0.00  0.00    +0.000 A 
ATOM     13  C   UNL     1      -4.969  13.319  21.064  0.00  0.00    +0.000 C 
ATOM     14  C   UNL     1      -5.660  14.555  20.469  0.00  0.00    +0.000 C 
BRANCH   9  15
ATOM     15  O   UNL     1      -1.387  10.780  17.463  0.00  0.00    +0.000 OA
ATOM     16  H   UNL     1      -0.538  11.181  17.223  0.00  0.00    +0.000 HD
ENDBRANCH   9  15
ENDBRANCH   1  10
BRANCH   1  17
ATOM     17  S   UNL     1       0.221  10.424  20.676  0.00  0.00    +0.000 S 
ATOM     18  O   UNL     1       0.871  10.916  21.979  0.00  0.00    +0.000 OA
ATOM     19  O   UNL     1      -1.044   9.726  21.196  0.00  0.00    +0.000 OA
BRANCH  17  20
ATOM     20  C   UNL     1       1.259   9.276  19.747  0.00  0.00    +0.000 A 
ATOM     21  C   UNL     1       1.644   9.551  18.433  0.00  0.00    +0.000 A 
ATOM     22  C   UNL     1       2.426   8.635  17.716  0.00  0.00    +0.000 A 
ATOM     23  C   UNL     1       2.827   7.411  18.298  0.00  0.00    +0.000 A 
ATOM     24  C   UNL     1       2.436   7.155  19.630  0.00  0.00    +0.000 A 
ATOM     25  C   UNL     1       1.669   8.080  20.345  0.00  0.00    +0.000 A 
BRANCH  23  26
ATOM     26  C   UNL     1       3.623   6.403  17.517  0.00  0.00    +0.000 A 
ATOM     27  C   UNL     1       3.394   5.017  17.661  0.00  0.00    +0.000 A 
ATOM     28  C   UNL     1       4.152   4.086  16.941  0.00  0.00    +0.000 A 
ATOM     29  C   UNL     1       5.160   4.517  16.079  0.00  0.00    +0.000 A 
ATOM     30 CL   UNL     1       6.121   3.347  15.193  0.00  0.00    +0.000 Cl
ATOM     31  C   UNL     1       5.406   5.881  15.927  0.00  0.00    +0.000 A 
ATOM     32  C   UNL     1       4.642   6.817  16.630  0.00  0.00    +0.000 A 
ENDBRANCH  23  26
ENDBRANCH  17  20
ENDBRANCH   1  17
TORSDOF 5
ENDMDL
MODEL 8
REMARK VINA RESULT:      -7.9      5.205      7.637
REMARK  Name = 
REMARK  6 active torsions:
REMARK  status: ('A' for Active; 'I' for Inactive)
REMARK    1  A    between atoms: C_1  and  N_2
REMARK    2  A    between atoms: C_7  and  O_8
REMARK    3  A    between atoms: C_9  and  N_10
REMARK    4  A    between atoms: N_10  and  S_11
REMARK    5  A    between atoms: S_11  and  C_14
REMARK    6  A    between atoms: C_17  and  C_18
REMARK                            x       y       z     vdW  Elec       q    Type
REMARK                         _______ _______ _______ _____ _____    ______ ____
ROOT
ATOM      1  N   UNL     1      -0.573  10.823  20.640  0.00  0.00    +0.000 N 
ATOM      2  H   UNL     1      -1.443  10.562  20.159  0.00  0.00    +0.000 HD
ENDROOT
BRANCH   1  10
ATOM      3  C   UNL     1       5.824  15.570  19.641  0.00  0.00    +0.000 C 
ATOM      4  N   UNL     1       4.362  15.491  19.842  0.00  0.00    +0.000 NA
ATOM      5  C   UNL     1       3.725  15.220  18.535  0.00  0.00    +0.000 C 
ATOM      6  C   UNL     1       2.204  15.401  18.554  0.00  0.00    +0.000 C 
ATOM      7  C   UNL     1       1.498  14.198  19.125  0.00  0.00    +0.000 A 
ATOM      8  C   UNL     1       0.630  13.464  18.298  0.00  0.00    +0.000 A 
ATOM      9  C   UNL     1      -0.057  12.343  18.781  0.00  0.00    +0.000 A 
ATOM     10  C   UNL     1       0.132  11.935  20.109  0.00  0.00    +0.000 A 
ATOM     11  C   UNL     1       1.004  12.653  20.933  0.00  0.00    +0.000 A 
ATOM     12  C   UNL     1       1.692  13.788  20.458  0.00  0.00    +0.000 A 
ATOM     13  C   UNL     1       2.607  14.539  21.392  0.00  0.00    +0.000 C 
ATOM     14  C   UNL     1       4.070  14.525  20.926  0.00  0.00    +0.000 C 
BRANCH   9  15
ATOM     15  O   UNL     1      -0.884  11.649  17.972  0.00  0.00    +0.000 OA
ATOM     16  H   UNL     1      -1.320  12.060  17.209  0.00  0.00    +0.000 HD
ENDBRANCH   9  15
ENDBRANCH   1  10
BRANCH   1  17
ATOM     17  S   UNL     1       0.310   9.441  21.285  0.00  0.00    +0.000 S 
ATOM     18  O   UNL     1       1.110   9.966  22.487  0.00  0.00    +0.000 OA
ATOM     19  O   UNL     1      -0.777   8.599  21.969  0.00  0.00    +0.000 OA
BRANCH  17  20
ATOM     20  C   UNL     1       1.294   8.435  20.155  0.00  0.00    +0.000 A 
ATOM     21  C   UNL     1       1.794   7.190  20.544  0.00  0.00    +0.000 A 
ATOM     22  C   UNL     1       2.580   6.434  19.664  0.00  0.00    +0.000 A 
ATOM     23  C   UNL     1       2.898   6.918  18.375  0.00  0.00    +0.000 A 
ATOM     24  C   UNL     1       2.375   8.174  17.996  0.00  0.00    +0.000 A 
ATOM     25  C   UNL     1       1.578   8.917  18.873  0.00  0.00    +0.000 A 
BRANCH  23  26
ATOM     26  C   UNL     1       3.782   6.135  17.446  0.00  0.00    +0.000 A 
ATOM     27  C   UNL     1       4.693   6.782  16.582  0.00  0.00    +0.000 A 
ATOM     28  C   UNL     1       5.501   6.043  15.709  0.00  0.00    +0.000 A 
ATOM     29  C   UNL     1       5.404   4.652  15.669  0.00  0.00    +0.000 A 
ATOM     30 CL   UNL     1       6.404   3.731  14.560  0.00  0.00    +0.000 Cl
ATOM     31  C   UNL     1       4.507   3.995  16.510  0.00  0.00    +0.000 A 
ATOM     32  C   UNL     1       3.709   4.725  17.396  0.00  0.00    +0.000 A 
ENDBRANCH  23  26
ENDBRANCH  17  20
ENDBRANCH   1  17
TORSDOF 5
ENDMDL
MODEL 9
REMARK VINA RESULT:      -7.8      5.510      7.768
REMARK  Name = 
REMARK  6 active torsions:
REMARK  status: ('A' for Active; 'I' for Inactive)
REMARK    1  A    between atoms: C_1  and  N_2
REMARK    2  A    between atoms: C_7  and  O_8
REMARK    3  A    between atoms: C_9  and  N_10
REMARK    4  A    between atoms: N_10  and  S_11
REMARK    5  A    between atoms: S_11  and  C_14
REMARK    6  A    between atoms: C_17  and  C_18
REMARK                            x       y       z     vdW  Elec       q    Type
REMARK                         _______ _______ _______ _____ _____    ______ ____
ROOT
ATOM      1  N   UNL     1      -1.021  10.464  20.487  0.00  0.00    +0.000 N 
ATOM      2  H   UNL     1      -1.702   9.924  19.938  0.00  0.00    +0.000 HD
ENDROOT
BRANCH   1  10
ATOM      3  C   UNL     1       2.784  17.533  20.585  0.00  0.00    +0.000 C 
ATOM      4  N   UNL     1       1.500  16.821  20.412  0.00  0.00    +0.000 NA
ATOM      5  C   UNL     1       1.438  16.300  19.029  0.00  0.00    +0.000 C 
ATOM      6  C   UNL     1       0.046  15.798  18.634  0.00  0.00    +0.000 C 
ATOM      7  C   UNL     1      -0.220  14.406  19.149  0.00  0.00    +0.000 A 
ATOM      8  C   UNL     1      -0.424  13.367  18.224  0.00  0.00    +0.000 A 
ATOM      9  C   UNL     1      -0.683  12.058  18.649  0.00  0.00    +0.000 A 
ATOM     10  C   UNL     1      -0.729  11.772  20.021  0.00  0.00    +0.000 A 
ATOM     11  C   UNL     1      -0.513  12.798  20.947  0.00  0.00    +0.000 A 
ATOM     12  C   UNL     1      -0.262  14.121  20.527  0.00  0.00    +0.000 A 
ATOM     13  C   UNL     1      -0.055  15.196  21.565  0.00  0.00    +0.000 C 
ATOM     14  C   UNL     1       1.345  15.824  21.495  0.00  0.00    +0.000 C 
BRANCH   9  15
ATOM     15  O   UNL     1      -0.874  11.073  17.747  0.00  0.00    +0.000 OA
ATOM     16  H   UNL     1      -1.754  10.857  17.402  0.00  0.00    +0.000 HD
ENDBRANCH   9  15
ENDBRANCH   1  10
BRANCH   1  17
ATOM     17  S   UNL     1       0.254   9.468  21.188  0.00  0.00    +0.000 S 
ATOM     18  O   UNL     1       1.013  10.373  22.171  0.00  0.00    +0.000 OA
ATOM     19  O   UNL     1      -0.499   8.526  22.139  0.00  0.00    +0.000 OA
BRANCH  17  20
ATOM     20  C   UNL     1       1.339   8.542  20.083  0.00  0.00    +0.000 A 
ATOM     21  C   UNL     1       1.686   9.040  18.824  0.00  0.00    +0.000 A 
ATOM     22  C   UNL     1       2.507   8.294  17.967  0.00  0.00    +0.000 A 
ATOM     23  C   UNL     1       2.986   7.020  18.347  0.00  0.00    +0.000 A 
ATOM     24  C   UNL     1       2.633   6.538  19.627  0.00  0.00    +0.000 A 
ATOM     25  C   UNL     1       1.827   7.294  20.483  0.00  0.00    +0.000 A 
BRANCH  23  26
ATOM     26  C   UNL     1       3.825   6.194  17.413  0.00  0.00    +0.000 A 
ATOM     27  C   UNL     1       4.714   6.799  16.497  0.00  0.00    +0.000 A 
ATOM     28  C   UNL     1       5.479   6.021  15.621  0.00  0.00    +0.000 A 
ATOM     29  C   UNL     1       5.361   4.631  15.628  0.00  0.00    +0.000 A 
ATOM     30 CL   UNL     1       6.308   3.660  14.514  0.00  0.00    +0.000 Cl
ATOM     31  C   UNL     1       4.485   4.015  16.521  0.00  0.00    +0.000 A 
ATOM     32  C   UNL     1       3.730   4.784  17.411  0.00  0.00    +0.000 A 
ENDBRANCH  23  26
ENDBRANCH  17  20
ENDBRANCH   1  17
TORSDOF 5
ENDMDL
