MODEL 1
REMARK VINA RESULT:      -6.7      0.000      0.000
REMARK  Name = 
REMARK  9 active torsions:
REMARK  status: ('A' for Active; 'I' for Inactive)
REMARK    1  A    between atoms: C_1  and  C_2
REMARK    2  A    between atoms: C_2  and  C_3
REMARK    3  A    between atoms: C_3  and  O_4
REMARK    4  A    between atoms: C_8  and  C_9
REMARK    5  A    between atoms: C_12  and  C_13
REMARK    6  A    between atoms: N_18  and  C_19
REMARK    7  A    between atoms: C_21  and  C_22
REMARK    8  A    between atoms: C_26  and  O_27
REMARK    9  A    between atoms: O_27  and  C_28
REMARK                            x       y       z     vdW  Elec       q    Type
REMARK                         _______ _______ _______ _____ _____    ______ ____
ROOT
ATOM      1  C   UNL     1      -0.986  11.592  19.737  0.00  0.00    +0.000 A 
ATOM      2  C   UNL     1      -0.526  10.536  20.479  0.00  0.00    +0.000 A 
ATOM      3  C   UNL     1       0.669  10.738  21.127  0.00  0.00    +0.000 A 
ATOM      4  N   UNL     1       1.370  11.890  21.084  0.00  0.00    +0.000 NA
ATOM      5  C   UNL     1       0.836  12.887  20.370  0.00  0.00    +0.000 A 
ATOM      6  N   UNL     1       1.475  14.128  20.422  0.00  0.00    +0.000 N 
ATOM      7  N   UNL     1      -0.308  12.753  19.683  0.00  0.00    +0.000 NA
ATOM      8  H   UNL     1       2.294  14.079  21.012  0.00  0.00    +0.000 HD
ENDROOT
BRANCH   1  16
ATOM      9  C   UNL     1      -6.476  11.695  20.356  0.00  0.00    +0.000 C 
ATOM     10  C   UNL     1      -5.960  12.471  19.137  0.00  0.00    +0.000 C 
ATOM     11  C   UNL     1      -6.780  12.111  17.867  0.00  0.00    +0.000 C 
ATOM     12  N   UNL     1      -5.838  11.819  16.768  0.00  0.00    +0.000 N 
ATOM     13  C   UNL     1      -4.597  11.578  17.405  0.00  0.00    +0.000 A 
ATOM     14  C   UNL     1      -3.416  11.140  16.818  0.00  0.00    +0.000 A 
ATOM     15  C   UNL     1      -2.235  11.129  17.592  0.00  0.00    +0.000 A 
ATOM     16  C   UNL     1      -2.222  11.554  18.937  0.00  0.00    +0.000 A 
ATOM     17  C   UNL     1      -3.439  11.960  19.510  0.00  0.00    +0.000 A 
ATOM     18  C   UNL     1      -4.594  11.981  18.737  0.00  0.00    +0.000 A 
ATOM     19  H   UNL     1      -6.120  11.056  16.151  0.00  0.00    +0.000 HD
BRANCH  14  20
ATOM     20  C   UNL     1      -3.363  10.714  15.455  0.00  0.00    +0.000 C 
ATOM     21  N   UNL     1      -3.347  10.337  14.354  0.00  0.00    +0.000 NA
ENDBRANCH  14  20
BRANCH  10  22
ATOM     22  C   UNL     1      -5.938  13.988  19.427  0.00  0.00    +0.000 C 
BRANCH  22  23
ATOM     23  O   UNL     1      -6.174  14.811  18.285  0.00  0.00    +0.000 OA
ATOM     24  H   UNL     1      -6.742  14.328  17.658  0.00  0.00    +0.000 HD
ENDBRANCH  22  23
ENDBRANCH  10  22
ENDBRANCH   1  16
BRANCH   6  25
ATOM     25  C   UNL     1       0.910  15.403  20.233  0.00  0.00    +0.000 A 
ATOM     26  C   UNL     1       1.189  16.136  19.053  0.00  0.00    +0.000 A 
ATOM     27  C   UNL     1       0.662  17.404  18.803  0.00  0.00    +0.000 A 
ATOM     28  C   UNL     1      -0.170  17.984  19.760  0.00  0.00    +0.000 A 
ATOM     29  C   UNL     1      -0.463  17.282  20.937  0.00  0.00    +0.000 A 
ATOM     30  C   UNL     1       0.055  15.997  21.178  0.00  0.00    +0.000 A 
BRANCH  27  31
ATOM     31  C   UNL     1       1.004  18.091  17.583  0.00  0.00    +0.000 C 
ATOM     32  N   UNL     1       1.277  18.629  16.594  0.00  0.00    +0.000 NA
ENDBRANCH  27  31
BRANCH  30  33
ATOM     33  O   UNL     1      -0.181  15.501  22.444  0.00  0.00    +0.000 OA
BRANCH  33  34
ATOM     34  C   UNL     1      -1.439  14.844  22.721  0.00  0.00    +0.000 C 
ATOM     35  C   UNL     1      -1.343  13.442  23.277  0.00  0.00    +0.000 C 
ATOM     36  C   UNL     1      -1.650  14.575  24.200  0.00  0.00    +0.000 C 
ENDBRANCH  33  34
ENDBRANCH  30  33
ENDBRANCH   6  25
TORSDOF 8
ENDMDL
MODEL 2
REMARK VINA RESULT:      -6.5      4.219      9.283
REMARK  Name = 
REMARK  9 active torsions:
REMARK  status: ('A' for Active; 'I' for Inactive)
REMARK    1  A    between atoms: C_1  and  C_2
REMARK    2  A    between atoms: C_2  and  C_3
REMARK    3  A    between atoms: C_3  and  O_4
REMARK    4  A    between atoms: C_8  and  C_9
REMARK    5  A    between atoms: C_12  and  C_13
REMARK    6  A    between atoms: N_18  and  C_19
REMARK    7  A    between atoms: C_21  and  C_22
REMARK    8  A    between atoms: C_26  and  O_27
REMARK    9  A    between atoms: O_27  and  C_28
REMARK                            x       y       z     vdW  Elec       q    Type
REMARK                         _______ _______ _______ _____ _____    ______ ____
ROOT
ATOM      1  C   UNL     1       1.979  14.098  19.496  0.00  0.00    +0.000 A 
ATOM      2  C   UNL     1       1.032  15.077  19.332  0.00  0.00    +0.000 A 
ATOM      3  C   UNL     1      -0.141  14.678  18.738  0.00  0.00    +0.000 A 
ATOM      4  N   UNL     1      -0.400  13.414  18.343  0.00  0.00    +0.000 NA
ATOM      5  C   UNL     1       0.559  12.509  18.572  0.00  0.00    +0.000 A 
ATOM      6  N   UNL     1       0.259  11.173  18.296  0.00  0.00    +0.000 N 
ATOM      7  N   UNL     1       1.741  12.830  19.116  0.00  0.00    +0.000 NA
ATOM      8  H   UNL     1      -0.680  11.089  17.934  0.00  0.00    +0.000 HD
ENDROOT
BRANCH   1  16
ATOM      9  C   UNL     1       7.225  14.865  17.940  0.00  0.00    +0.000 C 
ATOM     10  C   UNL     1       6.785  15.721  19.134  0.00  0.00    +0.000 C 
ATOM     11  C   UNL     1       7.835  15.654  20.277  0.00  0.00    +0.000 C 
ATOM     12  N   UNL     1       7.130  15.389  21.546  0.00  0.00    +0.000 N 
ATOM     13  C   UNL     1       5.859  14.895  21.163  0.00  0.00    +0.000 A 
ATOM     14  C   UNL     1       4.866  14.385  21.988  0.00  0.00    +0.000 A 
ATOM     15  C   UNL     1       3.597  14.107  21.433  0.00  0.00    +0.000 A 
ATOM     16  C   UNL     1       3.313  14.338  20.072  0.00  0.00    +0.000 A 
ATOM     17  C   UNL     1       4.349  14.825  19.257  0.00  0.00    +0.000 A 
ATOM     18  C   UNL     1       5.591  15.109  19.814  0.00  0.00    +0.000 A 
ATOM     19  H   UNL     1       7.619  14.763  22.188  0.00  0.00    +0.000 HD
BRANCH  14  20
ATOM     20  C   UNL     1       5.089  14.146  23.379  0.00  0.00    +0.000 C 
ATOM     21  N   UNL     1       5.245  13.918  24.510  0.00  0.00    +0.000 NA
ENDBRANCH  14  20
BRANCH  10  22
ATOM     22  C   UNL     1       6.482  17.167  18.684  0.00  0.00    +0.000 C 
BRANCH  22  23
ATOM     23  O   UNL     1       6.553  18.139  19.726  0.00  0.00    +0.000 OA
ATOM     24  H   UNL     1       6.266  19.001  19.376  0.00  0.00    +0.000 HD
ENDBRANCH  22  23
ENDBRANCH  10  22
ENDBRANCH   1  16
BRANCH   6  25
ATOM     25  C   UNL     1       0.812  10.021  18.884  0.00  0.00    +0.000 A 
ATOM     26  C   UNL     1       1.745   9.234  18.164  0.00  0.00    +0.000 A 
ATOM     27  C   UNL     1       2.331   8.080  18.688  0.00  0.00    +0.000 A 
ATOM     28  C   UNL     1       1.978   7.675  19.975  0.00  0.00    +0.000 A 
ATOM     29  C   UNL     1       1.058   8.434  20.710  0.00  0.00    +0.000 A 
ATOM     30  C   UNL     1       0.483   9.606  20.186  0.00  0.00    +0.000 A 
BRANCH  27  31
ATOM     31  C   UNL     1       3.262   7.326  17.887  0.00  0.00    +0.000 C 
ATOM     32  N   UNL     1       4.009   6.707  17.254  0.00  0.00    +0.000 NA
ENDBRANCH  27  31
BRANCH  30  33
ATOM     33  O   UNL     1      -0.525  10.153  20.953  0.00  0.00    +0.000 OA
BRANCH  33  34
ATOM     34  C   UNL     1      -0.181  10.894  22.147  0.00  0.00    +0.000 C 
ATOM     35  C   UNL     1      -0.475  12.375  22.113  0.00  0.00    +0.000 C 
ATOM     36  C   UNL     1      -1.397  11.465  22.856  0.00  0.00    +0.000 C 
ENDBRANCH  33  34
ENDBRANCH  30  33
ENDBRANCH   6  25
TORSDOF 8
ENDMDL
MODEL 3
REMARK VINA RESULT:      -6.5      2.746      5.418
REMARK  Name = 
REMARK  9 active torsions:
REMARK  status: ('A' for Active; 'I' for Inactive)
REMARK    1  A    between atoms: C_1  and  C_2
REMARK    2  A    between atoms: C_2  and  C_3
REMARK    3  A    between atoms: C_3  and  O_4
REMARK    4  A    between atoms: C_8  and  C_9
REMARK    5  A    between atoms: C_12  and  C_13
REMARK    6  A    between atoms: N_18  and  C_19
REMARK    7  A    between atoms: C_21  and  C_22
REMARK    8  A    between atoms: C_26  and  O_27
REMARK    9  A    between atoms: O_27  and  C_28
REMARK                            x       y       z     vdW  Elec       q    Type
REMARK                         _______ _______ _______ _____ _____    ______ ____
ROOT
ATOM      1  C   UNL     1      -2.106  12.234  20.746  0.00  0.00    +0.000 A 
ATOM      2  C   UNL     1      -2.039  13.232  21.683  0.00  0.00    +0.000 A 
ATOM      3  C   UNL     1      -1.006  13.135  22.584  0.00  0.00    +0.000 A 
ATOM      4  N   UNL     1      -0.082  12.152  22.576  0.00  0.00    +0.000 NA
ATOM      5  C   UNL     1      -0.194  11.237  21.606  0.00  0.00    +0.000 A 
ATOM      6  N   UNL     1       0.828  10.289  21.497  0.00  0.00    +0.000 N 
ATOM      7  N   UNL     1      -1.193  11.246  20.713  0.00  0.00    +0.000 NA
ATOM      8  H   UNL     1       1.527  10.440  22.211  0.00  0.00    +0.000 HD
ENDROOT
BRANCH   1  16
ATOM      9  C   UNL     1      -7.612  12.348  20.279  0.00  0.00    +0.000 C 
ATOM     10  C   UNL     1      -6.863  13.049  19.138  0.00  0.00    +0.000 C 
ATOM     11  C   UNL     1      -7.423  12.607  17.758  0.00  0.00    +0.000 C 
ATOM     12  N   UNL     1      -6.288  12.253  16.883  0.00  0.00    +0.000 N 
ATOM     13  C   UNL     1      -5.196  12.057  17.763  0.00  0.00    +0.000 A 
ATOM     14  C   UNL     1      -3.927  11.590  17.444  0.00  0.00    +0.000 A 
ATOM     15  C   UNL     1      -2.919  11.632  18.432  0.00  0.00    +0.000 A 
ATOM     16  C   UNL     1      -3.164  12.139  19.725  0.00  0.00    +0.000 A 
ATOM     17  C   UNL     1      -4.466  12.575  20.025  0.00  0.00    +0.000 A 
ATOM     18  C   UNL     1      -5.449  12.542  19.042  0.00  0.00    +0.000 A 
ATOM     19  H   UNL     1      -6.451  11.452  16.271  0.00  0.00    +0.000 HD
BRANCH  14  20
ATOM     20  C   UNL     1      -3.614  11.080  16.146  0.00  0.00    +0.000 C 
ATOM     21  N   UNL     1      -3.352  10.705  15.076  0.00  0.00    +0.000 NA
ENDBRANCH  14  20
BRANCH  10  22
ATOM     22  C   UNL     1      -6.887  14.581  19.333  0.00  0.00    +0.000 C 
BRANCH  22  23
ATOM     23  O   UNL     1      -5.805  15.273  18.711  0.00  0.00    +0.000 OA
ATOM     24  H   UNL     1      -5.691  16.138  19.144  0.00  0.00    +0.000 HD
ENDBRANCH  22  23
ENDBRANCH  10  22
ENDBRANCH   1  16
BRANCH   6  25
ATOM     25  C   UNL     1       1.242   9.589  20.350  0.00  0.00    +0.000 A 
ATOM     26  C   UNL     1       1.673   8.244  20.456  0.00  0.00    +0.000 A 
ATOM     27  C   UNL     1       2.096   7.492  19.358  0.00  0.00    +0.000 A 
ATOM     28  C   UNL     1       2.104   8.091  18.099  0.00  0.00    +0.000 A 
ATOM     29  C   UNL     1       1.683   9.422  17.964  0.00  0.00    +0.000 A 
ATOM     30  C   UNL     1       1.240  10.170  19.069  0.00  0.00    +0.000 A 
BRANCH  27  31
ATOM     31  C   UNL     1       2.533   6.132  19.550  0.00  0.00    +0.000 C 
ATOM     32  N   UNL     1       2.899   5.043  19.698  0.00  0.00    +0.000 NA
ENDBRANCH  27  31
BRANCH  30  33
ATOM     33  O   UNL     1       1.016  11.508  18.814  0.00  0.00    +0.000 OA
BRANCH  33  34
ATOM     34  C   UNL     1       2.104  12.448  18.971  0.00  0.00    +0.000 C 
ATOM     35  C   UNL     1       2.018  13.703  18.135  0.00  0.00    +0.000 C 
ATOM     36  C   UNL     1       1.660  13.764  19.583  0.00  0.00    +0.000 C 
ENDBRANCH  33  34
ENDBRANCH  30  33
ENDBRANCH   6  25
TORSDOF 8
ENDMDL
MODEL 4
REMARK VINA RESULT:      -6.4      2.299      7.857
REMARK  Name = 
REMARK  9 active torsions:
REMARK  status: ('A' for Active; 'I' for Inactive)
REMARK    1  A    between atoms: C_1  and  C_2
REMARK    2  A    between atoms: C_2  and  C_3
REMARK    3  A    between atoms: C_3  and  O_4
REMARK    4  A    between atoms: C_8  and  C_9
REMARK    5  A    between atoms: C_12  and  C_13
REMARK    6  A    between atoms: N_18  and  C_19
REMARK    7  A    between atoms: C_21  and  C_22
REMARK    8  A    between atoms: C_26  and  O_27
REMARK    9  A    between atoms: O_27  and  C_28
REMARK                            x       y       z     vdW  Elec       q    Type
REMARK                         _______ _______ _______ _____ _____    ______ ____
ROOT
ATOM      1  C   UNL     1      -2.516  11.501  17.770  0.00  0.00    +0.000 A 
ATOM      2  C   UNL     1      -2.190  11.134  16.490  0.00  0.00    +0.000 A 
ATOM      3  C   UNL     1      -3.240  10.726  15.702  0.00  0.00    +0.000 A 
ATOM      4  N   UNL     1      -4.525  10.690  16.109  0.00  0.00    +0.000 NA
ATOM      5  C   UNL     1      -4.766  11.101  17.359  0.00  0.00    +0.000 A 
ATOM      6  N   UNL     1      -6.103  11.201  17.756  0.00  0.00    +0.000 N 
ATOM      7  N   UNL     1      -3.791  11.480  18.197  0.00  0.00    +0.000 NA
ATOM      8  H   UNL     1      -6.716  10.922  17.003  0.00  0.00    +0.000 HD
ENDROOT
BRANCH   1  16
ATOM      9  C   UNL     1       1.964  14.697  18.271  0.00  0.00    +0.000 C 
ATOM     10  C   UNL     1       1.028  14.722  19.486  0.00  0.00    +0.000 C 
ATOM     11  C   UNL     1       1.830  14.541  20.805  0.00  0.00    +0.000 C 
ATOM     12  N   UNL     1       1.159  13.513  21.624  0.00  0.00    +0.000 N 
ATOM     13  C   UNL     1       0.317  12.819  20.723  0.00  0.00    +0.000 A 
ATOM     14  C   UNL     1      -0.437  11.680  20.976  0.00  0.00    +0.000 A 
ATOM     15  C   UNL     1      -1.353  11.239  19.996  0.00  0.00    +0.000 A 
ATOM     16  C   UNL     1      -1.527  11.925  18.776  0.00  0.00    +0.000 A 
ATOM     17  C   UNL     1      -0.727  13.056  18.538  0.00  0.00    +0.000 A 
ATOM     18  C   UNL     1       0.163  13.490  19.513  0.00  0.00    +0.000 A 
ATOM     19  H   UNL     1       1.789  12.891  22.134  0.00  0.00    +0.000 HD
BRANCH  14  20
ATOM     20  C   UNL     1      -0.318  10.952  22.200  0.00  0.00    +0.000 C 
ATOM     21  N   UNL     1      -0.239  10.392  23.217  0.00  0.00    +0.000 NA
ENDBRANCH  14  20
BRANCH  10  22
ATOM     22  C   UNL     1       0.163  16.002  19.481  0.00  0.00    +0.000 C 
BRANCH  22  23
ATOM     23  O   UNL     1       0.281  16.790  18.298  0.00  0.00    +0.000 OA
ATOM     24  H   UNL     1      -0.539  17.301  18.174  0.00  0.00    +0.000 HD
ENDBRANCH  22  23
ENDBRANCH  10  22
ENDBRANCH   1  16
BRANCH   6  25
ATOM     25  C   UNL     1      -6.655  12.042  18.739  0.00  0.00    +0.000 A 
ATOM     26  C   UNL     1      -6.924  11.538  20.036  0.00  0.00    +0.000 A 
ATOM     27  C   UNL     1      -7.470  12.318  21.056  0.00  0.00    +0.000 A 
ATOM     28  C   UNL     1      -7.776  13.652  20.789  0.00  0.00    +0.000 A 
ATOM     29  C   UNL     1      -7.520  14.178  19.515  0.00  0.00    +0.000 A 
ATOM     30  C   UNL     1      -6.952  13.394  18.494  0.00  0.00    +0.000 A 
BRANCH  27  31
ATOM     31  C   UNL     1      -7.726  11.728  22.346  0.00  0.00    +0.000 C 
ATOM     32  N   UNL     1      -7.916  11.255  23.386  0.00  0.00    +0.000 NA
ENDBRANCH  27  31
BRANCH  30  33
ATOM     33  O   UNL     1      -6.914  13.994  17.253  0.00  0.00    +0.000 OA
BRANCH  33  34
ATOM     34  C   UNL     1      -7.914  14.984  16.916  0.00  0.00    +0.000 C 
ATOM     35  C   UNL     1      -7.399  16.380  16.653  0.00  0.00    +0.000 C 
ATOM     36  C   UNL     1      -7.769  15.508  15.498  0.00  0.00    +0.000 C 
ENDBRANCH  33  34
ENDBRANCH  30  33
ENDBRANCH   6  25
TORSDOF 8
ENDMDL
MODEL 5
REMARK VINA RESULT:      -6.3      2.371      3.934
REMARK  Name = 
REMARK  9 active torsions:
REMARK  status: ('A' for Active; 'I' for Inactive)
REMARK    1  A    between atoms: C_1  and  C_2
REMARK    2  A    between atoms: C_2  and  C_3
REMARK    3  A    between atoms: C_3  and  O_4
REMARK    4  A    between atoms: C_8  and  C_9
REMARK    5  A    between atoms: C_12  and  C_13
REMARK    6  A    between atoms: N_18  and  C_19
REMARK    7  A    between atoms: C_21  and  C_22
REMARK    8  A    between atoms: C_26  and  O_27
REMARK    9  A    between atoms: O_27  and  C_28
REMARK                            x       y       z     vdW  Elec       q    Type
REMARK                         _______ _______ _______ _____ _____    ______ ____
ROOT
ATOM      1  C   UNL     1      -0.967  12.131  19.683  0.00  0.00    +0.000 A 
ATOM      2  C   UNL     1       0.197  11.446  19.451  0.00  0.00    +0.000 A 
ATOM      3  C   UNL     1       1.273  11.820  20.221  0.00  0.00    +0.000 A 
ATOM      4  N   UNL     1       1.230  12.779  21.169  0.00  0.00    +0.000 NA
ATOM      5  C   UNL     1       0.047  13.374  21.362  0.00  0.00    +0.000 A 
ATOM      6  N   UNL     1      -0.053  14.272  22.428  0.00  0.00    +0.000 N 
ATOM      7  N   UNL     1      -1.036  13.087  20.627  0.00  0.00    +0.000 NA
ATOM      8  H   UNL     1       0.832  14.348  22.910  0.00  0.00    +0.000 HD
ENDROOT
BRANCH   1  16
ATOM      9  C   UNL     1      -6.418  11.697  20.482  0.00  0.00    +0.000 C 
ATOM     10  C   UNL     1      -6.021  12.434  19.196  0.00  0.00    +0.000 C 
ATOM     11  C   UNL     1      -6.831  11.901  17.982  0.00  0.00    +0.000 C 
ATOM     12  N   UNL     1      -5.894  11.633  16.874  0.00  0.00    +0.000 N 
ATOM     13  C   UNL     1      -4.617  11.569  17.483  0.00  0.00    +0.000 A 
ATOM     14  C   UNL     1      -3.412  11.219  16.887  0.00  0.00    +0.000 A 
ATOM     15  C   UNL     1      -2.217  11.387  17.619  0.00  0.00    +0.000 A 
ATOM     16  C   UNL     1      -2.213  11.906  18.930  0.00  0.00    +0.000 A 
ATOM     17  C   UNL     1      -3.451  12.221  19.516  0.00  0.00    +0.000 A 
ATOM     18  C   UNL     1      -4.622  12.065  18.783  0.00  0.00    +0.000 A 
ATOM     19  H   UNL     1      -6.109  10.802  16.320  0.00  0.00    +0.000 HD
BRANCH  14  20
ATOM     20  C   UNL     1      -3.351  10.705  15.555  0.00  0.00    +0.000 C 
ATOM     21  N   UNL     1      -3.339  10.302  14.463  0.00  0.00    +0.000 NA
ENDBRANCH  14  20
BRANCH  10  22
ATOM     22  C   UNL     1      -6.156  13.962  19.381  0.00  0.00    +0.000 C 
BRANCH  22  23
ATOM     23  O   UNL     1      -6.223  14.702  18.163  0.00  0.00    +0.000 OA
ATOM     24  H   UNL     1      -6.954  14.354  17.621  0.00  0.00    +0.000 HD
ENDBRANCH  22  23
ENDBRANCH  10  22
ENDBRANCH   1  16
BRANCH   6  25
ATOM     25  C   UNL     1      -1.201  14.622  23.162  0.00  0.00    +0.000 A 
ATOM     26  C   UNL     1      -2.128  13.623  23.551  0.00  0.00    +0.000 A 
ATOM     27  C   UNL     1      -3.285  13.902  24.279  0.00  0.00    +0.000 A 
ATOM     28  C   UNL     1      -3.552  15.224  24.634  0.00  0.00    +0.000 A 
ATOM     29  C   UNL     1      -2.653  16.233  24.262  0.00  0.00    +0.000 A 
ATOM     30  C   UNL     1      -1.477  15.946  23.544  0.00  0.00    +0.000 A 
BRANCH  27  31
ATOM     31  C   UNL     1      -4.186  12.831  24.626  0.00  0.00    +0.000 C 
ATOM     32  N   UNL     1      -4.896  11.962  24.911  0.00  0.00    +0.000 NA
ENDBRANCH  27  31
BRANCH  30  33
ATOM     33  O   UNL     1      -0.778  17.052  23.106  0.00  0.00    +0.000 OA
BRANCH  33  34
ATOM     34  C   UNL     1      -0.208  17.957  24.079  0.00  0.00    +0.000 C 
ATOM     35  C   UNL     1       0.891  17.388  24.946  0.00  0.00    +0.000 C 
ATOM     36  C   UNL     1       1.251  18.276  23.802  0.00  0.00    +0.000 C 
ENDBRANCH  33  34
ENDBRANCH  30  33
ENDBRANCH   6  25
TORSDOF 8
ENDMDL
MODEL 6
REMARK VINA RESULT:      -6.3      4.927      7.410
REMARK  Name = 
REMARK  9 active torsions:
REMARK  status: ('A' for Active; 'I' for Inactive)
REMARK    1  A    between atoms: C_1  and  C_2
REMARK    2  A    between atoms: C_2  and  C_3
REMARK    3  A    between atoms: C_3  and  O_4
REMARK    4  A    between atoms: C_8  and  C_9
REMARK    5  A    between atoms: C_12  and  C_13
REMARK    6  A    between atoms: N_18  and  C_19
REMARK    7  A    between atoms: C_21  and  C_22
REMARK    8  A    between atoms: C_26  and  O_27
REMARK    9  A    between atoms: O_27  and  C_28
REMARK                            x       y       z     vdW  Elec       q    Type
REMARK                         _______ _______ _______ _____ _____    ______ ____
ROOT
ATOM      1  C   UNL     1       0.727   8.652  21.407  0.00  0.00    +0.000 A 
ATOM      2  C   UNL     1      -0.235   8.340  22.333  0.00  0.00    +0.000 A 
ATOM      3  C   UNL     1      -0.750   9.402  23.037  0.00  0.00    +0.000 A 
ATOM      4  N   UNL     1      -0.382  10.687  22.851  0.00  0.00    +0.000 NA
ATOM      5  C   UNL     1       0.534  10.913  21.902  0.00  0.00    +0.000 A 
ATOM      6  N   UNL     1       0.830  12.245  21.600  0.00  0.00    +0.000 N 
ATOM      7  N   UNL     1       1.106   9.926  21.199  0.00  0.00    +0.000 NA
ATOM      8  H   UNL     1       0.288  12.867  22.183  0.00  0.00    +0.000 HD
ENDROOT
BRANCH   1  16
ATOM      9  C   UNL     1       2.455   3.407  21.628  0.00  0.00    +0.000 C 
ATOM     10  C   UNL     1       1.911   3.840  20.260  0.00  0.00    +0.000 C 
ATOM     11  C   UNL     1       2.876   3.409  19.122  0.00  0.00    +0.000 C 
ATOM     12  N   UNL     1       3.096   4.565  18.231  0.00  0.00    +0.000 N 
ATOM     13  C   UNL     1       2.687   5.691  18.985  0.00  0.00    +0.000 A 
ATOM     14  C   UNL     1       2.809   7.031  18.639  0.00  0.00    +0.000 A 
ATOM     15  C   UNL     1       2.180   8.002  19.447  0.00  0.00    +0.000 A 
ATOM     16  C   UNL     1       1.428   7.650  20.587  0.00  0.00    +0.000 A 
ATOM     17  C   UNL     1       1.350   6.288  20.928  0.00  0.00    +0.000 A 
ATOM     18  C   UNL     1       1.962   5.337  20.119  0.00  0.00    +0.000 A 
ATOM     19  H   UNL     1       4.047   4.655  17.870  0.00  0.00    +0.000 HD
BRANCH  14  20
ATOM     20  C   UNL     1       3.543   7.449  17.486  0.00  0.00    +0.000 C 
ATOM     21  N   UNL     1       4.148   7.748  16.538  0.00  0.00    +0.000 NA
ENDBRANCH  14  20
BRANCH  10  22
ATOM     22  C   UNL     1       0.472   3.316  20.057  0.00  0.00    +0.000 C 
BRANCH  22  23
ATOM     23  O   UNL     1       0.316   2.430  18.949  0.00  0.00    +0.000 OA
ATOM     24  H   UNL     1      -0.522   2.634  18.496  0.00  0.00    +0.000 HD
ENDBRANCH  22  23
ENDBRANCH  10  22
ENDBRANCH   1  16
BRANCH   6  25
ATOM     25  C   UNL     1       1.307  12.773  20.387  0.00  0.00    +0.000 A 
ATOM     26  C   UNL     1       2.564  13.424  20.342  0.00  0.00    +0.000 A 
ATOM     27  C   UNL     1       3.096  13.970  19.172  0.00  0.00    +0.000 A 
ATOM     28  C   UNL     1       2.355  13.881  17.994  0.00  0.00    +0.000 A 
ATOM     29  C   UNL     1       1.107  13.242  18.009  0.00  0.00    +0.000 A 
ATOM     30  C   UNL     1       0.583  12.677  19.186  0.00  0.00    +0.000 A 
BRANCH  27  31
ATOM     31  C   UNL     1       4.377  14.629  19.210  0.00  0.00    +0.000 C 
ATOM     32  N   UNL     1       5.399  15.173  19.244  0.00  0.00    +0.000 NA
ENDBRANCH  27  31
BRANCH  30  33
ATOM     33  O   UNL     1      -0.720  12.233  19.087  0.00  0.00    +0.000 OA
BRANCH  33  34
ATOM     34  C   UNL     1      -1.099  11.403  17.965  0.00  0.00    +0.000 C 
ATOM     35  C   UNL     1      -0.605   9.975  18.002  0.00  0.00    +0.000 C 
ATOM     36  C   UNL     1      -2.025  10.266  18.361  0.00  0.00    +0.000 C 
ENDBRANCH  33  34
ENDBRANCH  30  33
ENDBRANCH   6  25
TORSDOF 8
ENDMDL
MODEL 7
REMARK VINA RESULT:      -6.3      1.826      3.075
REMARK  Name = 
REMARK  9 active torsions:
REMARK  status: ('A' for Active; 'I' for Inactive)
REMARK    1  A    between atoms: C_1  and  C_2
REMARK    2  A    between atoms: C_2  and  C_3
REMARK    3  A    between atoms: C_3  and  O_4
REMARK    4  A    between atoms: C_8  and  C_9
REMARK    5  A    between atoms: C_12  and  C_13
REMARK    6  A    between atoms: N_18  and  C_19
REMARK    7  A    between atoms: C_21  and  C_22
REMARK    8  A    between atoms: C_26  and  O_27
REMARK    9  A    between atoms: O_27  and  C_28
REMARK                            x       y       z     vdW  Elec       q    Type
REMARK                         _______ _______ _______ _____ _____    ______ ____
ROOT
ATOM      1  C   UNL     1      -2.327  12.618  21.170  0.00  0.00    +0.000 A 
ATOM      2  C   UNL     1      -2.750  12.624  22.475  0.00  0.00    +0.000 A 
ATOM      3  C   UNL     1      -1.772  12.836  23.417  0.00  0.00    +0.000 A 
ATOM      4  N   UNL     1      -0.472  13.049  23.126  0.00  0.00    +0.000 NA
ATOM      5  C   UNL     1      -0.146  13.067  21.829  0.00  0.00    +0.000 A 
ATOM      6  N   UNL     1       1.166  13.419  21.502  0.00  0.00    +0.000 N 
ATOM      7  N   UNL     1      -1.038  12.835  20.856  0.00  0.00    +0.000 NA
ATOM      8  H   UNL     1       1.701  13.606  22.339  0.00  0.00    +0.000 HD
ENDROOT
BRANCH   1  16
ATOM      9  C   UNL     1      -7.701  12.389  19.903  0.00  0.00    +0.000 C 
ATOM     10  C   UNL     1      -6.818  13.011  18.814  0.00  0.00    +0.000 C 
ATOM     11  C   UNL     1      -7.148  12.403  17.422  0.00  0.00    +0.000 C 
ATOM     12  N   UNL     1      -5.882  12.024  16.764  0.00  0.00    +0.000 N 
ATOM     13  C   UNL     1      -4.927  11.976  17.808  0.00  0.00    +0.000 A 
ATOM     14  C   UNL     1      -3.608  11.548  17.729  0.00  0.00    +0.000 A 
ATOM     15  C   UNL     1      -2.762  11.744  18.842  0.00  0.00    +0.000 A 
ATOM     16  C   UNL     1      -3.216  12.365  20.024  0.00  0.00    +0.000 A 
ATOM     17  C   UNL     1      -4.564  12.758  20.083  0.00  0.00    +0.000 A 
ATOM     18  C   UNL     1      -5.387  12.574  18.978  0.00  0.00    +0.000 A 
ATOM     19  H   UNL     1      -5.921  11.157  16.225  0.00  0.00    +0.000 HD
BRANCH  14  20
ATOM     20  C   UNL     1      -3.085  10.928  16.553  0.00  0.00    +0.000 C 
ATOM     21  N   UNL     1      -2.684  10.449  15.571  0.00  0.00    +0.000 NA
ENDBRANCH  14  20
BRANCH  10  22
ATOM     22  C   UNL     1      -6.929  14.551  18.836  0.00  0.00    +0.000 C 
BRANCH  22  23
ATOM     23  O   UNL     1      -6.480  15.195  17.644  0.00  0.00    +0.000 OA
ATOM     24  H   UNL     1      -7.220  15.241  17.011  0.00  0.00    +0.000 HD
ENDBRANCH  22  23
ENDBRANCH  10  22
ENDBRANCH   1  16
BRANCH   6  25
ATOM     25  C   UNL     1       1.635  14.004  20.312  0.00  0.00    +0.000 A 
ATOM     26  C   UNL     1       1.536  15.405  20.121  0.00  0.00    +0.000 A 
ATOM     27  C   UNL     1       1.982  16.048  18.966  0.00  0.00    +0.000 A 
ATOM     28  C   UNL     1       2.542  15.281  17.945  0.00  0.00    +0.000 A 
ATOM     29  C   UNL     1       2.654  13.893  18.106  0.00  0.00    +0.000 A 
ATOM     30  C   UNL     1       2.220  13.250  19.280  0.00  0.00    +0.000 A 
BRANCH  27  31
ATOM     31  C   UNL     1       1.833  17.477  18.842  0.00  0.00    +0.000 C 
ATOM     32  N   UNL     1       1.708  18.625  18.758  0.00  0.00    +0.000 NA
ENDBRANCH  27  31
BRANCH  30  33
ATOM     33  O   UNL     1       2.238  11.871  19.228  0.00  0.00    +0.000 OA
BRANCH  33  34
ATOM     34  C   UNL     1       1.108  11.171  18.660  0.00  0.00    +0.000 C 
ATOM     35  C   UNL     1       1.408   9.826  18.039  0.00  0.00    +0.000 C 
ATOM     36  C   UNL     1       0.784   9.882  19.395  0.00  0.00    +0.000 C 
ENDBRANCH  33  34
ENDBRANCH  30  33
ENDBRANCH   6  25
TORSDOF 8
ENDMDL
MODEL 8
REMARK VINA RESULT:      -6.2      3.034      7.448
REMARK  Name = 
REMARK  9 active torsions:
REMARK  status: ('A' for Active; 'I' for Inactive)
REMARK    1  A    between atoms: C_1  and  C_2
REMARK    2  A    between atoms: C_2  and  C_3
REMARK    3  A    between atoms: C_3  and  O_4
REMARK    4  A    between atoms: C_8  and  C_9
REMARK    5  A    between atoms: C_12  and  C_13
REMARK    6  A    between atoms: N_18  and  C_19
REMARK    7  A    between atoms: C_21  and  C_22
REMARK    8  A    between atoms: C_26  and  O_27
REMARK    9  A    between atoms: O_27  and  C_28
REMARK                            x       y       z     vdW  Elec       q    Type
REMARK                         _______ _______ _______ _____ _____    ______ ____
ROOT
ATOM      1  C   UNL     1      -3.309  12.610  22.728  0.00  0.00    +0.000 A 
ATOM      2  C   UNL     1      -3.515  12.447  24.074  0.00  0.00    +0.000 A 
ATOM      3  C   UNL     1      -4.800  12.668  24.511  0.00  0.00    +0.000 A 
ATOM      4  N   UNL     1      -5.828  13.005  23.705  0.00  0.00    +0.000 NA
ATOM      5  C   UNL     1      -5.554  13.107  22.400  0.00  0.00    +0.000 A 
ATOM      6  N   UNL     1      -6.629  13.322  21.533  0.00  0.00    +0.000 N 
ATOM      7  N   UNL     1      -4.320  12.940  21.904  0.00  0.00    +0.000 NA
ATOM      8  H   UNL     1      -7.494  13.382  22.052  0.00  0.00    +0.000 HD
ENDROOT
BRANCH   1  16
ATOM      9  C   UNL     1      -0.174  14.984  18.845  0.00  0.00    +0.000 C 
ATOM     10  C   UNL     1       0.605  14.469  20.063  0.00  0.00    +0.000 C 
ATOM     11  C   UNL     1       1.846  13.648  19.617  0.00  0.00    +0.000 C 
ATOM     12  N   UNL     1       1.872  12.385  20.380  0.00  0.00    +0.000 N 
ATOM     13  C   UNL     1       0.560  12.240  20.892  0.00  0.00    +0.000 A 
ATOM     14  C   UNL     1       0.034  11.153  21.578  0.00  0.00    +0.000 A 
ATOM     15  C   UNL     1      -1.245  11.271  22.164  0.00  0.00    +0.000 A 
ATOM     16  C   UNL     1      -1.996  12.461  22.078  0.00  0.00    +0.000 A 
ATOM     17  C   UNL     1      -1.450  13.533  21.350  0.00  0.00    +0.000 A 
ATOM     18  C   UNL     1      -0.184  13.412  20.788  0.00  0.00    +0.000 A 
ATOM     19  H   UNL     1       2.181  11.569  19.849  0.00  0.00    +0.000 HD
BRANCH  14  20
ATOM     20  C   UNL     1       0.756   9.926  21.714  0.00  0.00    +0.000 C 
ATOM     21  N   UNL     1       1.379   8.950  21.825  0.00  0.00    +0.000 NA
ENDBRANCH  14  20
BRANCH  10  22
ATOM     22  C   UNL     1       0.965  15.634  21.011  0.00  0.00    +0.000 C 
BRANCH  22  23
ATOM     23  O   UNL     1       1.638  16.723  20.380  0.00  0.00    +0.000 OA
ATOM     24  H   UNL     1       2.169  16.380  19.639  0.00  0.00    +0.000 HD
ENDBRANCH  22  23
ENDBRANCH  10  22
ENDBRANCH   1  16
BRANCH   6  25
ATOM     25  C   UNL     1      -6.732  12.967  20.176  0.00  0.00    +0.000 A 
ATOM     26  C   UNL     1      -6.762  13.973  19.179  0.00  0.00    +0.000 A 
ATOM     27  C   UNL     1      -6.863  13.689  17.816  0.00  0.00    +0.000 A 
ATOM     28  C   UNL     1      -6.949  12.357  17.413  0.00  0.00    +0.000 A 
ATOM     29  C   UNL     1      -6.923  11.340  18.378  0.00  0.00    +0.000 A 
ATOM     30  C   UNL     1      -6.802  11.629  19.749  0.00  0.00    +0.000 A 
BRANCH  27  31
ATOM     31  C   UNL     1      -6.899  14.770  16.863  0.00  0.00    +0.000 C 
ATOM     32  N   UNL     1      -6.941  15.631  16.089  0.00  0.00    +0.000 NA
ENDBRANCH  27  31
BRANCH  30  33
ATOM     33  O   UNL     1      -6.958  10.544  20.588  0.00  0.00    +0.000 OA
BRANCH  33  34
ATOM     34  C   UNL     1      -7.746   9.416  20.143  0.00  0.00    +0.000 C 
ATOM     35  C   UNL     1      -7.017   8.096  20.050  0.00  0.00    +0.000 C 
ATOM     36  C   UNL     1      -7.912   8.355  21.216  0.00  0.00    +0.000 C 
ENDBRANCH  33  34
ENDBRANCH  30  33
ENDBRANCH   6  25
TORSDOF 8
ENDMDL
MODEL 9
REMARK VINA RESULT:      -6.2      2.031      3.209
REMARK  Name = 
REMARK  9 active torsions:
REMARK  status: ('A' for Active; 'I' for Inactive)
REMARK    1  A    between atoms: C_1  and  C_2
REMARK    2  A    between atoms: C_2  and  C_3
REMARK    3  A    between atoms: C_3  and  O_4
REMARK    4  A    between atoms: C_8  and  C_9
REMARK    5  A    between atoms: C_12  and  C_13
REMARK    6  A    between atoms: N_18  and  C_19
REMARK    7  A    between atoms: C_21  and  C_22
REMARK    8  A    between atoms: C_26  and  O_27
REMARK    9  A    between atoms: O_27  and  C_28
REMARK                            x       y       z     vdW  Elec       q    Type
REMARK                         _______ _______ _______ _____ _____    ______ ____
ROOT
ATOM      1  C   UNL     1      -0.936  11.589  19.642  0.00  0.00    +0.000 A 
ATOM      2  C   UNL     1      -0.648  10.717  20.659  0.00  0.00    +0.000 A 
ATOM      3  C   UNL     1       0.581  10.878  21.253  0.00  0.00    +0.000 A 
ATOM      4  N   UNL     1       1.472  11.830  20.907  0.00  0.00    +0.000 NA
ATOM      5  C   UNL     1       1.101  12.667  19.932  0.00  0.00    +0.000 A 
ATOM      6  N   UNL     1       1.949  13.741  19.650  0.00  0.00    +0.000 N 
ATOM      7  N   UNL     1      -0.066  12.551  19.283  0.00  0.00    +0.000 NA
ATOM      8  H   UNL     1       2.762  13.715  20.250  0.00  0.00    +0.000 HD
ENDROOT
BRANCH   1  16
ATOM      9  C   UNL     1      -6.419  11.584  20.328  0.00  0.00    +0.000 C 
ATOM     10  C   UNL     1      -5.930  12.396  19.121  0.00  0.00    +0.000 C 
ATOM     11  C   UNL     1      -6.759  12.051  17.852  0.00  0.00    +0.000 C 
ATOM     12  N   UNL     1      -5.826  11.801  16.737  0.00  0.00    +0.000 N 
ATOM     13  C   UNL     1      -4.574  11.566  17.353  0.00  0.00    +0.000 A 
ATOM     14  C   UNL     1      -3.393  11.162  16.742  0.00  0.00    +0.000 A 
ATOM     15  C   UNL     1      -2.203  11.153  17.502  0.00  0.00    +0.000 A 
ATOM     16  C   UNL     1      -2.180  11.548  18.856  0.00  0.00    +0.000 A 
ATOM     17  C   UNL     1      -3.397  11.920  19.453  0.00  0.00    +0.000 A 
ATOM     18  C   UNL     1      -4.562  11.939  18.694  0.00  0.00    +0.000 A 
ATOM     19  H   UNL     1      -6.103  11.047  16.105  0.00  0.00    +0.000 HD
BRANCH  14  20
ATOM     20  C   UNL     1      -3.350  10.768  15.369  0.00  0.00    +0.000 C 
ATOM     21  N   UNL     1      -3.278  10.428  14.259  0.00  0.00    +0.000 NA
ENDBRANCH  14  20
BRANCH  10  22
ATOM     22  C   UNL     1      -5.931  13.906  19.445  0.00  0.00    +0.000 C 
BRANCH  22  23
ATOM     23  O   UNL     1      -6.133  14.754  18.315  0.00  0.00    +0.000 OA
ATOM     24  H   UNL     1      -7.087  14.918  18.208  0.00  0.00    +0.000 HD
ENDBRANCH  22  23
ENDBRANCH  10  22
ENDBRANCH   1  16
BRANCH   6  25
ATOM     25  C   UNL     1       1.612  14.991  19.101  0.00  0.00    +0.000 A 
ATOM     26  C   UNL     1       0.333  15.550  19.339  0.00  0.00    +0.000 A 
ATOM     27  C   UNL     1      -0.065  16.785  18.825  0.00  0.00    +0.000 A 
ATOM     28  C   UNL     1       0.831  17.501  18.031  0.00  0.00    +0.000 A 
ATOM     29  C   UNL     1       2.104  16.972  17.778  0.00  0.00    +0.000 A 
ATOM     30  C   UNL     1       2.508  15.736  18.314  0.00  0.00    +0.000 A 
BRANCH  27  31
ATOM     31  C   UNL     1      -1.390  17.281  19.102  0.00  0.00    +0.000 C 
ATOM     32  N   UNL     1      -2.451  17.679  19.342  0.00  0.00    +0.000 NA
ENDBRANCH  27  31
BRANCH  30  33
ATOM     33  O   UNL     1       3.719  15.267  17.846  0.00  0.00    +0.000 OA
BRANCH  33  34
ATOM     34  C   UNL     1       4.833  15.152  18.761  0.00  0.00    +0.000 C 
ATOM     35  C   UNL     1       6.167  14.810  18.139  0.00  0.00    +0.000 C 
ATOM     36  C   UNL     1       5.888  16.221  18.542  0.00  0.00    +0.000 C 
ENDBRANCH  33  34
ENDBRANCH  30  33
ENDBRANCH   6  25
TORSDOF 8
ENDMDL
