MODEL 1
REMARK VINA RESULT:      -8.5      0.000      0.000
REMARK  Name = 
REMARK  9 active torsions:
REMARK  status: ('A' for Active; 'I' for Inactive)
REMARK    1  A    between atoms: C_1  and  C_2
REMARK    2  A    between atoms: C_2  and  C_3
REMARK    3  A    between atoms: C_7  and  C_8
REMARK    4  A    between atoms: C_11  and  C_12
REMARK    5  A    between atoms: N_14  and  C_15
REMARK    6  A    between atoms: C_15  and  C_16
REMARK    7  A    between atoms: C_16  and  N_17
REMARK    8  A    between atoms: C_26  and  C_27
REMARK    9  A    between atoms: C_28  and  C_29
REMARK                            x       y       z     vdW  Elec       q    Type
REMARK                         _______ _______ _______ _____ _____    ______ ____
ROOT
ATOM      1  C   UNL     1       3.504   2.856  20.182  0.00  0.00    +0.000 A 
ATOM      2  N   UNL     1       2.842   2.513  21.312  0.00  0.00    +0.000 NA
ATOM      3  C   UNL     1       1.984   3.412  21.804  0.00  0.00    +0.000 A 
ATOM      4  N   UNL     1       1.712   4.605  21.268  0.00  0.00    +0.000 NA
ATOM      5  C   UNL     1       2.377   4.935  20.130  0.00  0.00    +0.000 A 
ATOM      6  C   UNL     1       3.322   4.081  19.549  0.00  0.00    +0.000 A 
ENDROOT
BRANCH   5   7
ATOM      7  C   UNL     1       2.072   6.301  19.644  0.00  0.00    +0.000 A 
ATOM      8  C   UNL     1       2.248   6.690  18.310  0.00  0.00    +0.000 A 
ATOM      9  C   UNL     1       2.167   8.030  17.934  0.00  0.00    +0.000 A 
ATOM     10  C   UNL     1       1.827   9.025  18.864  0.00  0.00    +0.000 A 
ATOM     11  C   UNL     1       1.489   8.628  20.165  0.00  0.00    +0.000 A 
ATOM     12 CL   UNL     1       0.914   9.688  21.407  0.00  0.00    +0.000 Cl
ATOM     13  C   UNL     1       1.622   7.284  20.541  0.00  0.00    +0.000 A 
BRANCH  10  14
ATOM     14  C   UNL     1       1.924  10.425  18.356  0.00  0.00    +0.000 C 
ATOM     15  O   UNL     1       2.553  10.658  17.327  0.00  0.00    +0.000 OA
ATOM     16  N   UNL     1       1.322  11.421  19.083  0.00  0.00    +0.000 N 
ATOM     17  H   UNL     1       0.661  11.157  19.804  0.00  0.00    +0.000 HD
BRANCH  16  18
ATOM     18  C   UNL     1       1.285  12.780  18.590  0.00  0.00    +0.000 C 
BRANCH  18  19
ATOM     19  C   UNL     1       2.545  13.566  18.983  0.00  0.00    +0.000 C 
BRANCH  19  20
ATOM     20  N   UNL     1       2.280  14.647  19.946  0.00  0.00    +0.000 NA
ATOM     21  C   UNL     1       1.326  15.636  19.398  0.00  0.00    +0.000 C 
ATOM     22  C   UNL     1       1.932  16.574  18.337  0.00  0.00    +0.000 C 
ATOM     23  O   UNL     1       3.119  17.224  18.811  0.00  0.00    +0.000 OA
ATOM     24  C   UNL     1       4.084  16.268  19.262  0.00  0.00    +0.000 C 
ATOM     25  C   UNL     1       3.497  15.376  20.366  0.00  0.00    +0.000 C 
ENDBRANCH  19  20
ENDBRANCH  18  19
ENDBRANCH  16  18
ENDBRANCH  10  14
ENDBRANCH   5   7
BRANCH   1  27
ATOM     26  C   UNL     1       3.733   1.101  18.436  0.00  0.00    +0.000 C 
ATOM     27  C   UNL     1       4.404   1.785  19.617  0.00  0.00    +0.000 C 
ENDBRANCH   1  27
BRANCH   6  28
ATOM     28  C   UNL     1       4.086   4.443  18.383  0.00  0.00    +0.000 C 
ATOM     29  C   UNL     1       4.764   4.671  17.416  0.00  0.00    +0.000 C 
BRANCH  29  30
ATOM     30  C   UNL     1       5.616   4.847  16.281  0.00  0.00    +0.000 A 
ATOM     31  C   UNL     1       5.330   4.240  15.060  0.00  0.00    +0.000 A 
ATOM     32  C   UNL     1       6.195   4.426  13.983  0.00  0.00    +0.000 A 
ATOM     33  C   UNL     1       7.331   5.205  14.157  0.00  0.00    +0.000 A 
ATOM     34  N   UNL     1       8.190   5.448  13.088  0.00  0.00    +0.000 N 
ATOM     35  N   UNL     1       7.633   5.797  15.326  0.00  0.00    +0.000 NA
ATOM     36  C   UNL     1       6.774   5.606  16.360  0.00  0.00    +0.000 A 
ATOM     37  H   UNL     1       8.483   4.597  12.628  0.00  0.00    +0.000 HD
ATOM     38  H   UNL     1       8.977   5.982  13.451  0.00  0.00    +0.000 HD
ENDBRANCH  29  30
ENDBRANCH   6  28
TORSDOF 8
ENDMDL
MODEL 2
REMARK VINA RESULT:      -8.4      1.152      1.333
REMARK  Name = 
REMARK  9 active torsions:
REMARK  status: ('A' for Active; 'I' for Inactive)
REMARK    1  A    between atoms: C_1  and  C_2
REMARK    2  A    between atoms: C_2  and  C_3
REMARK    3  A    between atoms: C_7  and  C_8
REMARK    4  A    between atoms: C_11  and  C_12
REMARK    5  A    between atoms: N_14  and  C_15
REMARK    6  A    between atoms: C_15  and  C_16
REMARK    7  A    between atoms: C_16  and  N_17
REMARK    8  A    between atoms: C_26  and  C_27
REMARK    9  A    between atoms: C_28  and  C_29
REMARK                            x       y       z     vdW  Elec       q    Type
REMARK                         _______ _______ _______ _____ _____    ______ ____
ROOT
ATOM      1  C   UNL     1       3.572   2.838  20.193  0.00  0.00    +0.000 A 
ATOM      2  N   UNL     1       2.950   2.518  21.352  0.00  0.00    +0.000 NA
ATOM      3  C   UNL     1       2.100   3.421  21.849  0.00  0.00    +0.000 A 
ATOM      4  N   UNL     1       1.799   4.599  21.294  0.00  0.00    +0.000 NA
ATOM      5  C   UNL     1       2.424   4.906  20.128  0.00  0.00    +0.000 A 
ATOM      6  C   UNL     1       3.357   4.046  19.537  0.00  0.00    +0.000 A 
ENDROOT
BRANCH   5   7
ATOM      7  C   UNL     1       2.091   6.257  19.618  0.00  0.00    +0.000 A 
ATOM      8  C   UNL     1       2.263   6.629  18.279  0.00  0.00    +0.000 A 
ATOM      9  C   UNL     1       2.154   7.960  17.882  0.00  0.00    +0.000 A 
ATOM     10  C   UNL     1       1.788   8.962  18.795  0.00  0.00    +0.000 A 
ATOM     11  C   UNL     1       1.454   8.578  20.100  0.00  0.00    +0.000 A 
ATOM     12 CL   UNL     1       0.850   9.644  21.323  0.00  0.00    +0.000 Cl
ATOM     13  C   UNL     1       1.615   7.244  20.498  0.00  0.00    +0.000 A 
BRANCH  10  14
ATOM     14  C   UNL     1       1.855  10.356  18.264  0.00  0.00    +0.000 C 
ATOM     15  O   UNL     1       2.707  10.650  17.429  0.00  0.00    +0.000 OA
ATOM     16  N   UNL     1       0.970  11.280  18.758  0.00  0.00    +0.000 N 
ATOM     17  H   UNL     1       0.175  10.947  19.291  0.00  0.00    +0.000 HD
BRANCH  16  18
ATOM     18  C   UNL     1       0.910  12.617  18.210  0.00  0.00    +0.000 C 
BRANCH  18  19
ATOM     19  C   UNL     1       1.506  13.657  19.171  0.00  0.00    +0.000 C 
BRANCH  19  20
ATOM     20  N   UNL     1       1.780  13.119  20.513  0.00  0.00    +0.000 NA
ATOM     21  C   UNL     1       0.669  13.405  21.448  0.00  0.00    +0.000 C 
ATOM     22  C   UNL     1       0.607  14.870  21.922  0.00  0.00    +0.000 C 
ATOM     23  O   UNL     1       1.857  15.307  22.472  0.00  0.00    +0.000 OA
ATOM     24  C   UNL     1       2.926  15.115  21.539  0.00  0.00    +0.000 C 
ATOM     25  C   UNL     1       3.025  13.641  21.117  0.00  0.00    +0.000 C 
ENDBRANCH  19  20
ENDBRANCH  18  19
ENDBRANCH  16  18
ENDBRANCH  10  14
ENDBRANCH   5   7
BRANCH   1  27
ATOM     26  C   UNL     1       3.776   1.069  18.459  0.00  0.00    +0.000 C 
ATOM     27  C   UNL     1       4.462   1.762  19.625  0.00  0.00    +0.000 C 
ENDBRANCH   1  27
BRANCH   6  28
ATOM     28  C   UNL     1       4.080   4.386  18.338  0.00  0.00    +0.000 C 
ATOM     29  C   UNL     1       4.746   4.619  17.364  0.00  0.00    +0.000 C 
BRANCH  29  30
ATOM     30  C   UNL     1       5.612   4.833  16.246  0.00  0.00    +0.000 A 
ATOM     31  C   UNL     1       5.361   4.238  15.012  0.00  0.00    +0.000 A 
ATOM     32  C   UNL     1       6.239   4.461  13.952  0.00  0.00    +0.000 A 
ATOM     33  C   UNL     1       7.354   5.262  14.157  0.00  0.00    +0.000 A 
ATOM     34  N   UNL     1       8.224   5.541  13.107  0.00  0.00    +0.000 N 
ATOM     35  N   UNL     1       7.623   5.843  15.340  0.00  0.00    +0.000 NA
ATOM     36  C   UNL     1       6.751   5.616  16.356  0.00  0.00    +0.000 A 
ATOM     37  H   UNL     1       8.544   4.705  12.638  0.00  0.00    +0.000 HD
ATOM     38  H   UNL     1       8.992   6.087  13.491  0.00  0.00    +0.000 HD
ENDBRANCH  29  30
ENDBRANCH   6  28
TORSDOF 8
ENDMDL
MODEL 3
REMARK VINA RESULT:      -8.3      1.756      2.146
REMARK  Name = 
REMARK  9 active torsions:
REMARK  status: ('A' for Active; 'I' for Inactive)
REMARK    1  A    between atoms: C_1  and  C_2
REMARK    2  A    between atoms: C_2  and  C_3
REMARK    3  A    between atoms: C_7  and  C_8
REMARK    4  A    between atoms: C_11  and  C_12
REMARK    5  A    between atoms: N_14  and  C_15
REMARK    6  A    between atoms: C_15  and  C_16
REMARK    7  A    between atoms: C_16  and  N_17
REMARK    8  A    between atoms: C_26  and  C_27
REMARK    9  A    between atoms: C_28  and  C_29
REMARK                            x       y       z     vdW  Elec       q    Type
REMARK                         _______ _______ _______ _____ _____    ______ ____
ROOT
ATOM      1  C   UNL     1       3.603   2.800  20.253  0.00  0.00    +0.000 A 
ATOM      2  N   UNL     1       2.978   2.454  21.404  0.00  0.00    +0.000 NA
ATOM      3  C   UNL     1       2.114   3.340  21.909  0.00  0.00    +0.000 A 
ATOM      4  N   UNL     1       1.802   4.521  21.368  0.00  0.00    +0.000 NA
ATOM      5  C   UNL     1       2.430   4.853  20.211  0.00  0.00    +0.000 A 
ATOM      6  C   UNL     1       3.377   4.014  19.613  0.00  0.00    +0.000 A 
ENDROOT
BRANCH   5   7
ATOM      7  C   UNL     1       2.082   6.207  19.718  0.00  0.00    +0.000 A 
ATOM      8  C   UNL     1       2.232   6.591  18.381  0.00  0.00    +0.000 A 
ATOM      9  C   UNL     1       2.110   7.926  17.997  0.00  0.00    +0.000 A 
ATOM     10  C   UNL     1       1.754   8.918  18.924  0.00  0.00    +0.000 A 
ATOM     11  C   UNL     1       1.441   8.520  20.231  0.00  0.00    +0.000 A 
ATOM     12 CL   UNL     1       0.850   9.572  21.472  0.00  0.00    +0.000 Cl
ATOM     13  C   UNL     1       1.615   7.183  20.614  0.00  0.00    +0.000 A 
BRANCH  10  14
ATOM     14  C   UNL     1       1.806  10.316  18.405  0.00  0.00    +0.000 C 
ATOM     15  O   UNL     1       2.588  10.603  17.502  0.00  0.00    +0.000 OA
ATOM     16  N   UNL     1       0.988  11.253  18.985  0.00  0.00    +0.000 N 
ATOM     17  H   UNL     1       0.235  10.931  19.581  0.00  0.00    +0.000 HD
BRANCH  16  18
ATOM     18  C   UNL     1       0.911  12.598  18.459  0.00  0.00    +0.000 C 
BRANCH  18  19
ATOM     19  C   UNL     1      -0.274  13.376  19.051  0.00  0.00    +0.000 C 
BRANCH  19  20
ATOM     20  N   UNL     1       0.132  14.392  20.036  0.00  0.00    +0.000 NA
ATOM     21  C   UNL     1       0.604  13.768  21.292  0.00  0.00    +0.000 C 
ATOM     22  C   UNL     1      -0.524  13.198  22.173  0.00  0.00    +0.000 C 
ATOM     23  O   UNL     1      -1.539  14.173  22.443  0.00  0.00    +0.000 OA
ATOM     24  C   UNL     1      -2.064  14.719  21.228  0.00  0.00    +0.000 C 
ATOM     25  C   UNL     1      -0.946  15.345  20.381  0.00  0.00    +0.000 C 
ENDBRANCH  19  20
ENDBRANCH  18  19
ENDBRANCH  16  18
ENDBRANCH  10  14
ENDBRANCH   5   7
BRANCH   1  27
ATOM     26  C   UNL     1       3.824   1.028  18.524  0.00  0.00    +0.000 C 
ATOM     27  C   UNL     1       4.512   1.743  19.676  0.00  0.00    +0.000 C 
ENDBRANCH   1  27
BRANCH   6  28
ATOM     28  C   UNL     1       4.104   4.380  18.425  0.00  0.00    +0.000 C 
ATOM     29  C   UNL     1       4.763   4.622  17.447  0.00  0.00    +0.000 C 
BRANCH  29  30
ATOM     30  C   UNL     1       5.609   4.829  16.314  0.00  0.00    +0.000 A 
ATOM     31  C   UNL     1       5.319   4.253  15.079  0.00  0.00    +0.000 A 
ATOM     32  C   UNL     1       6.179   4.469  14.003  0.00  0.00    +0.000 A 
ATOM     33  C   UNL     1       7.315   5.244  14.192  0.00  0.00    +0.000 A 
ATOM     34  N   UNL     1       8.168   5.516  13.127  0.00  0.00    +0.000 N 
ATOM     35  N   UNL     1       7.621   5.806  15.376  0.00  0.00    +0.000 NA
ATOM     36  C   UNL     1       6.767   5.586  16.408  0.00  0.00    +0.000 A 
ATOM     37  H   UNL     1       8.460   4.677  12.643  0.00  0.00    +0.000 HD
ATOM     38  H   UNL     1       8.956   6.041  13.500  0.00  0.00    +0.000 HD
ENDBRANCH  29  30
ENDBRANCH   6  28
TORSDOF 8
ENDMDL
MODEL 4
REMARK VINA RESULT:      -8.3      0.902      1.155
REMARK  Name = 
REMARK  9 active torsions:
REMARK  status: ('A' for Active; 'I' for Inactive)
REMARK    1  A    between atoms: C_1  and  C_2
REMARK    2  A    between atoms: C_2  and  C_3
REMARK    3  A    between atoms: C_7  and  C_8
REMARK    4  A    between atoms: C_11  and  C_12
REMARK    5  A    between atoms: N_14  and  C_15
REMARK    6  A    between atoms: C_15  and  C_16
REMARK    7  A    between atoms: C_16  and  N_17
REMARK    8  A    between atoms: C_26  and  C_27
REMARK    9  A    between atoms: C_28  and  C_29
REMARK                            x       y       z     vdW  Elec       q    Type
REMARK                         _______ _______ _______ _____ _____    ______ ____
ROOT
ATOM      1  C   UNL     1       3.515   2.804  20.234  0.00  0.00    +0.000 A 
ATOM      2  N   UNL     1       2.810   2.434  21.330  0.00  0.00    +0.000 NA
ATOM      3  C   UNL     1       1.915   3.310  21.794  0.00  0.00    +0.000 A 
ATOM      4  N   UNL     1       1.644   4.505  21.262  0.00  0.00    +0.000 NA
ATOM      5  C   UNL     1       2.352   4.862  20.159  0.00  0.00    +0.000 A 
ATOM      6  C   UNL     1       3.337   4.034  19.609  0.00  0.00    +0.000 A 
ENDROOT
BRANCH   5   7
ATOM      7  C   UNL     1       2.042   6.229  19.676  0.00  0.00    +0.000 A 
ATOM      8  C   UNL     1       2.221   6.623  18.345  0.00  0.00    +0.000 A 
ATOM      9  C   UNL     1       2.135   7.964  17.974  0.00  0.00    +0.000 A 
ATOM     10  C   UNL     1       1.788   8.955  18.906  0.00  0.00    +0.000 A 
ATOM     11  C   UNL     1       1.447   8.551  20.204  0.00  0.00    +0.000 A 
ATOM     12 CL   UNL     1       0.864   9.604  21.448  0.00  0.00    +0.000 Cl
ATOM     13  C   UNL     1       1.585   7.207  20.576  0.00  0.00    +0.000 A 
BRANCH  10  14
ATOM     14  C   UNL     1       1.880  10.357  18.403  0.00  0.00    +0.000 C 
ATOM     15  O   UNL     1       2.662  10.629  17.496  0.00  0.00    +0.000 OA
ATOM     16  N   UNL     1       1.098  11.312  19.002  0.00  0.00    +0.000 N 
ATOM     17  H   UNL     1       0.341  11.007  19.602  0.00  0.00    +0.000 HD
BRANCH  16  18
ATOM     18  C   UNL     1       1.059  12.665  18.492  0.00  0.00    +0.000 C 
BRANCH  18  19
ATOM     19  C   UNL     1      -0.083  13.479  19.119  0.00  0.00    +0.000 C 
BRANCH  19  20
ATOM     20  N   UNL     1       0.376  14.433  20.141  0.00  0.00    +0.000 NA
ATOM     21  C   UNL     1      -0.690  15.392  20.504  0.00  0.00    +0.000 C 
ATOM     22  C   UNL     1      -0.948  16.478  19.442  0.00  0.00    +0.000 C 
ATOM     23  O   UNL     1       0.254  17.171  19.082  0.00  0.00    +0.000 OA
ATOM     24  C   UNL     1       1.264  16.256  18.644  0.00  0.00    +0.000 C 
ATOM     25  C   UNL     1       1.565  15.213  19.732  0.00  0.00    +0.000 C 
ENDBRANCH  19  20
ENDBRANCH  18  19
ENDBRANCH  16  18
ENDBRANCH  10  14
ENDBRANCH   5   7
BRANCH   1  27
ATOM     26  C   UNL     1       3.838   1.049  18.504  0.00  0.00    +0.000 C 
ATOM     27  C   UNL     1       4.459   1.758  19.697  0.00  0.00    +0.000 C 
ENDBRANCH   1  27
BRANCH   6  28
ATOM     28  C   UNL     1       4.145   4.425  18.484  0.00  0.00    +0.000 C 
ATOM     29  C   UNL     1       4.829   4.670  17.525  0.00  0.00    +0.000 C 
BRANCH  29  30
ATOM     30  C   UNL     1       5.651   4.858  16.370  0.00  0.00    +0.000 A 
ATOM     31  C   UNL     1       5.353   4.232  15.161  0.00  0.00    +0.000 A 
ATOM     32  C   UNL     1       6.189   4.430  14.063  0.00  0.00    +0.000 A 
ATOM     33  C   UNL     1       7.309   5.237  14.204  0.00  0.00    +0.000 A 
ATOM     34  N   UNL     1       8.137   5.492  13.115  0.00  0.00    +0.000 N 
ATOM     35  N   UNL     1       7.622   5.848  15.361  0.00  0.00    +0.000 NA
ATOM     36  C   UNL     1       6.792   5.645  16.416  0.00  0.00    +0.000 A 
ATOM     37  H   UNL     1       8.441   4.644  12.655  0.00  0.00    +0.000 HD
ATOM     38  H   UNL     1       8.919   6.048  13.455  0.00  0.00    +0.000 HD
ENDBRANCH  29  30
ENDBRANCH   6  28
TORSDOF 8
ENDMDL
MODEL 5
REMARK VINA RESULT:      -8.3      4.561     10.106
REMARK  Name = 
REMARK  9 active torsions:
REMARK  status: ('A' for Active; 'I' for Inactive)
REMARK    1  A    between atoms: C_1  and  C_2
REMARK    2  A    between atoms: C_2  and  C_3
REMARK    3  A    between atoms: C_7  and  C_8
REMARK    4  A    between atoms: C_11  and  C_12
REMARK    5  A    between atoms: N_14  and  C_15
REMARK    6  A    between atoms: C_15  and  C_16
REMARK    7  A    between atoms: C_16  and  N_17
REMARK    8  A    between atoms: C_26  and  C_27
REMARK    9  A    between atoms: C_28  and  C_29
REMARK                            x       y       z     vdW  Elec       q    Type
REMARK                         _______ _______ _______ _____ _____    ______ ____
ROOT
ATOM      1  C   UNL     1      -3.450  13.059  21.635  0.00  0.00    +0.000 A 
ATOM      2  N   UNL     1      -3.190  13.377  22.925  0.00  0.00    +0.000 NA
ATOM      3  C   UNL     1      -2.027  12.953  23.427  0.00  0.00    +0.000 A 
ATOM      4  N   UNL     1      -1.095  12.263  22.762  0.00  0.00    +0.000 NA
ATOM      5  C   UNL     1      -1.364  11.957  21.466  0.00  0.00    +0.000 A 
ATOM      6  C   UNL     1      -2.567  12.323  20.852  0.00  0.00    +0.000 A 
ENDROOT
BRANCH   5   7
ATOM      7  C   UNL     1      -0.314  11.130  20.826  0.00  0.00    +0.000 A 
ATOM      8  C   UNL     1       0.442  11.573  19.734  0.00  0.00    +0.000 A 
ATOM      9  C   UNL     1       1.257  10.697  19.020  0.00  0.00    +0.000 A 
ATOM     10  C   UNL     1       1.409   9.360  19.418  0.00  0.00    +0.000 A 
ATOM     11  C   UNL     1       0.786   8.947  20.603  0.00  0.00    +0.000 A 
ATOM     12 CL   UNL     1       0.968   7.385  21.326  0.00  0.00    +0.000 Cl
ATOM     13  C   UNL     1      -0.068   9.825  21.284  0.00  0.00    +0.000 A 
BRANCH  10  14
ATOM     14  C   UNL     1       2.191   8.505  18.477  0.00  0.00    +0.000 C 
ATOM     15  O   UNL     1       2.361   8.872  17.317  0.00  0.00    +0.000 OA
ATOM     16  N   UNL     1       2.674   7.307  18.939  0.00  0.00    +0.000 N 
ATOM     17  H   UNL     1       2.676   7.143  19.939  0.00  0.00    +0.000 HD
BRANCH  16  18
ATOM     18  C   UNL     1       3.530   6.484  18.114  0.00  0.00    +0.000 C 
BRANCH  18  19
ATOM     19  C   UNL     1       2.862   5.149  17.750  0.00  0.00    +0.000 C 
BRANCH  19  20
ATOM     20  N   UNL     1       2.346   4.419  18.920  0.00  0.00    +0.000 NA
ATOM     21  C   UNL     1       3.442   3.998  19.821  0.00  0.00    +0.000 C 
ATOM     22  C   UNL     1       4.264   2.805  19.296  0.00  0.00    +0.000 C 
ATOM     23  O   UNL     1       3.431   1.689  18.955  0.00  0.00    +0.000 OA
ATOM     24  C   UNL     1       2.421   2.069  18.014  0.00  0.00    +0.000 C 
ATOM     25  C   UNL     1       1.561   3.216  18.568  0.00  0.00    +0.000 C 
ENDBRANCH  19  20
ENDBRANCH  18  19
ENDBRANCH  16  18
ENDBRANCH  10  14
ENDBRANCH   5   7
BRANCH   1  27
ATOM     26  C   UNL     1      -5.907  12.723  21.456  0.00  0.00    +0.000 C 
ATOM     27  C   UNL     1      -4.737  13.620  21.084  0.00  0.00    +0.000 C 
ENDBRANCH   1  27
BRANCH   6  28
ATOM     28  C   UNL     1      -2.899  11.947  19.502  0.00  0.00    +0.000 C 
ATOM     29  C   UNL     1      -3.105  11.586  18.372  0.00  0.00    +0.000 C 
BRANCH  29  30
ATOM     30  C   UNL     1      -3.260  11.104  17.036  0.00  0.00    +0.000 A 
ATOM     31  C   UNL     1      -2.401  10.141  16.509  0.00  0.00    +0.000 A 
ATOM     32  C   UNL     1      -2.577   9.709  15.196  0.00  0.00    +0.000 A 
ATOM     33  C   UNL     1      -3.601  10.260  14.437  0.00  0.00    +0.000 A 
ATOM     34  N   UNL     1      -3.832   9.816  13.138  0.00  0.00    +0.000 N 
ATOM     35  N   UNL     1      -4.440  11.194  14.918  0.00  0.00    +0.000 NA
ATOM     36  C   UNL     1      -4.252  11.596  16.201  0.00  0.00    +0.000 A 
ATOM     37  H   UNL     1      -2.997   9.838  12.568  0.00  0.00    +0.000 HD
ATOM     38  H   UNL     1      -4.578  10.391  12.752  0.00  0.00    +0.000 HD
ENDBRANCH  29  30
ENDBRANCH   6  28
TORSDOF 8
ENDMDL
MODEL 6
REMARK VINA RESULT:      -8.2      4.283      9.722
REMARK  Name = 
REMARK  9 active torsions:
REMARK  status: ('A' for Active; 'I' for Inactive)
REMARK    1  A    between atoms: C_1  and  C_2
REMARK    2  A    between atoms: C_2  and  C_3
REMARK    3  A    between atoms: C_7  and  C_8
REMARK    4  A    between atoms: C_11  and  C_12
REMARK    5  A    between atoms: N_14  and  C_15
REMARK    6  A    between atoms: C_15  and  C_16
REMARK    7  A    between atoms: C_16  and  N_17
REMARK    8  A    between atoms: C_26  and  C_27
REMARK    9  A    between atoms: C_28  and  C_29
REMARK                            x       y       z     vdW  Elec       q    Type
REMARK                         _______ _______ _______ _____ _____    ______ ____
ROOT
ATOM      1  C   UNL     1      -2.254  12.914  21.238  0.00  0.00    +0.000 A 
ATOM      2  N   UNL     1      -1.925  13.335  22.483  0.00  0.00    +0.000 NA
ATOM      3  C   UNL     1      -1.037  12.595  23.153  0.00  0.00    +0.000 A 
ATOM      4  N   UNL     1      -0.435  11.494  22.695  0.00  0.00    +0.000 NA
ATOM      5  C   UNL     1      -0.768  11.086  21.444  0.00  0.00    +0.000 A 
ATOM      6  C   UNL     1      -1.711  11.768  20.667  0.00  0.00    +0.000 A 
ENDROOT
BRANCH   5   7
ATOM      7  C   UNL     1      -0.112   9.819  21.042  0.00  0.00    +0.000 A 
ATOM      8  C   UNL     1      -0.225   8.637  21.783  0.00  0.00    +0.000 A 
ATOM      9  C   UNL     1       0.579   7.533  21.503  0.00  0.00    +0.000 A 
ATOM     10  C   UNL     1       1.472   7.540  20.420  0.00  0.00    +0.000 A 
ATOM     11  C   UNL     1       1.475   8.657  19.574  0.00  0.00    +0.000 A 
ATOM     12 CL   UNL     1       2.400   8.793  18.117  0.00  0.00    +0.000 Cl
ATOM     13  C   UNL     1       0.698   9.778  19.894  0.00  0.00    +0.000 A 
BRANCH  10  14
ATOM     14  C   UNL     1       2.369   6.351  20.332  0.00  0.00    +0.000 C 
ATOM     15  O   UNL     1       2.115   5.345  20.989  0.00  0.00    +0.000 OA
ATOM     16  N   UNL     1       3.480   6.436  19.531  0.00  0.00    +0.000 N 
ATOM     17  H   UNL     1       3.538   7.201  18.870  0.00  0.00    +0.000 HD
BRANCH  16  18
ATOM     18  C   UNL     1       4.330   5.286  19.317  0.00  0.00    +0.000 C 
BRANCH  18  19
ATOM     19  C   UNL     1       4.457   4.938  17.826  0.00  0.00    +0.000 C 
BRANCH  19  20
ATOM     20  N   UNL     1       5.331   5.863  17.086  0.00  0.00    +0.000 NA
ATOM     21  C   UNL     1       5.605   5.369  15.718  0.00  0.00    +0.000 C 
ATOM     22  C   UNL     1       6.603   4.197  15.660  0.00  0.00    +0.000 C 
ATOM     23  O   UNL     1       7.826   4.501  16.344  0.00  0.00    +0.000 OA
ATOM     24  C   UNL     1       7.576   4.895  17.697  0.00  0.00    +0.000 C 
ATOM     25  C   UNL     1       6.632   6.106  17.748  0.00  0.00    +0.000 C 
ENDBRANCH  19  20
ENDBRANCH  18  19
ENDBRANCH  16  18
ENDBRANCH  10  14
ENDBRANCH   5   7
BRANCH   1  27
ATOM     26  C   UNL     1      -3.656  14.962  21.377  0.00  0.00    +0.000 C 
ATOM     27  C   UNL     1      -3.200  13.817  20.487  0.00  0.00    +0.000 C 
ENDBRANCH   1  27
BRANCH   6  28
ATOM     28  C   UNL     1      -2.128  11.311  19.366  0.00  0.00    +0.000 C 
ATOM     29  C   UNL     1      -2.463  11.008  18.251  0.00  0.00    +0.000 C 
BRANCH  29  30
ATOM     30  C   UNL     1      -2.848  10.748  16.899  0.00  0.00    +0.000 A 
ATOM     31  C   UNL     1      -2.224   9.755  16.147  0.00  0.00    +0.000 A 
ATOM     32  C   UNL     1      -2.618   9.544  14.827  0.00  0.00    +0.000 A 
ATOM     33  C   UNL     1      -3.619  10.341  14.287  0.00  0.00    +0.000 A 
ATOM     34  N   UNL     1      -4.068  10.125  12.987  0.00  0.00    +0.000 N 
ATOM     35  N   UNL     1      -4.233  11.310  14.989  0.00  0.00    +0.000 NA
ATOM     36  C   UNL     1      -3.835  11.494  16.274  0.00  0.00    +0.000 A 
ATOM     37  H   UNL     1      -3.311  10.105  12.316  0.00  0.00    +0.000 HD
ATOM     38  H   UNL     1      -4.749  10.852  12.780  0.00  0.00    +0.000 HD
ENDBRANCH  29  30
ENDBRANCH   6  28
TORSDOF 8
ENDMDL
MODEL 7
REMARK VINA RESULT:      -8.1      4.277      6.700
REMARK  Name = 
REMARK  9 active torsions:
REMARK  status: ('A' for Active; 'I' for Inactive)
REMARK    1  A    between atoms: C_1  and  C_2
REMARK    2  A    between atoms: C_2  and  C_3
REMARK    3  A    between atoms: C_7  and  C_8
REMARK    4  A    between atoms: C_11  and  C_12
REMARK    5  A    between atoms: N_14  and  C_15
REMARK    6  A    between atoms: C_15  and  C_16
REMARK    7  A    between atoms: C_16  and  N_17
REMARK    8  A    between atoms: C_26  and  C_27
REMARK    9  A    between atoms: C_28  and  C_29
REMARK                            x       y       z     vdW  Elec       q    Type
REMARK                         _______ _______ _______ _____ _____    ______ ____
ROOT
ATOM      1  C   UNL     1       2.554   3.237  20.432  0.00  0.00    +0.000 A 
ATOM      2  N   UNL     1       3.048   1.999  20.674  0.00  0.00    +0.000 NA
ATOM      3  C   UNL     1       4.328   1.788  20.354  0.00  0.00    +0.000 A 
ATOM      4  N   UNL     1       5.162   2.694  19.836  0.00  0.00    +0.000 NA
ATOM      5  C   UNL     1       4.657   3.934  19.604  0.00  0.00    +0.000 A 
ATOM      6  C   UNL     1       3.321   4.253  19.872  0.00  0.00    +0.000 A 
ENDROOT
BRANCH   5   7
ATOM      7  C   UNL     1       5.625   4.854  18.962  0.00  0.00    +0.000 A 
ATOM      8  C   UNL     1       6.838   5.218  19.558  0.00  0.00    +0.000 A 
ATOM      9  C   UNL     1       7.616   6.250  19.036  0.00  0.00    +0.000 A 
ATOM     10  C   UNL     1       7.250   6.906  17.850  0.00  0.00    +0.000 A 
ATOM     11  C   UNL     1       6.125   6.440  17.156  0.00  0.00    +0.000 A 
ATOM     12 CL   UNL     1       5.599   7.025  15.614  0.00  0.00    +0.000 Cl
ATOM     13  C   UNL     1       5.326   5.434  17.717  0.00  0.00    +0.000 A 
BRANCH  10  14
ATOM     14  C   UNL     1       8.094   8.084  17.492  0.00  0.00    +0.000 C 
ATOM     15  O   UNL     1       8.632   8.136  16.389  0.00  0.00    +0.000 OA
ATOM     16  N   UNL     1       8.265   9.068  18.433  0.00  0.00    +0.000 N 
ATOM     17  H   UNL     1       7.652   9.073  19.240  0.00  0.00    +0.000 HD
BRANCH  16  18
ATOM     18  C   UNL     1       8.978  10.284  18.114  0.00  0.00    +0.000 C 
BRANCH  18  19
ATOM     19  C   UNL     1       9.579  10.941  19.366  0.00  0.00    +0.000 C 
BRANCH  19  20
ATOM     20  N   UNL     1      10.986  11.338  19.197  0.00  0.00    +0.000 NA
ATOM     21  C   UNL     1      11.424  12.249  20.277  0.00  0.00    +0.000 C 
ATOM     22  C   UNL     1      10.883  13.686  20.146  0.00  0.00    +0.000 C 
ATOM     23  O   UNL     1      11.170  14.251  18.860  0.00  0.00    +0.000 OA
ATOM     24  C   UNL     1      10.671  13.417  17.808  0.00  0.00    +0.000 C 
ATOM     25  C   UNL     1      11.262  12.002  17.904  0.00  0.00    +0.000 C 
ENDBRANCH  19  20
ENDBRANCH  18  19
ENDBRANCH  16  18
ENDBRANCH  10  14
ENDBRANCH   5   7
BRANCH   1  27
ATOM     26  C   UNL     1       0.163   3.053  19.776  0.00  0.00    +0.000 C 
ATOM     27  C   UNL     1       1.130   3.457  20.878  0.00  0.00    +0.000 C 
ENDBRANCH   1  27
BRANCH   6  28
ATOM     28  C   UNL     1       2.751   5.540  19.567  0.00  0.00    +0.000 C 
ATOM     29  C   UNL     1       2.344   6.650  19.345  0.00  0.00    +0.000 C 
BRANCH  29  30
ATOM     30  C   UNL     1       1.949   8.007  19.125  0.00  0.00    +0.000 A 
ATOM     31  C   UNL     1       2.193   8.644  17.911  0.00  0.00    +0.000 A 
ATOM     32  C   UNL     1       1.805   9.972  17.743  0.00  0.00    +0.000 A 
ATOM     33  C   UNL     1       1.194  10.635  18.799  0.00  0.00    +0.000 A 
ATOM     34  N   UNL     1       0.753  11.946  18.648  0.00  0.00    +0.000 N 
ATOM     35  N   UNL     1       0.952  10.044  19.984  0.00  0.00    +0.000 NA
ATOM     36  C   UNL     1       1.334   8.749  20.122  0.00  0.00    +0.000 A 
ATOM     37  H   UNL     1       1.476  12.558  18.295  0.00  0.00    +0.000 HD
ATOM     38  H   UNL     1       0.397  12.250  19.553  0.00  0.00    +0.000 HD
ENDBRANCH  29  30
ENDBRANCH   6  28
TORSDOF 8
ENDMDL
MODEL 8
REMARK VINA RESULT:      -8.0      3.827     10.367
REMARK  Name = 
REMARK  9 active torsions:
REMARK  status: ('A' for Active; 'I' for Inactive)
REMARK    1  A    between atoms: C_1  and  C_2
REMARK    2  A    between atoms: C_2  and  C_3
REMARK    3  A    between atoms: C_7  and  C_8
REMARK    4  A    between atoms: C_11  and  C_12
REMARK    5  A    between atoms: N_14  and  C_15
REMARK    6  A    between atoms: C_15  and  C_16
REMARK    7  A    between atoms: C_16  and  N_17
REMARK    8  A    between atoms: C_26  and  C_27
REMARK    9  A    between atoms: C_28  and  C_29
REMARK                            x       y       z     vdW  Elec       q    Type
REMARK                         _______ _______ _______ _____ _____    ______ ____
ROOT
ATOM      1  C   UNL     1      -1.931  14.358  23.592  0.00  0.00    +0.000 A 
ATOM      2  N   UNL     1      -3.098  14.000  24.179  0.00  0.00    +0.000 NA
ATOM      3  C   UNL     1      -3.477  12.726  24.038  0.00  0.00    +0.000 A 
ATOM      4  N   UNL     1      -2.796  11.777  23.389  0.00  0.00    +0.000 NA
ATOM      5  C   UNL     1      -1.624  12.147  22.811  0.00  0.00    +0.000 A 
ATOM      6  C   UNL     1      -1.150  13.462  22.869  0.00  0.00    +0.000 A 
ENDROOT
BRANCH   5   7
ATOM      7  C   UNL     1      -0.972  11.055  22.051  0.00  0.00    +0.000 A 
ATOM      8  C   UNL     1      -0.179  10.074  22.658  0.00  0.00    +0.000 A 
ATOM      9  C   UNL     1       0.596   9.201  21.897  0.00  0.00    +0.000 A 
ATOM     10  C   UNL     1       0.548   9.222  20.494  0.00  0.00    +0.000 A 
ATOM     11  C   UNL     1      -0.365  10.089  19.877  0.00  0.00    +0.000 A 
ATOM     12 CL   UNL     1      -0.668  10.160  18.174  0.00  0.00    +0.000 Cl
ATOM     13  C   UNL     1      -1.102  10.994  20.653  0.00  0.00    +0.000 A 
BRANCH  10  14
ATOM     14  C   UNL     1       1.538   8.337  19.813  0.00  0.00    +0.000 C 
ATOM     15  O   UNL     1       2.027   8.682  18.740  0.00  0.00    +0.000 OA
ATOM     16  N   UNL     1       1.848   7.138  20.404  0.00  0.00    +0.000 N 
ATOM     17  H   UNL     1       1.572   6.992  21.367  0.00  0.00    +0.000 HD
BRANCH  16  18
ATOM     18  C   UNL     1       2.878   6.285  19.854  0.00  0.00    +0.000 C 
BRANCH  18  19
ATOM     19  C   UNL     1       2.338   5.390  18.727  0.00  0.00    +0.000 C 
BRANCH  19  20
ATOM     20  N   UNL     1       3.136   4.170  18.521  0.00  0.00    +0.000 NA
ATOM     21  C   UNL     1       2.371   3.142  17.782  0.00  0.00    +0.000 C 
ATOM     22  C   UNL     1       1.294   2.433  18.624  0.00  0.00    +0.000 C 
ATOM     23  O   UNL     1       1.834   1.889  19.836  0.00  0.00    +0.000 OA
ATOM     24  C   UNL     1       2.502   2.898  20.601  0.00  0.00    +0.000 C 
ATOM     25  C   UNL     1       3.618   3.559  19.779  0.00  0.00    +0.000 C 
ENDBRANCH  19  20
ENDBRANCH  18  19
ENDBRANCH  16  18
ENDBRANCH  10  14
ENDBRANCH   5   7
BRANCH   1  27
ATOM     26  C   UNL     1      -1.077  15.963  25.288  0.00  0.00    +0.000 C 
ATOM     27  C   UNL     1      -1.501  15.783  23.839  0.00  0.00    +0.000 C 
ENDBRANCH   1  27
BRANCH   6  28
ATOM     28  C   UNL     1       0.054  13.887  22.204  0.00  0.00    +0.000 C 
ATOM     29  C   UNL     1       1.042  14.188  21.586  0.00  0.00    +0.000 C 
BRANCH  29  30
ATOM     30  C   UNL     1       2.188  14.473  20.780  0.00  0.00    +0.000 A 
ATOM     31  C   UNL     1       3.399  14.855  21.354  0.00  0.00    +0.000 A 
ATOM     32  C   UNL     1       4.488  15.139  20.531  0.00  0.00    +0.000 A 
ATOM     33  C   UNL     1       4.336  15.045  19.154  0.00  0.00    +0.000 A 
ATOM     34  N   UNL     1       5.416  15.276  18.308  0.00  0.00    +0.000 N 
ATOM     35  N   UNL     1       3.176  14.684  18.575  0.00  0.00    +0.000 NA
ATOM     36  C   UNL     1       2.131  14.408  19.396  0.00  0.00    +0.000 A 
ATOM     37  H   UNL     1       5.871  16.160  18.495  0.00  0.00    +0.000 HD
ATOM     38  H   UNL     1       5.068  15.215  17.353  0.00  0.00    +0.000 HD
ENDBRANCH  29  30
ENDBRANCH   6  28
TORSDOF 8
ENDMDL
MODEL 9
REMARK VINA RESULT:      -8.0      4.236      9.719
REMARK  Name = 
REMARK  9 active torsions:
REMARK  status: ('A' for Active; 'I' for Inactive)
REMARK    1  A    between atoms: C_1  and  C_2
REMARK    2  A    between atoms: C_2  and  C_3
REMARK    3  A    between atoms: C_7  and  C_8
REMARK    4  A    between atoms: C_11  and  C_12
REMARK    5  A    between atoms: N_14  and  C_15
REMARK    6  A    between atoms: C_15  and  C_16
REMARK    7  A    between atoms: C_16  and  N_17
REMARK    8  A    between atoms: C_26  and  C_27
REMARK    9  A    between atoms: C_28  and  C_29
REMARK                            x       y       z     vdW  Elec       q    Type
REMARK                         _______ _______ _______ _____ _____    ______ ____
ROOT
ATOM      1  C   UNL     1      -2.167  13.545  21.455  0.00  0.00    +0.000 A 
ATOM      2  N   UNL     1      -1.853  13.874  22.731  0.00  0.00    +0.000 NA
ATOM      3  C   UNL     1      -1.045  13.035  23.387  0.00  0.00    +0.000 A 
ATOM      4  N   UNL     1      -0.509  11.918  22.888  0.00  0.00    +0.000 NA
ATOM      5  C   UNL     1      -0.826  11.603  21.606  0.00  0.00    +0.000 A 
ATOM      6  C   UNL     1      -1.689  12.393  20.839  0.00  0.00    +0.000 A 
ENDROOT
BRANCH   5   7
ATOM      7  C   UNL     1      -0.250  10.313  21.156  0.00  0.00    +0.000 A 
ATOM      8  C   UNL     1      -0.393   9.123  21.879  0.00  0.00    +0.000 A 
ATOM      9  C   UNL     1       0.343   7.987  21.548  0.00  0.00    +0.000 A 
ATOM     10  C   UNL     1       1.192   7.972  20.430  0.00  0.00    +0.000 A 
ATOM     11  C   UNL     1       1.218   9.104  19.604  0.00  0.00    +0.000 A 
ATOM     12 CL   UNL     1       2.091   9.223  18.114  0.00  0.00    +0.000 Cl
ATOM     13  C   UNL     1       0.511  10.255  19.976  0.00  0.00    +0.000 A 
BRANCH  10  14
ATOM     14  C   UNL     1       2.025   6.742  20.285  0.00  0.00    +0.000 C 
ATOM     15  O   UNL     1       2.039   5.906  21.184  0.00  0.00    +0.000 OA
ATOM     16  N   UNL     1       2.780   6.602  19.148  0.00  0.00    +0.000 N 
ATOM     17  H   UNL     1       2.586   7.213  18.364  0.00  0.00    +0.000 HD
BRANCH  16  18
ATOM     18  C   UNL     1       3.523   5.387  18.896  0.00  0.00    +0.000 C 
BRANCH  18  19
ATOM     19  C   UNL     1       5.002   5.528  19.292  0.00  0.00    +0.000 C 
BRANCH  19  20
ATOM     20  N   UNL     1       5.923   4.902  18.329  0.00  0.00    +0.000 NA
ATOM     21  C   UNL     1       7.316   5.353  18.544  0.00  0.00    +0.000 C 
ATOM     22  C   UNL     1       7.596   6.787  18.055  0.00  0.00    +0.000 C 
ATOM     23  O   UNL     1       7.209   6.972  16.687  0.00  0.00    +0.000 OA
ATOM     24  C   UNL     1       5.835   6.621  16.489  0.00  0.00    +0.000 C 
ATOM     25  C   UNL     1       5.574   5.169  16.917  0.00  0.00    +0.000 C 
ENDBRANCH  19  20
ENDBRANCH  18  19
ENDBRANCH  16  18
ENDBRANCH  10  14
ENDBRANCH   5   7
BRANCH   1  27
ATOM     26  C   UNL     1      -4.473  14.417  21.141  0.00  0.00    +0.000 C 
ATOM     27  C   UNL     1      -3.017  14.555  20.725  0.00  0.00    +0.000 C 
ENDBRANCH   1  27
BRANCH   6  28
ATOM     28  C   UNL     1      -2.091  12.038  19.502  0.00  0.00    +0.000 C 
ATOM     29  C   UNL     1      -2.460  11.671  18.417  0.00  0.00    +0.000 C 
BRANCH  29  30
ATOM     30  C   UNL     1      -2.936  11.148  17.175  0.00  0.00    +0.000 A 
ATOM     31  C   UNL     1      -2.204  10.203  16.459  0.00  0.00    +0.000 A 
ATOM     32  C   UNL     1      -2.697   9.730  15.245  0.00  0.00    +0.000 A 
ATOM     33  C   UNL     1      -3.905  10.223  14.769  0.00  0.00    +0.000 A 
ATOM     34  N   UNL     1      -4.447   9.736  13.583  0.00  0.00    +0.000 N 
ATOM     35  N   UNL     1      -4.628  11.139  15.437  0.00  0.00    +0.000 NA
ATOM     36  C   UNL     1      -4.130  11.582  16.620  0.00  0.00    +0.000 A 
ATOM     37  H   UNL     1      -3.790   9.773  12.815  0.00  0.00    +0.000 HD
ATOM     38  H   UNL     1      -5.291  10.274  13.395  0.00  0.00    +0.000 HD
ENDBRANCH  29  30
ENDBRANCH   6  28
TORSDOF 8
ENDMDL
