MODEL 1
REMARK VINA RESULT:      -8.5      0.000      0.000
REMARK  Name = 
REMARK  8 active torsions:
REMARK  status: ('A' for Active; 'I' for Inactive)
REMARK    1  A    between atoms: C_2  and  C_3
REMARK    2  A    between atoms: C_3  and  O_4
REMARK    3  A    between atoms: O_4  and  C_5
REMARK    4  A    between atoms: C_5  and  C_7
REMARK    5  A    between atoms: N_14  and  C_15
REMARK    6  A    between atoms: C_17  and  S_18
REMARK    7  A    between atoms: S_18  and  N_21
REMARK    8  A    between atoms: C_29  and  N_30
REMARK                            x       y       z     vdW  Elec       q    Type
REMARK                         _______ _______ _______ _____ _____    ______ ____
ROOT
ATOM      1  C   UNL     1       1.228   8.789  20.124  0.00  0.00    +0.000 A 
ATOM      2  C   UNL     1       1.907   7.559  20.141  0.00  0.00    +0.000 A 
ATOM      3  C   UNL     1       2.624   7.116  19.037  0.00  0.00    +0.000 A 
ATOM      4  C   UNL     1       2.610   7.864  17.867  0.00  0.00    +0.000 A 
ATOM      5  C   UNL     1       1.931   9.093  17.838  0.00  0.00    +0.000 A 
ATOM      6  C   UNL     1       1.260   9.620  18.965  0.00  0.00    +0.000 A 
ENDROOT
BRANCH   6   7
ATOM      7  N   UNL     1       0.623  10.859  18.903  0.00  0.00    +0.000 N 
ATOM      8  C   UNL     1       1.338  12.098  18.585  0.00  0.00    +0.000 C 
ATOM      9  C   UNL     1       0.274  13.129  18.947  0.00  0.00    +0.000 C 
ATOM     10  C   UNL     1      -1.004  12.516  18.386  0.00  0.00    +0.000 C 
ATOM     11  C   UNL     1      -0.723  11.006  18.316  0.00  0.00    +0.000 C 
ENDBRANCH   6   7
BRANCH   1  14
ATOM     12  O   UNL     1       2.016   9.542  22.878  0.00  0.00    +0.000 OA
ATOM     13  C   UNL     1       0.846   9.474  22.503  0.00  0.00    +0.000 C 
ATOM     14  N   UNL     1       0.412   9.142  21.229  0.00  0.00    +0.000 N 
ATOM     15  H   UNL     1      -0.575   9.217  21.020  0.00  0.00    +0.000 HD
BRANCH  13  16
ATOM     16  C   UNL     1      -0.289   9.709  23.501  0.00  0.00    +0.000 C 
BRANCH  16  17
ATOM     17  O   UNL     1      -1.451  10.347  22.985  0.00  0.00    +0.000 OA
BRANCH  17  18
ATOM     18  C   UNL     1      -1.410  11.701  23.021  0.00  0.00    +0.000 C 
ATOM     19  O   UNL     1      -0.412  12.397  23.069  0.00  0.00    +0.000 OA
BRANCH  18  20
ATOM     20  C   UNL     1      -2.786  12.237  22.925  0.00  0.00    +0.000 A 
ATOM     21  C   UNL     1      -3.268  12.624  21.666  0.00  0.00    +0.000 A 
ATOM     22  C   UNL     1      -4.563  13.123  21.540  0.00  0.00    +0.000 A 
ATOM     23  C   UNL     1      -5.362  13.250  22.674  0.00  0.00    +0.000 A 
ATOM     24  F   UNL     1      -6.608  13.731  22.552  0.00  0.00    +0.000 F 
ATOM     25  C   UNL     1      -4.888  12.889  23.931  0.00  0.00    +0.000 A 
ATOM     26  C   UNL     1      -3.598  12.383  24.062  0.00  0.00    +0.000 A 
ENDBRANCH  18  20
ENDBRANCH  17  18
ENDBRANCH  16  17
ENDBRANCH  13  16
ENDBRANCH   1  14
BRANCH   3  27
ATOM     27  S   UNL     1       3.501   5.571  19.068  0.00  0.00    +0.000 S 
ATOM     28  O   UNL     1       4.892   5.897  18.809  0.00  0.00    +0.000 OA
ATOM     29  O   UNL     1       3.106   4.875  20.273  0.00  0.00    +0.000 OA
BRANCH  27  30
ATOM     30  N   UNL     1       2.915   4.691  17.740  0.00  0.00    +0.000 NA
ATOM     31  C   UNL     1       1.495   4.215  17.792  0.00  0.00    +0.000 C 
ATOM     32  C   UNL     1       1.380   2.834  18.451  0.00  0.00    +0.000 C 
ATOM     33  O   UNL     1       2.259   1.872  17.850  0.00  0.00    +0.000 OA
ATOM     34  C   UNL     1       3.624   2.312  17.915  0.00  0.00    +0.000 C 
ATOM     35  C   UNL     1       3.802   3.637  17.175  0.00  0.00    +0.000 C 
ENDBRANCH  27  30
ENDBRANCH   3  27
TORSDOF 8
ENDMDL
MODEL 2
REMARK VINA RESULT:      -8.5      1.113      1.170
REMARK  Name = 
REMARK  8 active torsions:
REMARK  status: ('A' for Active; 'I' for Inactive)
REMARK    1  A    between atoms: C_2  and  C_3
REMARK    2  A    between atoms: C_3  and  O_4
REMARK    3  A    between atoms: O_4  and  C_5
REMARK    4  A    between atoms: C_5  and  C_7
REMARK    5  A    between atoms: N_14  and  C_15
REMARK    6  A    between atoms: C_17  and  S_18
REMARK    7  A    between atoms: S_18  and  N_21
REMARK    8  A    between atoms: C_29  and  N_30
REMARK                            x       y       z     vdW  Elec       q    Type
REMARK                         _______ _______ _______ _____ _____    ______ ____
ROOT
ATOM      1  C   UNL     1       1.552   8.849  20.116  0.00  0.00    +0.000 A 
ATOM      2  C   UNL     1       2.179   7.599  19.980  0.00  0.00    +0.000 A 
ATOM      3  C   UNL     1       2.527   7.099  18.731  0.00  0.00    +0.000 A 
ATOM      4  C   UNL     1       2.182   7.810  17.589  0.00  0.00    +0.000 A 
ATOM      5  C   UNL     1       1.551   9.058  17.714  0.00  0.00    +0.000 A 
ATOM      6  C   UNL     1       1.256   9.642  18.968  0.00  0.00    +0.000 A 
ENDROOT
BRANCH   6   7
ATOM      7  N   UNL     1       0.655  10.897  19.049  0.00  0.00    +0.000 N 
ATOM      8  C   UNL     1       1.319  12.119  18.586  0.00  0.00    +0.000 C 
ATOM      9  C   UNL     1       0.387  13.175  19.174  0.00  0.00    +0.000 C 
ATOM     10  C   UNL     1      -0.999  12.601  18.901  0.00  0.00    +0.000 C 
ATOM     11  C   UNL     1      -0.781  11.085  18.768  0.00  0.00    +0.000 C 
ENDBRANCH   6   7
BRANCH   1  14
ATOM     12  O   UNL     1      -0.880   8.053  21.606  0.00  0.00    +0.000 OA
ATOM     13  C   UNL     1      -0.055   8.857  22.038  0.00  0.00    +0.000 C 
ATOM     14  N   UNL     1       1.107   9.261  21.398  0.00  0.00    +0.000 N 
ATOM     15  H   UNL     1       1.754   9.854  21.901  0.00  0.00    +0.000 HD
BRANCH  13  16
ATOM     16  C   UNL     1      -0.302   9.560  23.373  0.00  0.00    +0.000 C 
BRANCH  16  17
ATOM     17  O   UNL     1      -1.375  10.495  23.396  0.00  0.00    +0.000 OA
BRANCH  17  18
ATOM     18  C   UNL     1      -1.081  11.699  22.846  0.00  0.00    +0.000 C 
ATOM     19  O   UNL     1      -0.049  12.005  22.277  0.00  0.00    +0.000 OA
BRANCH  18  20
ATOM     20  C   UNL     1      -2.248  12.597  22.979  0.00  0.00    +0.000 A 
ATOM     21  C   UNL     1      -2.204  13.852  22.353  0.00  0.00    +0.000 A 
ATOM     22  C   UNL     1      -3.292  14.717  22.451  0.00  0.00    +0.000 A 
ATOM     23  C   UNL     1      -4.409  14.333  23.188  0.00  0.00    +0.000 A 
ATOM     24  F   UNL     1      -5.455  15.167  23.282  0.00  0.00    +0.000 F 
ATOM     25  C   UNL     1      -4.458  13.100  23.830  0.00  0.00    +0.000 A 
ATOM     26  C   UNL     1      -3.377  12.228  23.730  0.00  0.00    +0.000 A 
ENDBRANCH  18  20
ENDBRANCH  17  18
ENDBRANCH  16  17
ENDBRANCH  13  16
ENDBRANCH   1  14
BRANCH   3  27
ATOM     27  S   UNL     1       3.342   5.528  18.562  0.00  0.00    +0.000 S 
ATOM     28  O   UNL     1       4.171   5.636  17.375  0.00  0.00    +0.000 OA
ATOM     29  O   UNL     1       3.914   5.199  19.849  0.00  0.00    +0.000 OA
BRANCH  27  30
ATOM     30  N   UNL     1       2.106   4.411  18.237  0.00  0.00    +0.000 NA
ATOM     31  C   UNL     1       1.266   3.948  19.387  0.00  0.00    +0.000 C 
ATOM     32  C   UNL     1       1.869   2.717  20.076  0.00  0.00    +0.000 C 
ATOM     33  O   UNL     1       2.155   1.661  19.146  0.00  0.00    +0.000 OA
ATOM     34  C   UNL     1       3.050   2.111  18.118  0.00  0.00    +0.000 C 
ATOM     35  C   UNL     1       2.436   3.272  17.336  0.00  0.00    +0.000 C 
ENDBRANCH  27  30
ENDBRANCH   3  27
TORSDOF 8
ENDMDL
MODEL 3
REMARK VINA RESULT:      -8.4      1.266      1.634
REMARK  Name = 
REMARK  8 active torsions:
REMARK  status: ('A' for Active; 'I' for Inactive)
REMARK    1  A    between atoms: C_2  and  C_3
REMARK    2  A    between atoms: C_3  and  O_4
REMARK    3  A    between atoms: O_4  and  C_5
REMARK    4  A    between atoms: C_5  and  C_7
REMARK    5  A    between atoms: N_14  and  C_15
REMARK    6  A    between atoms: C_17  and  S_18
REMARK    7  A    between atoms: S_18  and  N_21
REMARK    8  A    between atoms: C_29  and  N_30
REMARK                            x       y       z     vdW  Elec       q    Type
REMARK                         _______ _______ _______ _____ _____    ______ ____
ROOT
ATOM      1  C   UNL     1       1.316   8.701  19.948  0.00  0.00    +0.000 A 
ATOM      2  C   UNL     1       1.964   7.457  20.040  0.00  0.00    +0.000 A 
ATOM      3  C   UNL     1       2.752   6.977  19.003  0.00  0.00    +0.000 A 
ATOM      4  C   UNL     1       2.844   7.701  17.821  0.00  0.00    +0.000 A 
ATOM      5  C   UNL     1       2.197   8.942  17.717  0.00  0.00    +0.000 A 
ATOM      6  C   UNL     1       1.454   9.507  18.779  0.00  0.00    +0.000 A 
ENDROOT
BRANCH   6   7
ATOM      7  N   UNL     1       0.851  10.757  18.646  0.00  0.00    +0.000 N 
ATOM      8  C   UNL     1      -0.596  10.918  18.479  0.00  0.00    +0.000 C 
ATOM      9  C   UNL     1      -0.663  12.391  18.085  0.00  0.00    +0.000 C 
ATOM     10  C   UNL     1       0.333  13.046  19.035  0.00  0.00    +0.000 C 
ATOM     11  C   UNL     1       1.299  11.919  19.435  0.00  0.00    +0.000 C 
ENDBRANCH   6   7
BRANCH   1  14
ATOM     12  O   UNL     1       1.906   9.471  22.746  0.00  0.00    +0.000 OA
ATOM     13  C   UNL     1       0.767   9.432  22.281  0.00  0.00    +0.000 C 
ATOM     14  N   UNL     1       0.426   9.093  20.980  0.00  0.00    +0.000 N 
ATOM     15  H   UNL     1      -0.539   9.194  20.693  0.00  0.00    +0.000 HD
BRANCH  13  16
ATOM     16  C   UNL     1      -0.435   9.713  23.182  0.00  0.00    +0.000 C 
BRANCH  16  17
ATOM     17  O   UNL     1      -0.643  11.076  23.537  0.00  0.00    +0.000 OA
BRANCH  17  18
ATOM     18  C   UNL     1      -1.402  11.774  22.658  0.00  0.00    +0.000 C 
ATOM     19  O   UNL     1      -1.587  11.506  21.484  0.00  0.00    +0.000 OA
BRANCH  18  20
ATOM     20  C   UNL     1      -2.048  12.906  23.358  0.00  0.00    +0.000 A 
ATOM     21  C   UNL     1      -3.402  12.793  23.707  0.00  0.00    +0.000 A 
ATOM     22  C   UNL     1      -4.038  13.838  24.376  0.00  0.00    +0.000 A 
ATOM     23  C   UNL     1      -3.323  14.995  24.676  0.00  0.00    +0.000 A 
ATOM     24  F   UNL     1      -3.935  16.000  25.319  0.00  0.00    +0.000 F 
ATOM     25  C   UNL     1      -1.985  15.127  24.318  0.00  0.00    +0.000 A 
ATOM     26  C   UNL     1      -1.343  14.084  23.656  0.00  0.00    +0.000 A 
ENDBRANCH  18  20
ENDBRANCH  17  18
ENDBRANCH  16  17
ENDBRANCH  13  16
ENDBRANCH   1  14
BRANCH   3  27
ATOM     27  S   UNL     1       3.590   5.414  19.130  0.00  0.00    +0.000 S 
ATOM     28  O   UNL     1       4.997   5.697  18.910  0.00  0.00    +0.000 OA
ATOM     29  O   UNL     1       3.135   4.780  20.348  0.00  0.00    +0.000 OA
BRANCH  27  30
ATOM     30  N   UNL     1       3.031   4.493  17.819  0.00  0.00    +0.000 NA
ATOM     31  C   UNL     1       1.571   4.158  17.776  0.00  0.00    +0.000 C 
ATOM     32  C   UNL     1       1.264   2.849  18.516  0.00  0.00    +0.000 C 
ATOM     33  O   UNL     1       2.090   1.764  18.064  0.00  0.00    +0.000 OA
ATOM     34  C   UNL     1       3.482   2.079  18.221  0.00  0.00    +0.000 C 
ATOM     35  C   UNL     1       3.851   3.320  17.410  0.00  0.00    +0.000 C 
ENDBRANCH  27  30
ENDBRANCH   3  27
TORSDOF 8
ENDMDL
MODEL 4
REMARK VINA RESULT:      -8.3      0.831      1.457
REMARK  Name = 
REMARK  8 active torsions:
REMARK  status: ('A' for Active; 'I' for Inactive)
REMARK    1  A    between atoms: C_2  and  C_3
REMARK    2  A    between atoms: C_3  and  O_4
REMARK    3  A    between atoms: O_4  and  C_5
REMARK    4  A    between atoms: C_5  and  C_7
REMARK    5  A    between atoms: N_14  and  C_15
REMARK    6  A    between atoms: C_17  and  S_18
REMARK    7  A    between atoms: S_18  and  N_21
REMARK    8  A    between atoms: C_29  and  N_30
REMARK                            x       y       z     vdW  Elec       q    Type
REMARK                         _______ _______ _______ _____ _____    ______ ____
ROOT
ATOM      1  C   UNL     1       1.261   8.927  19.998  0.00  0.00    +0.000 A 
ATOM      2  C   UNL     1       1.875   7.665  19.914  0.00  0.00    +0.000 A 
ATOM      3  C   UNL     1       2.575   7.278  18.779  0.00  0.00    +0.000 A 
ATOM      4  C   UNL     1       2.607   8.119  17.674  0.00  0.00    +0.000 A 
ATOM      5  C   UNL     1       1.994   9.380  17.745  0.00  0.00    +0.000 A 
ATOM      6  C   UNL     1       1.344   9.848  18.911  0.00  0.00    +0.000 A 
ENDROOT
BRANCH   6   7
ATOM      7  N   UNL     1       0.773  11.119  18.951  0.00  0.00    +0.000 N 
ATOM      8  C   UNL     1      -0.678  11.329  18.966  0.00  0.00    +0.000 C 
ATOM      9  C   UNL     1      -0.739  12.831  18.705  0.00  0.00    +0.000 C 
ATOM     10  C   UNL     1       0.380  13.379  19.583  0.00  0.00    +0.000 C 
ATOM     11  C   UNL     1       1.346  12.198  19.775  0.00  0.00    +0.000 C 
ENDBRANCH   6   7
BRANCH   1  14
ATOM     12  O   UNL     1       2.079   9.549  22.774  0.00  0.00    +0.000 OA
ATOM     13  C   UNL     1       0.905   9.501  22.410  0.00  0.00    +0.000 C 
ATOM     14  N   UNL     1       0.457   9.230  21.126  0.00  0.00    +0.000 N 
ATOM     15  H   UNL     1      -0.532   9.316  20.931  0.00  0.00    +0.000 HD
BRANCH  13  16
ATOM     16  C   UNL     1      -0.218   9.692  23.429  0.00  0.00    +0.000 C 
BRANCH  16  17
ATOM     17  O   UNL     1      -1.395  10.332  22.948  0.00  0.00    +0.000 OA
BRANCH  17  18
ATOM     18  C   UNL     1      -1.330  11.685  22.932  0.00  0.00    +0.000 C 
ATOM     19  O   UNL     1      -0.320  12.365  22.963  0.00  0.00    +0.000 OA
BRANCH  18  20
ATOM     20  C   UNL     1      -2.695  12.241  22.800  0.00  0.00    +0.000 A 
ATOM     21  C   UNL     1      -3.485  12.358  23.954  0.00  0.00    +0.000 A 
ATOM     22  C   UNL     1      -4.772  12.887  23.865  0.00  0.00    +0.000 A 
ATOM     23  C   UNL     1      -5.268  13.277  22.624  0.00  0.00    +0.000 A 
ATOM     24  F   UNL     1      -6.507  13.784  22.539  0.00  0.00    +0.000 F 
ATOM     25  C   UNL     1      -4.503  13.147  21.469  0.00  0.00    +0.000 A 
ATOM     26  C   UNL     1      -3.214  12.626  21.553  0.00  0.00    +0.000 A 
ENDBRANCH  18  20
ENDBRANCH  17  18
ENDBRANCH  16  17
ENDBRANCH  13  16
ENDBRANCH   1  14
BRANCH   3  27
ATOM     27  S   UNL     1       3.370   5.691  18.684  0.00  0.00    +0.000 S 
ATOM     28  O   UNL     1       3.718   5.503  17.287  0.00  0.00    +0.000 OA
ATOM     29  O   UNL     1       4.379   5.652  19.719  0.00  0.00    +0.000 OA
BRANCH  27  30
ATOM     30  N   UNL     1       2.170   4.559  19.080  0.00  0.00    +0.000 NA
ATOM     31  C   UNL     1       2.390   3.705  20.292  0.00  0.00    +0.000 C 
ATOM     32  C   UNL     1       3.153   2.418  19.952  0.00  0.00    +0.000 C 
ATOM     33  O   UNL     1       2.540   1.693  18.874  0.00  0.00    +0.000 OA
ATOM     34  C   UNL     1       2.443   2.508  17.697  0.00  0.00    +0.000 C 
ATOM     35  C   UNL     1       1.598   3.752  17.967  0.00  0.00    +0.000 C 
ENDBRANCH  27  30
ENDBRANCH   3  27
TORSDOF 8
ENDMDL
MODEL 5
REMARK VINA RESULT:      -8.2      1.360      1.782
REMARK  Name = 
REMARK  8 active torsions:
REMARK  status: ('A' for Active; 'I' for Inactive)
REMARK    1  A    between atoms: C_2  and  C_3
REMARK    2  A    between atoms: C_3  and  O_4
REMARK    3  A    between atoms: O_4  and  C_5
REMARK    4  A    between atoms: C_5  and  C_7
REMARK    5  A    between atoms: N_14  and  C_15
REMARK    6  A    between atoms: C_17  and  S_18
REMARK    7  A    between atoms: S_18  and  N_21
REMARK    8  A    between atoms: C_29  and  N_30
REMARK                            x       y       z     vdW  Elec       q    Type
REMARK                         _______ _______ _______ _____ _____    ______ ____
ROOT
ATOM      1  C   UNL     1       1.623   8.663  20.252  0.00  0.00    +0.000 A 
ATOM      2  C   UNL     1       2.297   7.430  20.231  0.00  0.00    +0.000 A 
ATOM      3  C   UNL     1       2.714   6.857  19.036  0.00  0.00    +0.000 A 
ATOM      4  C   UNL     1       2.393   7.472  17.833  0.00  0.00    +0.000 A 
ATOM      5  C   UNL     1       1.715   8.702  17.843  0.00  0.00    +0.000 A 
ATOM      6  C   UNL     1       1.348   9.361  19.039  0.00  0.00    +0.000 A 
ENDROOT
BRANCH   6   7
ATOM      7  N   UNL     1       0.702  10.596  19.006  0.00  0.00    +0.000 N 
ATOM      8  C   UNL     1       1.387  11.833  18.621  0.00  0.00    +0.000 C 
ATOM      9  C   UNL     1       0.346  12.865  19.044  0.00  0.00    +0.000 C 
ATOM     10  C   UNL     1      -0.966  12.240  18.582  0.00  0.00    +0.000 C 
ATOM     11  C   UNL     1      -0.682  10.730  18.513  0.00  0.00    +0.000 C 
ENDBRANCH   6   7
BRANCH   1  14
ATOM     12  O   UNL     1      -0.953   8.060  21.582  0.00  0.00    +0.000 OA
ATOM     13  C   UNL     1      -0.116   8.834  22.047  0.00  0.00    +0.000 C 
ATOM     14  N   UNL     1       1.111   9.148  21.482  0.00  0.00    +0.000 N 
ATOM     15  H   UNL     1       1.753   9.723  22.012  0.00  0.00    +0.000 HD
BRANCH  13  16
ATOM     16  C   UNL     1      -0.418   9.599  23.335  0.00  0.00    +0.000 C 
BRANCH  16  17
ATOM     17  O   UNL     1      -1.477  10.547  23.264  0.00  0.00    +0.000 OA
BRANCH  17  18
ATOM     18  C   UNL     1      -1.099  11.780  22.847  0.00  0.00    +0.000 C 
ATOM     19  O   UNL     1      -0.083  12.061  22.237  0.00  0.00    +0.000 OA
BRANCH  18  20
ATOM     20  C   UNL     1      -2.155  12.759  23.188  0.00  0.00    +0.000 A 
ATOM     21  C   UNL     1      -3.348  12.288  23.754  0.00  0.00    +0.000 A 
ATOM     22  C   UNL     1      -4.358  13.186  24.096  0.00  0.00    +0.000 A 
ATOM     23  C   UNL     1      -4.178  14.545  23.854  0.00  0.00    +0.000 A 
ATOM     24  F   UNL     1      -5.150  15.408  24.183  0.00  0.00    +0.000 F 
ATOM     25  C   UNL     1      -3.007  15.023  23.275  0.00  0.00    +0.000 A 
ATOM     26  C   UNL     1      -1.991  14.132  22.938  0.00  0.00    +0.000 A 
ENDBRANCH  18  20
ENDBRANCH  17  18
ENDBRANCH  16  17
ENDBRANCH  13  16
ENDBRANCH   1  14
BRANCH   3  27
ATOM     27  S   UNL     1       3.588   5.309  19.012  0.00  0.00    +0.000 S 
ATOM     28  O   UNL     1       3.526   4.837  17.641  0.00  0.00    +0.000 OA
ATOM     29  O   UNL     1       4.856   5.521  19.675  0.00  0.00    +0.000 OA
BRANCH  27  30
ATOM     30  N   UNL     1       2.666   4.255  19.971  0.00  0.00    +0.000 NA
ATOM     31  C   UNL     1       3.261   2.922  20.311  0.00  0.00    +0.000 C 
ATOM     32  C   UNL     1       2.932   1.862  19.251  0.00  0.00    +0.000 C 
ATOM     33  O   UNL     1       1.523   1.782  18.985  0.00  0.00    +0.000 OA
ATOM     34  C   UNL     1       1.007   3.051  18.557  0.00  0.00    +0.000 C 
ATOM     35  C   UNL     1       1.222   4.114  19.635  0.00  0.00    +0.000 C 
ENDBRANCH  27  30
ENDBRANCH   3  27
TORSDOF 8
ENDMDL
MODEL 6
REMARK VINA RESULT:      -8.1      1.197      1.639
REMARK  Name = 
REMARK  8 active torsions:
REMARK  status: ('A' for Active; 'I' for Inactive)
REMARK    1  A    between atoms: C_2  and  C_3
REMARK    2  A    between atoms: C_3  and  O_4
REMARK    3  A    between atoms: O_4  and  C_5
REMARK    4  A    between atoms: C_5  and  C_7
REMARK    5  A    between atoms: N_14  and  C_15
REMARK    6  A    between atoms: C_17  and  S_18
REMARK    7  A    between atoms: S_18  and  N_21
REMARK    8  A    between atoms: C_29  and  N_30
REMARK                            x       y       z     vdW  Elec       q    Type
REMARK                         _______ _______ _______ _____ _____    ______ ____
ROOT
ATOM      1  C   UNL     1       1.540   8.813  20.127  0.00  0.00    +0.000 A 
ATOM      2  C   UNL     1       2.206   7.576  20.091  0.00  0.00    +0.000 A 
ATOM      3  C   UNL     1       2.581   6.995  18.887  0.00  0.00    +0.000 A 
ATOM      4  C   UNL     1       2.225   7.605  17.692  0.00  0.00    +0.000 A 
ATOM      5  C   UNL     1       1.554   8.838  17.716  0.00  0.00    +0.000 A 
ATOM      6  C   UNL     1       1.230   9.506  18.920  0.00  0.00    +0.000 A 
ENDROOT
BRANCH   6   7
ATOM      7  N   UNL     1       0.589  10.744  18.901  0.00  0.00    +0.000 N 
ATOM      8  C   UNL     1      -0.826  10.904  19.248  0.00  0.00    +0.000 C 
ATOM      9  C   UNL     1      -1.063  12.335  18.777  0.00  0.00    +0.000 C 
ATOM     10  C   UNL     1       0.191  13.065  19.246  0.00  0.00    +0.000 C 
ATOM     11  C   UNL     1       1.262  11.969  19.373  0.00  0.00    +0.000 C 
ENDBRANCH   6   7
BRANCH   1  14
ATOM     12  O   UNL     1      -0.810   7.968  21.718  0.00  0.00    +0.000 OA
ATOM     13  C   UNL     1      -0.051   8.874  22.062  0.00  0.00    +0.000 C 
ATOM     14  N   UNL     1       1.071   9.307  21.371  0.00  0.00    +0.000 N 
ATOM     15  H   UNL     1       1.670   9.996  21.807  0.00  0.00    +0.000 HD
BRANCH  13  16
ATOM     16  C   UNL     1      -0.346   9.677  23.328  0.00  0.00    +0.000 C 
BRANCH  16  17
ATOM     17  O   UNL     1      -1.480  10.536  23.272  0.00  0.00    +0.000 OA
BRANCH  17  18
ATOM     18  C   UNL     1      -1.201  11.809  22.901  0.00  0.00    +0.000 C 
ATOM     19  O   UNL     1      -0.111  12.253  22.587  0.00  0.00    +0.000 OA
BRANCH  18  20
ATOM     20  C   UNL     1      -2.454  12.596  22.865  0.00  0.00    +0.000 A 
ATOM     21  C   UNL     1      -2.583  13.606  21.901  0.00  0.00    +0.000 A 
ATOM     22  C   UNL     1      -3.755  14.358  21.835  0.00  0.00    +0.000 A 
ATOM     23  C   UNL     1      -4.782  14.109  22.742  0.00  0.00    +0.000 A 
ATOM     24  F   UNL     1      -5.908  14.834  22.678  0.00  0.00    +0.000 F 
ATOM     25  C   UNL     1      -4.658  13.123  23.715  0.00  0.00    +0.000 A 
ATOM     26  C   UNL     1      -3.493  12.364  23.782  0.00  0.00    +0.000 A 
ENDBRANCH  18  20
ENDBRANCH  17  18
ENDBRANCH  16  17
ENDBRANCH  13  16
ENDBRANCH   1  14
BRANCH   3  27
ATOM     27  S   UNL     1       3.445   5.442  18.843  0.00  0.00    +0.000 S 
ATOM     28  O   UNL     1       3.287   4.935  17.492  0.00  0.00    +0.000 OA
ATOM     29  O   UNL     1       4.757   5.663  19.412  0.00  0.00    +0.000 OA
BRANCH  27  30
ATOM     30  N   UNL     1       2.587   4.417  19.890  0.00  0.00    +0.000 NA
ATOM     31  C   UNL     1       3.274   3.174  20.366  0.00  0.00    +0.000 C 
ATOM     32  C   UNL     1       3.045   1.994  19.411  0.00  0.00    +0.000 C 
ATOM     33  O   UNL     1       1.651   1.780  19.139  0.00  0.00    +0.000 OA
ATOM     34  C   UNL     1       1.051   2.959  18.582  0.00  0.00    +0.000 C 
ATOM     35  C   UNL     1       1.164   4.135  19.553  0.00  0.00    +0.000 C 
ENDBRANCH  27  30
ENDBRANCH   3  27
TORSDOF 8
ENDMDL
MODEL 7
REMARK VINA RESULT:      -8.1      1.173      1.464
REMARK  Name = 
REMARK  8 active torsions:
REMARK  status: ('A' for Active; 'I' for Inactive)
REMARK    1  A    between atoms: C_2  and  C_3
REMARK    2  A    between atoms: C_3  and  O_4
REMARK    3  A    between atoms: O_4  and  C_5
REMARK    4  A    between atoms: C_5  and  C_7
REMARK    5  A    between atoms: N_14  and  C_15
REMARK    6  A    between atoms: C_17  and  S_18
REMARK    7  A    between atoms: S_18  and  N_21
REMARK    8  A    between atoms: C_29  and  N_30
REMARK                            x       y       z     vdW  Elec       q    Type
REMARK                         _______ _______ _______ _____ _____    ______ ____
ROOT
ATOM      1  C   UNL     1       1.436   8.991  20.066  0.00  0.00    +0.000 A 
ATOM      2  C   UNL     1       2.099   7.753  20.039  0.00  0.00    +0.000 A 
ATOM      3  C   UNL     1       2.462   7.155  18.839  0.00  0.00    +0.000 A 
ATOM      4  C   UNL     1       2.097   7.752  17.639  0.00  0.00    +0.000 A 
ATOM      5  C   UNL     1       1.431   8.988  17.655  0.00  0.00    +0.000 A 
ATOM      6  C   UNL     1       1.118   9.671  18.853  0.00  0.00    +0.000 A 
ENDROOT
BRANCH   6   7
ATOM      7  N   UNL     1       0.481  10.911  18.824  0.00  0.00    +0.000 N 
ATOM      8  C   UNL     1      -0.911  11.090  19.247  0.00  0.00    +0.000 C 
ATOM      9  C   UNL     1      -1.172  12.504  18.736  0.00  0.00    +0.000 C 
ATOM     10  C   UNL     1       0.110  13.244  19.104  0.00  0.00    +0.000 C 
ATOM     11  C   UNL     1       1.184  12.149  19.210  0.00  0.00    +0.000 C 
ENDBRANCH   6   7
BRANCH   1  14
ATOM     12  O   UNL     1      -0.824   8.088  21.751  0.00  0.00    +0.000 OA
ATOM     13  C   UNL     1      -0.100   9.038  22.044  0.00  0.00    +0.000 C 
ATOM     14  N   UNL     1       0.980   9.502  21.307  0.00  0.00    +0.000 N 
ATOM     15  H   UNL     1       1.557  10.232  21.705  0.00  0.00    +0.000 HD
BRANCH  13  16
ATOM     16  C   UNL     1      -0.398   9.867  23.294  0.00  0.00    +0.000 C 
BRANCH  16  17
ATOM     17  O   UNL     1      -1.487  10.777  23.194  0.00  0.00    +0.000 OA
BRANCH  17  18
ATOM     18  C   UNL     1      -1.127  12.053  22.914  0.00  0.00    +0.000 C 
ATOM     19  O   UNL     1      -0.085  12.419  22.401  0.00  0.00    +0.000 OA
BRANCH  18  20
ATOM     20  C   UNL     1      -2.238  12.965  23.267  0.00  0.00    +0.000 A 
ATOM     21  C   UNL     1      -3.548  12.584  22.941  0.00  0.00    +0.000 A 
ATOM     22  C   UNL     1      -4.617  13.416  23.269  0.00  0.00    +0.000 A 
ATOM     23  C   UNL     1      -4.370  14.631  23.903  0.00  0.00    +0.000 A 
ATOM     24  F   UNL     1      -5.399  15.431  24.217  0.00  0.00    +0.000 F 
ATOM     25  C   UNL     1      -3.074  15.030  24.213  0.00  0.00    +0.000 A 
ATOM     26  C   UNL     1      -2.003  14.200  23.894  0.00  0.00    +0.000 A 
ENDBRANCH  18  20
ENDBRANCH  17  18
ENDBRANCH  16  17
ENDBRANCH  13  16
ENDBRANCH   1  14
BRANCH   3  27
ATOM     27  S   UNL     1       3.322   5.599  18.807  0.00  0.00    +0.000 S 
ATOM     28  O   UNL     1       4.367   5.743  17.810  0.00  0.00    +0.000 OA
ATOM     29  O   UNL     1       3.633   5.252  20.176  0.00  0.00    +0.000 OA
BRANCH  27  30
ATOM     30  N   UNL     1       2.195   4.472  18.224  0.00  0.00    +0.000 NA
ATOM     31  C   UNL     1       1.259   3.847  19.213  0.00  0.00    +0.000 C 
ATOM     32  C   UNL     1       1.852   2.573  19.833  0.00  0.00    +0.000 C 
ATOM     33  O   UNL     1       2.297   1.642  18.835  0.00  0.00    +0.000 OA
ATOM     34  C   UNL     1       3.274   2.243  17.971  0.00  0.00    +0.000 C 
ATOM     35  C   UNL     1       2.686   3.457  17.251  0.00  0.00    +0.000 C 
ENDBRANCH  27  30
ENDBRANCH   3  27
TORSDOF 8
ENDMDL
MODEL 8
REMARK VINA RESULT:      -8.1      0.890      1.355
REMARK  Name = 
REMARK  8 active torsions:
REMARK  status: ('A' for Active; 'I' for Inactive)
REMARK    1  A    between atoms: C_2  and  C_3
REMARK    2  A    between atoms: C_3  and  O_4
REMARK    3  A    between atoms: O_4  and  C_5
REMARK    4  A    between atoms: C_5  and  C_7
REMARK    5  A    between atoms: N_14  and  C_15
REMARK    6  A    between atoms: C_17  and  S_18
REMARK    7  A    between atoms: S_18  and  N_21
REMARK    8  A    between atoms: C_29  and  N_30
REMARK                            x       y       z     vdW  Elec       q    Type
REMARK                         _______ _______ _______ _____ _____    ______ ____
ROOT
ATOM      1  C   UNL     1       1.429   8.994  20.217  0.00  0.00    +0.000 A 
ATOM      2  C   UNL     1       2.089   7.754  20.246  0.00  0.00    +0.000 A 
ATOM      3  C   UNL     1       2.501   7.129  19.077  0.00  0.00    +0.000 A 
ATOM      4  C   UNL     1       2.189   7.699  17.849  0.00  0.00    +0.000 A 
ATOM      5  C   UNL     1       1.526   8.935  17.808  0.00  0.00    +0.000 A 
ATOM      6  C   UNL     1       1.165   9.646  18.976  0.00  0.00    +0.000 A 
ENDROOT
BRANCH   6   7
ATOM      7  N   UNL     1       0.533  10.886  18.892  0.00  0.00    +0.000 N 
ATOM      8  C   UNL     1      -0.905  11.054  19.125  0.00  0.00    +0.000 C 
ATOM      9  C   UNL     1      -1.098  12.481  18.619  0.00  0.00    +0.000 C 
ATOM     10  C   UNL     1       0.117  13.212  19.178  0.00  0.00    +0.000 C 
ATOM     11  C   UNL     1       1.171  12.115  19.402  0.00  0.00    +0.000 C 
ENDBRANCH   6   7
BRANCH   1  14
ATOM     12  O   UNL     1      -0.864   8.092  21.859  0.00  0.00    +0.000 OA
ATOM     13  C   UNL     1      -0.171   9.069  22.143  0.00  0.00    +0.000 C 
ATOM     14  N   UNL     1       0.921   9.534  21.426  0.00  0.00    +0.000 N 
ATOM     15  H   UNL     1       1.469  10.289  21.816  0.00  0.00    +0.000 HD
BRANCH  13  16
ATOM     16  C   UNL     1      -0.527   9.930  23.355  0.00  0.00    +0.000 C 
BRANCH  16  17
ATOM     17  O   UNL     1      -1.640  10.803  23.195  0.00  0.00    +0.000 OA
BRANCH  17  18
ATOM     18  C   UNL     1      -1.312  12.073  22.854  0.00  0.00    +0.000 C 
ATOM     19  O   UNL     1      -0.193  12.500  22.634  0.00  0.00    +0.000 OA
BRANCH  18  20
ATOM     20  C   UNL     1      -2.545  12.878  22.716  0.00  0.00    +0.000 A 
ATOM     21  C   UNL     1      -2.928  13.705  23.782  0.00  0.00    +0.000 A 
ATOM     22  C   UNL     1      -4.080  14.484  23.680  0.00  0.00    +0.000 A 
ATOM     23  C   UNL     1      -4.850  14.419  22.522  0.00  0.00    +0.000 A 
ATOM     24  F   UNL     1      -5.959  15.168  22.425  0.00  0.00    +0.000 F 
ATOM     25  C   UNL     1      -4.493  13.587  21.466  0.00  0.00    +0.000 A 
ATOM     26  C   UNL     1      -3.340  12.812  21.559  0.00  0.00    +0.000 A 
ENDBRANCH  18  20
ENDBRANCH  17  18
ENDBRANCH  16  17
ENDBRANCH  13  16
ENDBRANCH   1  14
BRANCH   3  27
ATOM     27  S   UNL     1       3.357   5.571  19.117  0.00  0.00    +0.000 S 
ATOM     28  O   UNL     1       4.757   5.880  18.893  0.00  0.00    +0.000 OA
ATOM     29  O   UNL     1       2.924   4.873  20.307  0.00  0.00    +0.000 OA
BRANCH  27  30
ATOM     30  N   UNL     1       2.789   4.709  17.769  0.00  0.00    +0.000 NA
ATOM     31  C   UNL     1       1.423   4.100  17.856  0.00  0.00    +0.000 C 
ATOM     32  C   UNL     1       1.466   2.682  18.444  0.00  0.00    +0.000 C 
ATOM     33  O   UNL     1       2.400   1.838  17.753  0.00  0.00    +0.000 OA
ATOM     34  C   UNL     1       3.720   2.400  17.783  0.00  0.00    +0.000 C 
ATOM     35  C   UNL     1       3.740   3.772  17.109  0.00  0.00    +0.000 C 
ENDBRANCH  27  30
ENDBRANCH   3  27
TORSDOF 8
ENDMDL
MODEL 9
REMARK VINA RESULT:      -8.1      1.822      2.249
REMARK  Name = 
REMARK  8 active torsions:
REMARK  status: ('A' for Active; 'I' for Inactive)
REMARK    1  A    between atoms: C_2  and  C_3
REMARK    2  A    between atoms: C_3  and  O_4
REMARK    3  A    between atoms: O_4  and  C_5
REMARK    4  A    between atoms: C_5  and  C_7
REMARK    5  A    between atoms: N_14  and  C_15
REMARK    6  A    between atoms: C_17  and  S_18
REMARK    7  A    between atoms: S_18  and  N_21
REMARK    8  A    between atoms: C_29  and  N_30
REMARK                            x       y       z     vdW  Elec       q    Type
REMARK                         _______ _______ _______ _____ _____    ______ ____
ROOT
ATOM      1  C   UNL     1       1.494   8.954  20.058  0.00  0.00    +0.000 A 
ATOM      2  C   UNL     1       2.223   7.761  19.913  0.00  0.00    +0.000 A 
ATOM      3  C   UNL     1       2.589   7.288  18.660  0.00  0.00    +0.000 A 
ATOM      4  C   UNL     1       2.164   7.961  17.523  0.00  0.00    +0.000 A 
ATOM      5  C   UNL     1       1.431   9.151  17.656  0.00  0.00    +0.000 A 
ATOM      6  C   UNL     1       1.110   9.713  18.913  0.00  0.00    +0.000 A 
ENDROOT
BRANCH   6   7
ATOM      7  N   UNL     1       0.405  10.913  19.002  0.00  0.00    +0.000 N 
ATOM      8  C   UNL     1       0.967  12.191  18.556  0.00  0.00    +0.000 C 
ATOM      9  C   UNL     1      -0.054  13.159  19.147  0.00  0.00    +0.000 C 
ATOM     10  C   UNL     1      -1.385  12.474  18.857  0.00  0.00    +0.000 C 
ATOM     11  C   UNL     1      -1.039  10.983  18.711  0.00  0.00    +0.000 C 
ENDBRANCH   6   7
BRANCH   1  14
ATOM     12  O   UNL     1      -0.864   7.998  21.573  0.00  0.00    +0.000 OA
ATOM     13  C   UNL     1      -0.087   8.852  21.998  0.00  0.00    +0.000 C 
ATOM     14  N   UNL     1       1.039   9.332  21.346  0.00  0.00    +0.000 N 
ATOM     15  H   UNL     1       1.652   9.964  21.844  0.00  0.00    +0.000 HD
BRANCH  13  16
ATOM     16  C   UNL     1      -0.362   9.533  23.339  0.00  0.00    +0.000 C 
BRANCH  16  17
ATOM     17  O   UNL     1      -1.412  10.494  23.347  0.00  0.00    +0.000 OA
BRANCH  17  18
ATOM     18  C   UNL     1      -1.044  11.730  22.932  0.00  0.00    +0.000 C 
ATOM     19  O   UNL     1      -0.052  12.014  22.284  0.00  0.00    +0.000 OA
BRANCH  18  20
ATOM     20  C   UNL     1      -2.079  12.710  23.329  0.00  0.00    +0.000 A 
ATOM     21  C   UNL     1      -1.725  14.065  23.405  0.00  0.00    +0.000 A 
ATOM     22  C   UNL     1      -2.680  15.015  23.767  0.00  0.00    +0.000 A 
ATOM     23  C   UNL     1      -3.975  14.603  24.068  0.00  0.00    +0.000 A 
ATOM     24  F   UNL     1      -4.893  15.517  24.416  0.00  0.00    +0.000 F 
ATOM     25  C   UNL     1      -4.334  13.260  24.016  0.00  0.00    +0.000 A 
ATOM     26  C   UNL     1      -3.387  12.308  23.648  0.00  0.00    +0.000 A 
ENDBRANCH  18  20
ENDBRANCH  17  18
ENDBRANCH  16  17
ENDBRANCH  13  16
ENDBRANCH   1  14
BRANCH   3  27
ATOM     27  S   UNL     1       3.532   5.791  18.480  0.00  0.00    +0.000 S 
ATOM     28  O   UNL     1       3.870   5.368  19.827  0.00  0.00    +0.000 OA
ATOM     29  O   UNL     1       2.798   4.925  17.584  0.00  0.00    +0.000 OA
BRANCH  27  30
ATOM     30  N   UNL     1       4.968   6.253  17.702  0.00  0.00    +0.000 NA
ATOM     31  C   UNL     1       5.037   6.091  16.214  0.00  0.00    +0.000 C 
ATOM     32  C   UNL     1       5.551   4.701  15.814  0.00  0.00    +0.000 C 
ATOM     33  O   UNL     1       6.792   4.376  16.460  0.00  0.00    +0.000 OA
ATOM     34  C   UNL     1       6.659   4.436  17.888  0.00  0.00    +0.000 C 
ATOM     35  C   UNL     1       6.251   5.839  18.335  0.00  0.00    +0.000 C 
ENDBRANCH  27  30
ENDBRANCH   3  27
TORSDOF 8
ENDMDL
