MODEL 1
REMARK VINA RESULT:      -8.0      0.000      0.000
REMARK  Name = 
REMARK  4 active torsions:
REMARK  status: ('A' for Active; 'I' for Inactive)
REMARK    1  A    between atoms: C_1  and  N_2
REMARK    2  A    between atoms: N_2  and  C_3
REMARK    3  A    between atoms: C_9  and  C_10
REMARK    4  A    between atoms: C_15  and  C_16
REMARK                            x       y       z     vdW  Elec       q    Type
REMARK                         _______ _______ _______ _____ _____    ______ ____
ROOT
ATOM      1  C   UNL     1      -0.115  10.365  19.687  0.00  0.00    +0.000 C 
ATOM      2  N   UNL     1       0.767   9.309  20.162  0.00  0.00    +0.000 N 
ATOM      3  C   UNL     1       0.304   8.482  21.268  0.00  0.00    +0.000 C 
ATOM      4  C   UNL     1       1.618   8.690  19.245  0.00  0.00    +0.000 A 
ATOM      5  C   UNL     1       2.223   9.384  18.204  0.00  0.00    +0.000 A 
ATOM      6  N   UNL     1       3.102   8.840  17.333  0.00  0.00    +0.000 NA
ATOM      7  C   UNL     1       3.378   7.543  17.504  0.00  0.00    +0.000 A 
ATOM      8  C   UNL     1       4.307   6.985  16.643  0.00  0.00    +0.000 A 
ATOM      9  C   UNL     1       4.657   5.642  16.718  0.00  0.00    +0.000 A 
ATOM     10  C   UNL     1       4.008   4.844  17.668  0.00  0.00    +0.000 A 
ATOM     11  C   UNL     1       3.065   5.375  18.581  0.00  0.00    +0.000 A 
ATOM     12  C   UNL     1       2.765   6.764  18.522  0.00  0.00    +0.000 A 
ATOM     13  N   UNL     1       1.914   7.377  19.388  0.00  0.00    +0.000 NA
ENDROOT
BRANCH  11  14
ATOM     14  C   UNL     1       2.406   4.447  19.554  0.00  0.00    +0.000 A 
ATOM     15  C   UNL     1       2.823   4.368  20.899  0.00  0.00    +0.000 A 
ATOM     16  C   UNL     1       2.242   3.469  21.801  0.00  0.00    +0.000 A 
ATOM     17  C   UNL     1       1.205   2.640  21.391  0.00  0.00    +0.000 A 
ATOM     18  C   UNL     1       0.762   2.700  20.076  0.00  0.00    +0.000 A 
ATOM     19  C   UNL     1       1.366   3.580  19.169  0.00  0.00    +0.000 A 
ENDBRANCH  11  14
BRANCH   9  20
ATOM     20  C   UNL     1       5.705   5.051  15.807  0.00  0.00    +0.000 C 
ATOM     21  F   UNL     1       6.898   5.704  15.853  0.00  0.00    +0.000 F 
ATOM     22  F   UNL     1       5.978   3.753  16.111  0.00  0.00    +0.000 F 
ATOM     23  F   UNL     1       5.323   5.058  14.501  0.00  0.00    +0.000 F 
ENDBRANCH   9  20
TORSDOF 2
ENDMDL
MODEL 2
REMARK VINA RESULT:      -7.9      0.518      1.016
REMARK  Name = 
REMARK  4 active torsions:
REMARK  status: ('A' for Active; 'I' for Inactive)
REMARK    1  A    between atoms: C_1  and  N_2
REMARK    2  A    between atoms: N_2  and  C_3
REMARK    3  A    between atoms: C_9  and  C_10
REMARK    4  A    between atoms: C_15  and  C_16
REMARK                            x       y       z     vdW  Elec       q    Type
REMARK                         _______ _______ _______ _____ _____    ______ ____
ROOT
ATOM      1  C   UNL     1       0.187  10.112  19.631  0.00  0.00    +0.000 C 
ATOM      2  N   UNL     1       1.084   9.062  20.093  0.00  0.00    +0.000 N 
ATOM      3  C   UNL     1       0.659   8.256  21.229  0.00  0.00    +0.000 C 
ATOM      4  C   UNL     1       1.902   8.425  19.158  0.00  0.00    +0.000 A 
ATOM      5  C   UNL     1       2.470   9.100  18.084  0.00  0.00    +0.000 A 
ATOM      6  N   UNL     1       3.317   8.538  17.192  0.00  0.00    +0.000 NA
ATOM      7  C   UNL     1       3.597   7.244  17.377  0.00  0.00    +0.000 A 
ATOM      8  C   UNL     1       4.494   6.669  16.494  0.00  0.00    +0.000 A 
ATOM      9  C   UNL     1       4.845   5.327  16.580  0.00  0.00    +0.000 A 
ATOM     10  C   UNL     1       4.229   4.547  17.566  0.00  0.00    +0.000 A 
ATOM     11  C   UNL     1       3.320   5.097  18.502  0.00  0.00    +0.000 A 
ATOM     12  C   UNL     1       3.019   6.485  18.429  0.00  0.00    +0.000 A 
ATOM     13  N   UNL     1       2.200   7.115  19.314  0.00  0.00    +0.000 NA
ENDROOT
BRANCH  11  14
ATOM     14  C   UNL     1       2.694   4.187  19.514  0.00  0.00    +0.000 A 
ATOM     15  C   UNL     1       1.299   3.983  19.562  0.00  0.00    +0.000 A 
ATOM     16  C   UNL     1       0.705   3.169  20.534  0.00  0.00    +0.000 A 
ATOM     17  C   UNL     1       1.492   2.513  21.472  0.00  0.00    +0.000 A 
ATOM     18  C   UNL     1       2.870   2.684  21.447  0.00  0.00    +0.000 A 
ATOM     19  C   UNL     1       3.458   3.521  20.491  0.00  0.00    +0.000 A 
ENDBRANCH  11  14
BRANCH   9  20
ATOM     20  C   UNL     1       5.859   4.719  15.643  0.00  0.00    +0.000 C 
ATOM     21  F   UNL     1       7.096   5.279  15.739  0.00  0.00    +0.000 F 
ATOM     22  F   UNL     1       6.035   3.387  15.870  0.00  0.00    +0.000 F 
ATOM     23  F   UNL     1       5.496   4.832  14.337  0.00  0.00    +0.000 F 
ENDBRANCH   9  20
TORSDOF 2
ENDMDL
MODEL 3
REMARK VINA RESULT:      -7.7      0.711      1.093
REMARK  Name = 
REMARK  4 active torsions:
REMARK  status: ('A' for Active; 'I' for Inactive)
REMARK    1  A    between atoms: C_1  and  N_2
REMARK    2  A    between atoms: N_2  and  C_3
REMARK    3  A    between atoms: C_9  and  C_10
REMARK    4  A    between atoms: C_15  and  C_16
REMARK                            x       y       z     vdW  Elec       q    Type
REMARK                         _______ _______ _______ _____ _____    ______ ____
ROOT
ATOM      1  C   UNL     1       0.177  10.006  19.439  0.00  0.00    +0.000 C 
ATOM      2  N   UNL     1       1.065   8.975  19.960  0.00  0.00    +0.000 N 
ATOM      3  C   UNL     1       0.603   8.192  21.097  0.00  0.00    +0.000 C 
ATOM      4  C   UNL     1       1.923   8.325  19.072  0.00  0.00    +0.000 A 
ATOM      5  C   UNL     1       2.526   8.979  18.005  0.00  0.00    +0.000 A 
ATOM      6  N   UNL     1       3.412   8.405  17.160  0.00  0.00    +0.000 NA
ATOM      7  C   UNL     1       3.695   7.119  17.385  0.00  0.00    +0.000 A 
ATOM      8  C   UNL     1       4.630   6.532  16.550  0.00  0.00    +0.000 A 
ATOM      9  C   UNL     1       4.988   5.195  16.681  0.00  0.00    +0.000 A 
ATOM     10  C   UNL     1       4.341   4.432  17.660  0.00  0.00    +0.000 A 
ATOM     11  C   UNL     1       3.392   4.995  18.549  0.00  0.00    +0.000 A 
ATOM     12  C   UNL     1       3.084   6.378  18.431  0.00  0.00    +0.000 A 
ATOM     13  N   UNL     1       2.226   7.021  19.270  0.00  0.00    +0.000 NA
ENDROOT
BRANCH  11  14
ATOM     14  C   UNL     1       2.736   4.103  19.557  0.00  0.00    +0.000 A 
ATOM     15  C   UNL     1       3.488   3.388  20.512  0.00  0.00    +0.000 A 
ATOM     16  C   UNL     1       2.884   2.517  21.426  0.00  0.00    +0.000 A 
ATOM     17  C   UNL     1       1.504   2.356  21.430  0.00  0.00    +0.000 A 
ATOM     18  C   UNL     1       0.732   3.053  20.510  0.00  0.00    +0.000 A 
ATOM     19  C   UNL     1       1.343   3.902  19.579  0.00  0.00    +0.000 A 
ENDBRANCH  11  14
BRANCH   9  20
ATOM     20  C   UNL     1       6.043   4.575  15.798  0.00  0.00    +0.000 C 
ATOM     21  F   UNL     1       5.728   3.322  15.369  0.00  0.00    +0.000 F 
ATOM     22  F   UNL     1       6.267   5.308  14.673  0.00  0.00    +0.000 F 
ATOM     23  F   UNL     1       7.247   4.466  16.420  0.00  0.00    +0.000 F 
ENDBRANCH   9  20
TORSDOF 2
ENDMDL
MODEL 4
REMARK VINA RESULT:      -6.9      3.176      5.978
REMARK  Name = 
REMARK  4 active torsions:
REMARK  status: ('A' for Active; 'I' for Inactive)
REMARK    1  A    between atoms: C_1  and  N_2
REMARK    2  A    between atoms: N_2  and  C_3
REMARK    3  A    between atoms: C_9  and  C_10
REMARK    4  A    between atoms: C_15  and  C_16
REMARK                            x       y       z     vdW  Elec       q    Type
REMARK                         _______ _______ _______ _____ _____    ______ ____
ROOT
ATOM      1  C   UNL     1       2.416   1.736  21.397  0.00  0.00    +0.000 C 
ATOM      2  N   UNL     1       3.381   2.717  20.918  0.00  0.00    +0.000 N 
ATOM      3  C   UNL     1       4.568   2.225  20.234  0.00  0.00    +0.000 C 
ATOM      4  C   UNL     1       2.913   3.968  20.515  0.00  0.00    +0.000 A 
ATOM      5  C   UNL     1       1.856   4.610  21.152  0.00  0.00    +0.000 A 
ATOM      6  N   UNL     1       1.413   5.847  20.837  0.00  0.00    +0.000 NA
ATOM      7  C   UNL     1       2.045   6.464  19.833  0.00  0.00    +0.000 A 
ATOM      8  C   UNL     1       1.626   7.747  19.528  0.00  0.00    +0.000 A 
ATOM      9  C   UNL     1       2.199   8.475  18.492  0.00  0.00    +0.000 A 
ATOM     10  C   UNL     1       3.194   7.858  17.725  0.00  0.00    +0.000 A 
ATOM     11  C   UNL     1       3.668   6.555  18.013  0.00  0.00    +0.000 A 
ATOM     12  C   UNL     1       3.104   5.851  19.112  0.00  0.00    +0.000 A 
ATOM     13  N   UNL     1       3.528   4.617  19.499  0.00  0.00    +0.000 NA
ENDROOT
BRANCH  11  14
ATOM     14  C   UNL     1       4.724   5.964  17.130  0.00  0.00    +0.000 A 
ATOM     15  C   UNL     1       4.457   4.856  16.299  0.00  0.00    +0.000 A 
ATOM     16  C   UNL     1       5.453   4.271  15.506  0.00  0.00    +0.000 A 
ATOM     17  C   UNL     1       6.739   4.795  15.501  0.00  0.00    +0.000 A 
ATOM     18  C   UNL     1       7.033   5.893  16.300  0.00  0.00    +0.000 A 
ATOM     19  C   UNL     1       6.042   6.457  17.113  0.00  0.00    +0.000 A 
ENDBRANCH  11  14
BRANCH   9  20
ATOM     20  C   UNL     1       1.769   9.891  18.196  0.00  0.00    +0.000 C 
ATOM     21  F   UNL     1       2.695  10.610  17.505  0.00  0.00    +0.000 F 
ATOM     22  F   UNL     1       0.630   9.936  17.450  0.00  0.00    +0.000 F 
ATOM     23  F   UNL     1       1.505  10.603  19.324  0.00  0.00    +0.000 F 
ENDBRANCH   9  20
TORSDOF 2
ENDMDL
MODEL 5
REMARK VINA RESULT:      -6.8      3.180      5.923
REMARK  Name = 
REMARK  4 active torsions:
REMARK  status: ('A' for Active; 'I' for Inactive)
REMARK    1  A    between atoms: C_1  and  N_2
REMARK    2  A    between atoms: N_2  and  C_3
REMARK    3  A    between atoms: C_9  and  C_10
REMARK    4  A    between atoms: C_15  and  C_16
REMARK                            x       y       z     vdW  Elec       q    Type
REMARK                         _______ _______ _______ _____ _____    ______ ____
ROOT
ATOM      1  C   UNL     1       2.455   1.641  21.424  0.00  0.00    +0.000 C 
ATOM      2  N   UNL     1       3.413   2.628  20.945  0.00  0.00    +0.000 N 
ATOM      3  C   UNL     1       4.605   2.143  20.265  0.00  0.00    +0.000 C 
ATOM      4  C   UNL     1       2.937   3.875  20.540  0.00  0.00    +0.000 A 
ATOM      5  C   UNL     1       1.875   4.510  21.174  0.00  0.00    +0.000 A 
ATOM      6  N   UNL     1       1.423   5.744  20.855  0.00  0.00    +0.000 NA
ATOM      7  C   UNL     1       2.053   6.363  19.852  0.00  0.00    +0.000 A 
ATOM      8  C   UNL     1       1.625   7.642  19.543  0.00  0.00    +0.000 A 
ATOM      9  C   UNL     1       2.195   8.373  18.508  0.00  0.00    +0.000 A 
ATOM     10  C   UNL     1       3.196   7.762  17.744  0.00  0.00    +0.000 A 
ATOM     11  C   UNL     1       3.678   6.462  18.034  0.00  0.00    +0.000 A 
ATOM     12  C   UNL     1       3.118   5.756  19.134  0.00  0.00    +0.000 A 
ATOM     13  N   UNL     1       3.550   4.526  19.524  0.00  0.00    +0.000 NA
ENDROOT
BRANCH  11  14
ATOM     14  C   UNL     1       4.741   5.878  17.155  0.00  0.00    +0.000 A 
ATOM     15  C   UNL     1       6.056   6.388  17.146  0.00  0.00    +0.000 A 
ATOM     16  C   UNL     1       7.041   5.876  16.293  0.00  0.00    +0.000 A 
ATOM     17  C   UNL     1       6.746   4.819  15.442  0.00  0.00    +0.000 A 
ATOM     18  C   UNL     1       5.464   4.285  15.433  0.00  0.00    +0.000 A 
ATOM     19  C   UNL     1       4.474   4.819  16.268  0.00  0.00    +0.000 A 
ENDBRANCH  11  14
BRANCH   9  20
ATOM     20  C   UNL     1       1.755   9.785  18.208  0.00  0.00    +0.000 C 
ATOM     21  F   UNL     1       2.662  10.498  17.486  0.00  0.00    +0.000 F 
ATOM     22  F   UNL     1       0.597   9.821  17.492  0.00  0.00    +0.000 F 
ATOM     23  F   UNL     1       1.520  10.509  19.335  0.00  0.00    +0.000 F 
ENDBRANCH   9  20
TORSDOF 2
ENDMDL
MODEL 6
REMARK VINA RESULT:      -6.8      3.445      5.354
REMARK  Name = 
REMARK  4 active torsions:
REMARK  status: ('A' for Active; 'I' for Inactive)
REMARK    1  A    between atoms: C_1  and  N_2
REMARK    2  A    between atoms: N_2  and  C_3
REMARK    3  A    between atoms: C_9  and  C_10
REMARK    4  A    between atoms: C_15  and  C_16
REMARK                            x       y       z     vdW  Elec       q    Type
REMARK                         _______ _______ _______ _____ _____    ______ ____
ROOT
ATOM      1  C   UNL     1       6.922   4.364  15.670  0.00  0.00    +0.000 C 
ATOM      2  N   UNL     1       5.529   4.222  16.072  0.00  0.00    +0.000 N 
ATOM      3  C   UNL     1       5.100   2.932  16.593  0.00  0.00    +0.000 C 
ATOM      4  C   UNL     1       4.864   5.341  16.575  0.00  0.00    +0.000 A 
ATOM      5  C   UNL     1       5.093   6.624  16.091  0.00  0.00    +0.000 A 
ATOM      6  N   UNL     1       4.427   7.726  16.504  0.00  0.00    +0.000 NA
ATOM      7  C   UNL     1       3.502   7.537  17.451  0.00  0.00    +0.000 A 
ATOM      8  C   UNL     1       2.787   8.651  17.853  0.00  0.00    +0.000 A 
ATOM      9  C   UNL     1       1.813   8.576  18.843  0.00  0.00    +0.000 A 
ATOM     10  C   UNL     1       1.600   7.340  19.464  0.00  0.00    +0.000 A 
ATOM     11  C   UNL     1       2.296   6.170  19.073  0.00  0.00    +0.000 A 
ATOM     12  C   UNL     1       3.247   6.261  18.019  0.00  0.00    +0.000 A 
ATOM     13  N   UNL     1       3.926   5.185  17.537  0.00  0.00    +0.000 NA
ENDROOT
BRANCH  11  14
ATOM     14  C   UNL     1       2.018   4.892  19.803  0.00  0.00    +0.000 A 
ATOM     15  C   UNL     1       1.232   3.870  19.230  0.00  0.00    +0.000 A 
ATOM     16  C   UNL     1       0.930   2.693  19.926  0.00  0.00    +0.000 A 
ATOM     17  C   UNL     1       1.430   2.491  21.206  0.00  0.00    +0.000 A 
ATOM     18  C   UNL     1       2.217   3.472  21.795  0.00  0.00    +0.000 A 
ATOM     19  C   UNL     1       2.492   4.660  21.107  0.00  0.00    +0.000 A 
ENDBRANCH  11  14
BRANCH   9  20
ATOM     20  C   UNL     1       1.005   9.785  19.242  0.00  0.00    +0.000 C 
ATOM     21  F   UNL     1       0.802   9.887  20.585  0.00  0.00    +0.000 F 
ATOM     22  F   UNL     1       1.602  10.950  18.866  0.00  0.00    +0.000 F 
ATOM     23  F   UNL     1      -0.231   9.798  18.674  0.00  0.00    +0.000 F 
ENDBRANCH   9  20
TORSDOF 2
ENDMDL
MODEL 7
REMARK VINA RESULT:      -6.8      3.444      5.255
REMARK  Name = 
REMARK  4 active torsions:
REMARK  status: ('A' for Active; 'I' for Inactive)
REMARK    1  A    between atoms: C_1  and  N_2
REMARK    2  A    between atoms: N_2  and  C_3
REMARK    3  A    between atoms: C_9  and  C_10
REMARK    4  A    between atoms: C_15  and  C_16
REMARK                            x       y       z     vdW  Elec       q    Type
REMARK                         _______ _______ _______ _____ _____    ______ ____
ROOT
ATOM      1  C   UNL     1       6.889   4.230  15.746  0.00  0.00    +0.000 C 
ATOM      2  N   UNL     1       5.491   4.123  16.139  0.00  0.00    +0.000 N 
ATOM      3  C   UNL     1       5.030   2.849  16.671  0.00  0.00    +0.000 C 
ATOM      4  C   UNL     1       4.847   5.262  16.625  0.00  0.00    +0.000 A 
ATOM      5  C   UNL     1       5.107   6.534  16.129  0.00  0.00    +0.000 A 
ATOM      6  N   UNL     1       4.463   7.655  16.525  0.00  0.00    +0.000 NA
ATOM      7  C   UNL     1       3.528   7.497  17.467  0.00  0.00    +0.000 A 
ATOM      8  C   UNL     1       2.834   8.631  17.852  0.00  0.00    +0.000 A 
ATOM      9  C   UNL     1       1.852   8.588  18.835  0.00  0.00    +0.000 A 
ATOM     10  C   UNL     1       1.608   7.364  19.469  0.00  0.00    +0.000 A 
ATOM     11  C   UNL     1       2.280   6.174  19.095  0.00  0.00    +0.000 A 
ATOM     12  C   UNL     1       3.240   6.233  18.047  0.00  0.00    +0.000 A 
ATOM     13  N   UNL     1       3.899   5.137  17.582  0.00  0.00    +0.000 NA
ENDROOT
BRANCH  11  14
ATOM     14  C   UNL     1       1.968   4.911  19.836  0.00  0.00    +0.000 A 
ATOM     15  C   UNL     1       2.457   4.679  21.139  0.00  0.00    +0.000 A 
ATOM     16  C   UNL     1       2.208   3.481  21.819  0.00  0.00    +0.000 A 
ATOM     17  C   UNL     1       1.438   2.489  21.226  0.00  0.00    +0.000 A 
ATOM     18  C   UNL     1       0.932   2.689  19.948  0.00  0.00    +0.000 A 
ATOM     19  C   UNL     1       1.207   3.877  19.260  0.00  0.00    +0.000 A 
ENDBRANCH  11  14
BRANCH   9  20
ATOM     20  C   UNL     1       1.068   9.819  19.216  0.00  0.00    +0.000 C 
ATOM     21  F   UNL     1       1.046  10.059  20.556  0.00  0.00    +0.000 F 
ATOM     22  F   UNL     1       1.573  10.947  18.644  0.00  0.00    +0.000 F 
ATOM     23  F   UNL     1      -0.233   9.751  18.825  0.00  0.00    +0.000 F 
ENDBRANCH   9  20
TORSDOF 2
ENDMDL
MODEL 8
REMARK VINA RESULT:      -6.6      2.850      5.018
REMARK  Name = 
REMARK  4 active torsions:
REMARK  status: ('A' for Active; 'I' for Inactive)
REMARK    1  A    between atoms: C_1  and  N_2
REMARK    2  A    between atoms: N_2  and  C_3
REMARK    3  A    between atoms: C_9  and  C_10
REMARK    4  A    between atoms: C_15  and  C_16
REMARK                            x       y       z     vdW  Elec       q    Type
REMARK                         _______ _______ _______ _____ _____    ______ ____
ROOT
ATOM      1  C   UNL     1       1.636  11.217  19.667  0.00  0.00    +0.000 C 
ATOM      2  N   UNL     1       1.613  10.031  18.822  0.00  0.00    +0.000 N 
ATOM      3  C   UNL     1       2.219  10.127  17.501  0.00  0.00    +0.000 C 
ATOM      4  C   UNL     1       1.663   8.777  19.432  0.00  0.00    +0.000 A 
ATOM      5  C   UNL     1       1.032   8.512  20.642  0.00  0.00    +0.000 A 
ATOM      6  N   UNL     1       1.000   7.298  21.237  0.00  0.00    +0.000 NA
ATOM      7  C   UNL     1       1.637   6.311  20.599  0.00  0.00    +0.000 A 
ATOM      8  C   UNL     1       1.577   5.056  21.178  0.00  0.00    +0.000 A 
ATOM      9  C   UNL     1       2.218   3.959  20.612  0.00  0.00    +0.000 A 
ATOM     10  C   UNL     1       2.972   4.164  19.450  0.00  0.00    +0.000 A 
ATOM     11  C   UNL     1       3.046   5.427  18.813  0.00  0.00    +0.000 A 
ATOM     12  C   UNL     1       2.337   6.521  19.381  0.00  0.00    +0.000 A 
ATOM     13  N   UNL     1       2.304   7.758  18.815  0.00  0.00    +0.000 NA
ENDROOT
BRANCH  11  14
ATOM     14  C   UNL     1       3.890   5.562  17.583  0.00  0.00    +0.000 A 
ATOM     15  C   UNL     1       4.307   4.433  16.847  0.00  0.00    +0.000 A 
ATOM     16  C   UNL     1       5.134   4.549  15.722  0.00  0.00    +0.000 A 
ATOM     17  C   UNL     1       5.545   5.802  15.285  0.00  0.00    +0.000 A 
ATOM     18  C   UNL     1       5.143   6.935  15.980  0.00  0.00    +0.000 A 
ATOM     19  C   UNL     1       4.340   6.812  17.121  0.00  0.00    +0.000 A 
ENDBRANCH  11  14
BRANCH   9  20
ATOM     20  C   UNL     1       2.109   2.584  21.224  0.00  0.00    +0.000 C 
ATOM     21  F   UNL     1       3.249   2.170  21.840  0.00  0.00    +0.000 F 
ATOM     22  F   UNL     1       1.129   2.518  22.167  0.00  0.00    +0.000 F 
ATOM     23  F   UNL     1       1.810   1.627  20.305  0.00  0.00    +0.000 F 
ENDBRANCH   9  20
TORSDOF 2
ENDMDL
MODEL 9
REMARK VINA RESULT:      -6.6      2.839      5.013
REMARK  Name = 
REMARK  4 active torsions:
REMARK  status: ('A' for Active; 'I' for Inactive)
REMARK    1  A    between atoms: C_1  and  N_2
REMARK    2  A    between atoms: N_2  and  C_3
REMARK    3  A    between atoms: C_9  and  C_10
REMARK    4  A    between atoms: C_15  and  C_16
REMARK                            x       y       z     vdW  Elec       q    Type
REMARK                         _______ _______ _______ _____ _____    ______ ____
ROOT
ATOM      1  C   UNL     1       1.537  11.223  19.681  0.00  0.00    +0.000 C 
ATOM      2  N   UNL     1       1.546  10.039  18.833  0.00  0.00    +0.000 N 
ATOM      3  C   UNL     1       2.170  10.146  17.522  0.00  0.00    +0.000 C 
ATOM      4  C   UNL     1       1.604   8.784  19.442  0.00  0.00    +0.000 A 
ATOM      5  C   UNL     1       0.958   8.508  20.642  0.00  0.00    +0.000 A 
ATOM      6  N   UNL     1       0.935   7.292  21.234  0.00  0.00    +0.000 NA
ATOM      7  C   UNL     1       1.597   6.316  20.604  0.00  0.00    +0.000 A 
ATOM      8  C   UNL     1       1.547   5.059  21.180  0.00  0.00    +0.000 A 
ATOM      9  C   UNL     1       2.212   3.973  20.622  0.00  0.00    +0.000 A 
ATOM     10  C   UNL     1       2.982   4.192  19.474  0.00  0.00    +0.000 A 
ATOM     11  C   UNL     1       3.047   5.456  18.840  0.00  0.00    +0.000 A 
ATOM     12  C   UNL     1       2.312   6.539  19.398  0.00  0.00    +0.000 A 
ATOM     13  N   UNL     1       2.270   7.776  18.833  0.00  0.00    +0.000 NA
ENDROOT
BRANCH  11  14
ATOM     14  C   UNL     1       3.908   5.606  17.623  0.00  0.00    +0.000 A 
ATOM     15  C   UNL     1       4.320   6.873  17.160  0.00  0.00    +0.000 A 
ATOM     16  C   UNL     1       5.086   7.021  15.998  0.00  0.00    +0.000 A 
ATOM     17  C   UNL     1       5.486   5.903  15.278  0.00  0.00    +0.000 A 
ATOM     18  C   UNL     1       5.107   4.639  15.712  0.00  0.00    +0.000 A 
ATOM     19  C   UNL     1       4.317   4.497  16.859  0.00  0.00    +0.000 A 
ENDBRANCH  11  14
BRANCH   9  20
ATOM     20  C   UNL     1       2.115   2.595  21.230  0.00  0.00    +0.000 C 
ATOM     21  F   UNL     1       1.171   2.495  22.206  0.00  0.00    +0.000 F 
ATOM     22  F   UNL     1       1.797   1.647  20.306  0.00  0.00    +0.000 F 
ATOM     23  F   UNL     1       3.284   2.191  21.796  0.00  0.00    +0.000 F 
ENDBRANCH   9  20
TORSDOF 2
ENDMDL
