MODEL 1
REMARK VINA RESULT:      -6.4      0.000      0.000
REMARK  Name = 
REMARK  9 active torsions:
REMARK  status: ('A' for Active; 'I' for Inactive)
REMARK    1  A    between atoms: C_1  and  C_2
REMARK    2  A    between atoms: C_2  and  O_3
REMARK    3  A    between atoms: O_3  and  C_4
REMARK    4  A    between atoms: C_4  and  C_6
REMARK    5  A    between atoms: C_6  and  C_7
REMARK    6  A    between atoms: C_11  and  C_12
REMARK    7  A    between atoms: C_16  and  C_17
REMARK    8  A    between atoms: N_26  and  C_27
REMARK    9  A    between atoms: C_31  and  N_32
REMARK                            x       y       z     vdW  Elec       q    Type
REMARK                         _______ _______ _______ _____ _____    ______ ____
ROOT
ATOM      1  C   UNL     1      -5.097  13.782  22.285  0.00  0.00    +0.000 C 
ATOM      2  C   UNL     1      -6.425  13.976  21.512  0.00  0.00    +0.000 C 
ATOM      3  C   UNL     1      -5.397  12.991  23.588  0.00  0.00    +0.000 C 
ATOM      4  C   UNL     1      -4.137  12.592  24.377  0.00  0.00    +0.000 C 
ATOM      5  C   UNL     1      -2.919  12.074  23.579  0.00  0.00    +0.000 C 
ATOM      6  C   UNL     1      -2.645  12.730  22.184  0.00  0.00    +0.000 C 
ATOM      7  C   UNL     1      -1.943  14.078  22.412  0.00  0.00    +0.000 C 
ATOM      8  C   UNL     1      -1.633  11.812  21.322  0.00  0.00    +0.000 C 
ATOM      9  C   UNL     1      -0.135  11.815  21.839  0.00  0.00    +0.000 C 
ATOM     10  C   UNL     1       0.958  11.241  20.885  0.00  0.00    +0.000 C 
ATOM     11  C   UNL     1       0.679  11.528  19.399  0.00  0.00    +0.000 C 
ATOM     12  C   UNL     1       1.641  10.877  18.415  0.00  0.00    +0.000 C 
ATOM     13  C   UNL     1      -0.782  10.985  19.111  0.00  0.00    +0.000 C 
ATOM     14  C   UNL     1      -1.688  12.089  19.767  0.00  0.00    +0.000 C 
ATOM     15  C   UNL     1      -3.107  12.060  19.241  0.00  0.00    +0.000 C 
ATOM     16  C   UNL     1      -4.027  13.053  19.968  0.00  0.00    +0.000 C 
ATOM     17  C   UNL     1      -4.058  12.866  21.494  0.00  0.00    +0.000 C 
ATOM     18  C   UNL     1      -0.893  13.299  19.360  0.00  0.00    +0.000 A 
ATOM     19  C   UNL     1      -0.985  14.678  19.237  0.00  0.00    +0.000 A 
ATOM     20  N   UNL     1       0.229  15.237  19.299  0.00  0.00    +0.000 NA
ATOM     21  N   UNL     1       1.102  14.187  19.377  0.00  0.00    +0.000 N 
ATOM     22  C   UNL     1       0.439  12.998  19.195  0.00  0.00    +0.000 A 
ENDROOT
BRANCH  21  23
ATOM     23  C   UNL     1       2.419  14.408  19.834  0.00  0.00    +0.000 A 
ATOM     24  C   UNL     1       2.698  14.379  21.200  0.00  0.00    +0.000 A 
ATOM     25  C   UNL     1       4.003  14.571  21.651  0.00  0.00    +0.000 A 
ATOM     26  C   UNL     1       5.028  14.841  20.744  0.00  0.00    +0.000 A 
ATOM     27  C   UNL     1       4.751  14.875  19.366  0.00  0.00    +0.000 A 
ATOM     28  C   UNL     1       3.444  14.634  18.894  0.00  0.00    +0.000 A 
BRANCH  27  29
ATOM     29  N   UNL     1       5.850  15.205  18.450  0.00  0.00    +0.000 N 
ATOM     30  O   UNL     1       6.157  14.382  17.582  0.00  0.00    +0.000 OA
ATOM     31  O   UNL     1       6.422  16.291  18.618  0.00  0.00    +0.000 OA
ENDBRANCH  27  29
ENDBRANCH  21  23
BRANCH   1  32
ATOM     32  C   UNL     1      -4.707  15.220  22.736  0.00  0.00    +0.000 C 
ATOM     33  O   UNL     1      -4.419  16.128  21.962  0.00  0.00    +0.000 OA
BRANCH  32  34
ATOM     34  O   UNL     1      -4.699  15.377  24.091  0.00  0.00    +0.000 OA
BRANCH  34  36
ATOM     35  C   UNL     1      -2.809  16.197  25.478  0.00  0.00    +0.000 C 
ATOM     36  C   UNL     1      -3.989  16.539  24.576  0.00  0.00    +0.000 C 
ENDBRANCH  34  36
ENDBRANCH  32  34
ENDBRANCH   1  32
TORSDOF 5
ENDMDL
MODEL 2
REMARK VINA RESULT:      -6.4      1.572      1.859
REMARK  Name = 
REMARK  9 active torsions:
REMARK  status: ('A' for Active; 'I' for Inactive)
REMARK    1  A    between atoms: C_1  and  C_2
REMARK    2  A    between atoms: C_2  and  O_3
REMARK    3  A    between atoms: O_3  and  C_4
REMARK    4  A    between atoms: C_4  and  C_6
REMARK    5  A    between atoms: C_6  and  C_7
REMARK    6  A    between atoms: C_11  and  C_12
REMARK    7  A    between atoms: C_16  and  C_17
REMARK    8  A    between atoms: N_26  and  C_27
REMARK    9  A    between atoms: C_31  and  N_32
REMARK                            x       y       z     vdW  Elec       q    Type
REMARK                         _______ _______ _______ _____ _____    ______ ____
ROOT
ATOM      1  C   UNL     1      -4.970  13.644  22.180  0.00  0.00    +0.000 C 
ATOM      2  C   UNL     1      -6.309  13.803  21.417  0.00  0.00    +0.000 C 
ATOM      3  C   UNL     1      -5.243  12.871  23.498  0.00  0.00    +0.000 C 
ATOM      4  C   UNL     1      -3.968  12.506  24.281  0.00  0.00    +0.000 C 
ATOM      5  C   UNL     1      -2.750  11.994  23.479  0.00  0.00    +0.000 C 
ATOM      6  C   UNL     1      -2.501  12.631  22.070  0.00  0.00    +0.000 C 
ATOM      7  C   UNL     1      -1.819  13.994  22.268  0.00  0.00    +0.000 C 
ATOM      8  C   UNL     1      -1.484  11.715  21.213  0.00  0.00    +0.000 C 
ATOM      9  C   UNL     1       0.020  11.752  21.715  0.00  0.00    +0.000 C 
ATOM     10  C   UNL     1       1.112  11.180  20.759  0.00  0.00    +0.000 C 
ATOM     11  C   UNL     1       0.813  11.437  19.270  0.00  0.00    +0.000 C 
ATOM     12  C   UNL     1       1.776  10.785  18.288  0.00  0.00    +0.000 C 
ATOM     13  C   UNL     1      -0.642  10.865  19.007  0.00  0.00    +0.000 C 
ATOM     14  C   UNL     1      -1.559  11.965  19.654  0.00  0.00    +0.000 C 
ATOM     15  C   UNL     1      -2.983  11.904  19.144  0.00  0.00    +0.000 C 
ATOM     16  C   UNL     1      -3.912  12.893  19.864  0.00  0.00    +0.000 C 
ATOM     17  C   UNL     1      -3.923  12.732  21.393  0.00  0.00    +0.000 C 
ATOM     18  C   UNL     1      -0.788  13.181  19.219  0.00  0.00    +0.000 A 
ATOM     19  C   UNL     1      -0.905  14.555  19.074  0.00  0.00    +0.000 A 
ATOM     20  N   UNL     1       0.301  15.136  19.113  0.00  0.00    +0.000 NA
ATOM     21  N   UNL     1       1.192  14.102  19.200  0.00  0.00    +0.000 N 
ATOM     22  C   UNL     1       0.547  12.899  19.045  0.00  0.00    +0.000 A 
ENDROOT
BRANCH  21  23
ATOM     23  C   UNL     1       2.509  14.352  19.638  0.00  0.00    +0.000 A 
ATOM     24  C   UNL     1       3.507  14.657  18.712  0.00  0.00    +0.000 A 
ATOM     25  C   UNL     1       4.803  14.932  19.146  0.00  0.00    +0.000 A 
ATOM     26  C   UNL     1       5.122  14.856  20.503  0.00  0.00    +0.000 A 
ATOM     27  C   UNL     1       4.120  14.546  21.440  0.00  0.00    +0.000 A 
ATOM     28  C   UNL     1       2.794  14.314  21.018  0.00  0.00    +0.000 A 
BRANCH  27  29
ATOM     29  N   UNL     1       4.507  14.434  22.851  0.00  0.00    +0.000 N 
ATOM     30  O   UNL     1       4.145  15.320  23.631  0.00  0.00    +0.000 OA
ATOM     31  O   UNL     1       5.199  13.457  23.174  0.00  0.00    +0.000 OA
ENDBRANCH  27  29
ENDBRANCH  21  23
BRANCH   1  32
ATOM     32  C   UNL     1      -4.599  15.096  22.602  0.00  0.00    +0.000 C 
ATOM     33  O   UNL     1      -4.194  15.955  21.825  0.00  0.00    +0.000 OA
BRANCH  32  34
ATOM     34  O   UNL     1      -4.752  15.325  23.937  0.00  0.00    +0.000 OA
BRANCH  34  36
ATOM     35  C   UNL     1      -4.801  17.481  25.168  0.00  0.00    +0.000 C 
ATOM     36  C   UNL     1      -3.966  16.411  24.475  0.00  0.00    +0.000 C 
ENDBRANCH  34  36
ENDBRANCH  32  34
ENDBRANCH   1  32
TORSDOF 5
ENDMDL
MODEL 3
REMARK VINA RESULT:      -6.3      1.707      2.188
REMARK  Name = 
REMARK  9 active torsions:
REMARK  status: ('A' for Active; 'I' for Inactive)
REMARK    1  A    between atoms: C_1  and  C_2
REMARK    2  A    between atoms: C_2  and  O_3
REMARK    3  A    between atoms: O_3  and  C_4
REMARK    4  A    between atoms: C_4  and  C_6
REMARK    5  A    between atoms: C_6  and  C_7
REMARK    6  A    between atoms: C_11  and  C_12
REMARK    7  A    between atoms: C_16  and  C_17
REMARK    8  A    between atoms: N_26  and  C_27
REMARK    9  A    between atoms: C_31  and  N_32
REMARK                            x       y       z     vdW  Elec       q    Type
REMARK                         _______ _______ _______ _____ _____    ______ ____
ROOT
ATOM      1  C   UNL     1      -4.987  13.694  22.094  0.00  0.00    +0.000 C 
ATOM      2  C   UNL     1      -6.328  13.830  21.330  0.00  0.00    +0.000 C 
ATOM      3  C   UNL     1      -5.260  12.972  23.442  0.00  0.00    +0.000 C 
ATOM      4  C   UNL     1      -3.985  12.631  24.234  0.00  0.00    +0.000 C 
ATOM      5  C   UNL     1      -2.772  12.084  23.449  0.00  0.00    +0.000 C 
ATOM      6  C   UNL     1      -2.524  12.667  22.017  0.00  0.00    +0.000 C 
ATOM      7  C   UNL     1      -1.835  14.033  22.162  0.00  0.00    +0.000 C 
ATOM      8  C   UNL     1      -1.512  11.715  21.192  0.00  0.00    +0.000 C 
ATOM      9  C   UNL     1      -0.007  11.764  21.688  0.00  0.00    +0.000 C 
ATOM     10  C   UNL     1       1.080  11.153  20.752  0.00  0.00    +0.000 C 
ATOM     11  C   UNL     1       0.778  11.355  19.255  0.00  0.00    +0.000 C 
ATOM     12  C   UNL     1       1.736  10.663  18.296  0.00  0.00    +0.000 C 
ATOM     13  C   UNL     1      -0.680  10.780  19.017  0.00  0.00    +0.000 C 
ATOM     14  C   UNL     1      -1.590  11.908  19.625  0.00  0.00    +0.000 C 
ATOM     15  C   UNL     1      -3.016  11.833  19.121  0.00  0.00    +0.000 C 
ATOM     16  C   UNL     1      -3.939  12.853  19.806  0.00  0.00    +0.000 C 
ATOM     17  C   UNL     1      -3.947  12.749  21.339  0.00  0.00    +0.000 C 
ATOM     18  C   UNL     1      -0.816  13.103  19.143  0.00  0.00    +0.000 A 
ATOM     19  C   UNL     1      -0.927  14.471  18.947  0.00  0.00    +0.000 A 
ATOM     20  N   UNL     1       0.281  15.048  18.962  0.00  0.00    +0.000 NA
ATOM     21  N   UNL     1       1.168  14.013  19.084  0.00  0.00    +0.000 N 
ATOM     22  C   UNL     1       0.518  12.809  18.976  0.00  0.00    +0.000 A 
ENDROOT
BRANCH  21  23
ATOM     23  C   UNL     1       2.488  14.275  19.510  0.00  0.00    +0.000 A 
ATOM     24  C   UNL     1       3.472  14.596  18.575  0.00  0.00    +0.000 A 
ATOM     25  C   UNL     1       4.770  14.881  18.997  0.00  0.00    +0.000 A 
ATOM     26  C   UNL     1       5.105  14.799  20.349  0.00  0.00    +0.000 A 
ATOM     27  C   UNL     1       4.117  14.471  21.295  0.00  0.00    +0.000 A 
ATOM     28  C   UNL     1       2.788  14.229  20.886  0.00  0.00    +0.000 A 
BRANCH  27  29
ATOM     29  N   UNL     1       4.521  14.353  22.701  0.00  0.00    +0.000 N 
ATOM     30  O   UNL     1       5.213  13.386  23.033  0.00  0.00    +0.000 OA
ATOM     31  O   UNL     1       4.121  15.228  23.482  0.00  0.00    +0.000 OA
ENDBRANCH  27  29
ENDBRANCH  21  23
BRANCH   1  32
ATOM     32  C   UNL     1      -4.609  15.159  22.462  0.00  0.00    +0.000 C 
ATOM     33  O   UNL     1      -4.676  15.621  23.596  0.00  0.00    +0.000 OA
BRANCH  32  34
ATOM     34  O   UNL     1      -4.206  15.898  21.389  0.00  0.00    +0.000 OA
BRANCH  34  36
ATOM     35  C   UNL     1      -5.420  17.346  19.778  0.00  0.00    +0.000 C 
ATOM     36  C   UNL     1      -4.904  17.148  21.199  0.00  0.00    +0.000 C 
ENDBRANCH  34  36
ENDBRANCH  32  34
ENDBRANCH   1  32
TORSDOF 5
ENDMDL
MODEL 4
REMARK VINA RESULT:      -6.2      2.881      4.952
REMARK  Name = 
REMARK  9 active torsions:
REMARK  status: ('A' for Active; 'I' for Inactive)
REMARK    1  A    between atoms: C_1  and  C_2
REMARK    2  A    between atoms: C_2  and  O_3
REMARK    3  A    between atoms: O_3  and  C_4
REMARK    4  A    between atoms: C_4  and  C_6
REMARK    5  A    between atoms: C_6  and  C_7
REMARK    6  A    between atoms: C_11  and  C_12
REMARK    7  A    between atoms: C_16  and  C_17
REMARK    8  A    between atoms: N_26  and  C_27
REMARK    9  A    between atoms: C_31  and  N_32
REMARK                            x       y       z     vdW  Elec       q    Type
REMARK                         _______ _______ _______ _____ _____    ______ ____
ROOT
ATOM      1  C   UNL     1      -4.858  16.397  23.268  0.00  0.00    +0.000 C 
ATOM      2  C   UNL     1      -5.120  16.775  24.748  0.00  0.00    +0.000 C 
ATOM      3  C   UNL     1      -5.348  17.564  22.368  0.00  0.00    +0.000 C 
ATOM      4  C   UNL     1      -5.004  17.387  20.878  0.00  0.00    +0.000 C 
ATOM      5  C   UNL     1      -3.602  16.847  20.520  0.00  0.00    +0.000 C 
ATOM      6  C   UNL     1      -2.984  15.769  21.474  0.00  0.00    +0.000 C 
ATOM      7  C   UNL     1      -3.611  14.407  21.137  0.00  0.00    +0.000 C 
ATOM      8  C   UNL     1      -1.395  15.633  21.212  0.00  0.00    +0.000 C 
ATOM      9  C   UNL     1      -1.010  14.931  19.844  0.00  0.00    +0.000 C 
ATOM     10  C   UNL     1       0.466  14.457  19.668  0.00  0.00    +0.000 C 
ATOM     11  C   UNL     1       1.102  13.951  20.975  0.00  0.00    +0.000 C 
ATOM     12  C   UNL     1       2.582  13.602  20.891  0.00  0.00    +0.000 C 
ATOM     13  C   UNL     1       0.916  15.113  22.036  0.00  0.00    +0.000 C 
ATOM     14  C   UNL     1      -0.603  14.984  22.416  0.00  0.00    +0.000 C 
ATOM     15  C   UNL     1      -0.930  15.660  23.730  0.00  0.00    +0.000 C 
ATOM     16  C   UNL     1      -2.434  15.646  24.044  0.00  0.00    +0.000 C 
ATOM     17  C   UNL     1      -3.303  16.265  22.937  0.00  0.00    +0.000 C 
ATOM     18  C   UNL     1      -0.700  13.484  22.439  0.00  0.00    +0.000 A 
ATOM     19  C   UNL     1      -1.503  12.447  22.890  0.00  0.00    +0.000 A 
ATOM     20  N   UNL     1      -1.302  11.345  22.157  0.00  0.00    +0.000 NA
ATOM     21  N   UNL     1      -0.297  11.672  21.290  0.00  0.00    +0.000 N 
ATOM     22  C   UNL     1       0.224  12.904  21.602  0.00  0.00    +0.000 A 
ENDROOT
BRANCH  21  23
ATOM     23  C   UNL     1      -0.092  10.888  20.134  0.00  0.00    +0.000 A 
ATOM     24  C   UNL     1      -0.940  11.029  19.036  0.00  0.00    +0.000 A 
ATOM     25  C   UNL     1      -0.722  10.275  17.883  0.00  0.00    +0.000 A 
ATOM     26  C   UNL     1       0.313   9.341  17.839  0.00  0.00    +0.000 A 
ATOM     27  C   UNL     1       1.168   9.192  18.946  0.00  0.00    +0.000 A 
ATOM     28  C   UNL     1       0.989   9.985  20.099  0.00  0.00    +0.000 A 
BRANCH  27  29
ATOM     29  N   UNL     1       2.217   8.168  18.874  0.00  0.00    +0.000 N 
ATOM     30  O   UNL     1       2.290   7.338  19.785  0.00  0.00    +0.000 OA
ATOM     31  O   UNL     1       2.988   8.212  17.904  0.00  0.00    +0.000 OA
ENDBRANCH  27  29
ENDBRANCH  21  23
BRANCH   1  32
ATOM     32  C   UNL     1      -5.832  15.211  23.001  0.00  0.00    +0.000 C 
ATOM     33  O   UNL     1      -6.439  15.046  21.948  0.00  0.00    +0.000 OA
BRANCH  32  34
ATOM     34  O   UNL     1      -5.962  14.370  24.066  0.00  0.00    +0.000 OA
BRANCH  34  36
ATOM     35  C   UNL     1      -4.507  12.448  24.659  0.00  0.00    +0.000 C 
ATOM     36  C   UNL     1      -5.649  12.984  23.804  0.00  0.00    +0.000 C 
ENDBRANCH  34  36
ENDBRANCH  32  34
ENDBRANCH   1  32
TORSDOF 5
ENDMDL
MODEL 5
REMARK VINA RESULT:      -6.1      2.947      4.973
REMARK  Name = 
REMARK  9 active torsions:
REMARK  status: ('A' for Active; 'I' for Inactive)
REMARK    1  A    between atoms: C_1  and  C_2
REMARK    2  A    between atoms: C_2  and  O_3
REMARK    3  A    between atoms: O_3  and  C_4
REMARK    4  A    between atoms: C_4  and  C_6
REMARK    5  A    between atoms: C_6  and  C_7
REMARK    6  A    between atoms: C_11  and  C_12
REMARK    7  A    between atoms: C_16  and  C_17
REMARK    8  A    between atoms: N_26  and  C_27
REMARK    9  A    between atoms: C_31  and  N_32
REMARK                            x       y       z     vdW  Elec       q    Type
REMARK                         _______ _______ _______ _____ _____    ______ ____
ROOT
ATOM      1  C   UNL     1      -6.795  13.517  23.241  0.00  0.00    +0.000 C 
ATOM      2  C   UNL     1      -7.024  12.197  24.020  0.00  0.00    +0.000 C 
ATOM      3  C   UNL     1      -7.917  14.518  23.628  0.00  0.00    +0.000 C 
ATOM      4  C   UNL     1      -7.720  15.929  23.043  0.00  0.00    +0.000 C 
ATOM      5  C   UNL     1      -6.295  16.526  23.059  0.00  0.00    +0.000 C 
ATOM      6  C   UNL     1      -5.103  15.539  22.819  0.00  0.00    +0.000 C 
ATOM      7  C   UNL     1      -4.991  15.270  21.310  0.00  0.00    +0.000 C 
ATOM      8  C   UNL     1      -3.712  16.218  23.281  0.00  0.00    +0.000 C 
ATOM      9  C   UNL     1      -3.199  17.381  22.334  0.00  0.00    +0.000 C 
ATOM     10  C   UNL     1      -1.722  17.852  22.507  0.00  0.00    +0.000 C 
ATOM     11  C   UNL     1      -0.758  16.711  22.880  0.00  0.00    +0.000 C 
ATOM     12  C   UNL     1       0.670  17.136  23.193  0.00  0.00    +0.000 C 
ATOM     13  C   UNL     1      -1.373  16.017  24.166  0.00  0.00    +0.000 C 
ATOM     14  C   UNL     1      -2.556  15.177  23.564  0.00  0.00    +0.000 C 
ATOM     15  C   UNL     1      -3.012  14.072  24.493  0.00  0.00    +0.000 C 
ATOM     16  C   UNL     1      -4.249  13.329  23.966  0.00  0.00    +0.000 C 
ATOM     17  C   UNL     1      -5.443  14.250  23.664  0.00  0.00    +0.000 C 
ATOM     18  C   UNL     1      -1.877  14.703  22.310  0.00  0.00    +0.000 A 
ATOM     19  C   UNL     1      -1.980  13.757  21.301  0.00  0.00    +0.000 A 
ATOM     20  N   UNL     1      -1.343  14.172  20.200  0.00  0.00    +0.000 NA
ATOM     21  N   UNL     1      -0.759  15.358  20.553  0.00  0.00    +0.000 N 
ATOM     22  C   UNL     1      -0.899  15.580  21.901  0.00  0.00    +0.000 A 
ENDROOT
BRANCH  21  23
ATOM     23  C   UNL     1      -0.332  16.250  19.546  0.00  0.00    +0.000 A 
ATOM     24  C   UNL     1      -1.254  17.093  18.924  0.00  0.00    +0.000 A 
ATOM     25  C   UNL     1      -0.829  17.995  17.949  0.00  0.00    +0.000 A 
ATOM     26  C   UNL     1       0.509  18.025  17.554  0.00  0.00    +0.000 A 
ATOM     27  C   UNL     1       1.441  17.174  18.175  0.00  0.00    +0.000 A 
ATOM     28  C   UNL     1       1.032  16.292  19.198  0.00  0.00    +0.000 A 
BRANCH  27  29
ATOM     29  N   UNL     1       2.829  17.207  17.699  0.00  0.00    +0.000 N 
ATOM     30  O   UNL     1       3.033  17.179  16.481  0.00  0.00    +0.000 OA
ATOM     31  O   UNL     1       3.722  17.240  18.558  0.00  0.00    +0.000 OA
ENDBRANCH  27  29
ENDBRANCH  21  23
BRANCH   1  32
ATOM     32  C   UNL     1      -7.059  13.131  21.755  0.00  0.00    +0.000 C 
ATOM     33  O   UNL     1      -7.916  13.656  21.051  0.00  0.00    +0.000 OA
BRANCH  32  34
ATOM     34  O   UNL     1      -6.249  12.131  21.305  0.00  0.00    +0.000 OA
BRANCH  34  36
ATOM     35  C   UNL     1      -7.032  10.248  19.889  0.00  0.00    +0.000 C 
ATOM     36  C   UNL     1      -6.511  11.679  19.958  0.00  0.00    +0.000 C 
ENDBRANCH  34  36
ENDBRANCH  32  34
ENDBRANCH   1  32
TORSDOF 5
ENDMDL
MODEL 6
REMARK VINA RESULT:      -6.1      0.836      1.208
REMARK  Name = 
REMARK  9 active torsions:
REMARK  status: ('A' for Active; 'I' for Inactive)
REMARK    1  A    between atoms: C_1  and  C_2
REMARK    2  A    between atoms: C_2  and  O_3
REMARK    3  A    between atoms: O_3  and  C_4
REMARK    4  A    between atoms: C_4  and  C_6
REMARK    5  A    between atoms: C_6  and  C_7
REMARK    6  A    between atoms: C_11  and  C_12
REMARK    7  A    between atoms: C_16  and  C_17
REMARK    8  A    between atoms: N_26  and  C_27
REMARK    9  A    between atoms: C_31  and  N_32
REMARK                            x       y       z     vdW  Elec       q    Type
REMARK                         _______ _______ _______ _____ _____    ______ ____
ROOT
ATOM      1  C   UNL     1      -5.280  13.810  22.532  0.00  0.00    +0.000 C 
ATOM      2  C   UNL     1      -6.599  14.031  21.751  0.00  0.00    +0.000 C 
ATOM      3  C   UNL     1      -5.592  12.962  23.795  0.00  0.00    +0.000 C 
ATOM      4  C   UNL     1      -4.339  12.534  24.582  0.00  0.00    +0.000 C 
ATOM      5  C   UNL     1      -3.109  12.057  23.778  0.00  0.00    +0.000 C 
ATOM      6  C   UNL     1      -2.821  12.775  22.416  0.00  0.00    +0.000 C 
ATOM      7  C   UNL     1      -2.129  14.115  22.712  0.00  0.00    +0.000 C 
ATOM      8  C   UNL     1      -1.794  11.900  21.528  0.00  0.00    +0.000 C 
ATOM      9  C   UNL     1      -0.302  11.887  22.064  0.00  0.00    +0.000 C 
ATOM     10  C   UNL     1       0.805  11.361  21.100  0.00  0.00    +0.000 C 
ATOM     11  C   UNL     1       0.544  11.710  19.624  0.00  0.00    +0.000 C 
ATOM     12  C   UNL     1       1.521  11.107  18.625  0.00  0.00    +0.000 C 
ATOM     13  C   UNL     1      -0.911  11.174  19.294  0.00  0.00    +0.000 C 
ATOM     14  C   UNL     1      -1.831  12.244  19.986  0.00  0.00    +0.000 C 
ATOM     15  C   UNL     1      -3.243  12.231  19.441  0.00  0.00    +0.000 C 
ATOM     16  C   UNL     1      -4.177  13.187  20.199  0.00  0.00    +0.000 C 
ATOM     17  C   UNL     1      -4.226  12.934  21.715  0.00  0.00    +0.000 C 
ATOM     18  C   UNL     1      -1.037  13.474  19.642  0.00  0.00    +0.000 A 
ATOM     19  C   UNL     1      -1.134  14.856  19.578  0.00  0.00    +0.000 A 
ATOM     20  N   UNL     1       0.076  15.418  19.680  0.00  0.00    +0.000 NA
ATOM     21  N   UNL     1       0.953  14.369  19.723  0.00  0.00    +0.000 N 
ATOM     22  C   UNL     1       0.299  13.186  19.481  0.00  0.00    +0.000 A 
ENDROOT
BRANCH  21  23
ATOM     23  C   UNL     1       2.263  14.577  20.206  0.00  0.00    +0.000 A 
ATOM     24  C   UNL     1       2.482  14.762  21.571  0.00  0.00    +0.000 A 
ATOM     25  C   UNL     1       3.779  14.939  22.052  0.00  0.00    +0.000 A 
ATOM     26  C   UNL     1       4.858  14.982  21.169  0.00  0.00    +0.000 A 
ATOM     27  C   UNL     1       4.641  14.800  19.791  0.00  0.00    +0.000 A 
ATOM     28  C   UNL     1       3.340  14.570  19.297  0.00  0.00    +0.000 A 
BRANCH  27  29
ATOM     29  N   UNL     1       5.798  14.896  18.892  0.00  0.00    +0.000 N 
ATOM     30  O   UNL     1       6.919  15.034  19.391  0.00  0.00    +0.000 OA
ATOM     31  O   UNL     1       5.574  14.855  17.674  0.00  0.00    +0.000 OA
ENDBRANCH  27  29
ENDBRANCH  21  23
BRANCH   1  32
ATOM     32  C   UNL     1      -4.902  15.229  23.050  0.00  0.00    +0.000 C 
ATOM     33  O   UNL     1      -4.865  15.539  24.237  0.00  0.00    +0.000 OA
BRANCH  32  34
ATOM     34  O   UNL     1      -4.628  16.113  22.050  0.00  0.00    +0.000 OA
BRANCH  34  36
ATOM     35  C   UNL     1      -4.539  18.520  21.447  0.00  0.00    +0.000 C 
ATOM     36  C   UNL     1      -4.249  17.439  22.481  0.00  0.00    +0.000 C 
ENDBRANCH  34  36
ENDBRANCH  32  34
ENDBRANCH   1  32
TORSDOF 5
ENDMDL
MODEL 7
REMARK VINA RESULT:      -6.1      3.188      5.380
REMARK  Name = 
REMARK  9 active torsions:
REMARK  status: ('A' for Active; 'I' for Inactive)
REMARK    1  A    between atoms: C_1  and  C_2
REMARK    2  A    between atoms: C_2  and  O_3
REMARK    3  A    between atoms: O_3  and  C_4
REMARK    4  A    between atoms: C_4  and  C_6
REMARK    5  A    between atoms: C_6  and  C_7
REMARK    6  A    between atoms: C_11  and  C_12
REMARK    7  A    between atoms: C_16  and  C_17
REMARK    8  A    between atoms: N_26  and  C_27
REMARK    9  A    between atoms: C_31  and  N_32
REMARK                            x       y       z     vdW  Elec       q    Type
REMARK                         _______ _______ _______ _____ _____    ______ ____
ROOT
ATOM      1  C   UNL     1      -4.316  17.101  23.525  0.00  0.00    +0.000 C 
ATOM      2  C   UNL     1      -4.438  17.513  25.013  0.00  0.00    +0.000 C 
ATOM      3  C   UNL     1      -4.792  18.287  22.644  0.00  0.00    +0.000 C 
ATOM      4  C   UNL     1      -4.576  18.069  21.135  0.00  0.00    +0.000 C 
ATOM      5  C   UNL     1      -3.245  17.429  20.682  0.00  0.00    +0.000 C 
ATOM      6  C   UNL     1      -2.631  16.322  21.605  0.00  0.00    +0.000 C 
ATOM      7  C   UNL     1      -3.373  15.004  21.341  0.00  0.00    +0.000 C 
ATOM      8  C   UNL     1      -1.080  16.074  21.227  0.00  0.00    +0.000 C 
ATOM      9  C   UNL     1      -0.848  15.330  19.846  0.00  0.00    +0.000 C 
ATOM     10  C   UNL     1       0.574  14.754  19.568  0.00  0.00    +0.000 C 
ATOM     11  C   UNL     1       1.273  14.220  20.832  0.00  0.00    +0.000 C 
ATOM     12  C   UNL     1       2.714  13.769  20.642  0.00  0.00    +0.000 C 
ATOM     13  C   UNL     1       1.247  15.406  21.884  0.00  0.00    +0.000 C 
ATOM     14  C   UNL     1      -0.244  15.387  22.379  0.00  0.00    +0.000 C 
ATOM     15  C   UNL     1      -0.423  16.099  23.702  0.00  0.00    +0.000 C 
ATOM     16  C   UNL     1      -1.896  16.193  24.129  0.00  0.00    +0.000 C 
ATOM     17  C   UNL     1      -2.803  16.857  23.080  0.00  0.00    +0.000 C 
ATOM     18  C   UNL     1      -0.441  13.897  22.435  0.00  0.00    +0.000 A 
ATOM     19  C   UNL     1      -1.276  12.924  22.963  0.00  0.00    +0.000 A 
ATOM     20  N   UNL     1      -1.207  11.802  22.237  0.00  0.00    +0.000 NA
ATOM     21  N   UNL     1      -0.250  12.048  21.290  0.00  0.00    +0.000 N 
ATOM     22  C   UNL     1       0.375  13.245  21.541  0.00  0.00    +0.000 A 
ENDROOT
BRANCH  21  23
ATOM     23  C   UNL     1      -0.188  11.238  20.136  0.00  0.00    +0.000 A 
ATOM     24  C   UNL     1       0.999  10.582  19.808  0.00  0.00    +0.000 A 
ATOM     25  C   UNL     1       1.055   9.760  18.683  0.00  0.00    +0.000 A 
ATOM     26  C   UNL     1      -0.059   9.626  17.854  0.00  0.00    +0.000 A 
ATOM     27  C   UNL     1      -1.257  10.288  18.179  0.00  0.00    +0.000 A 
ATOM     28  C   UNL     1      -1.340  11.083  19.341  0.00  0.00    +0.000 A 
BRANCH  27  29
ATOM     29  N   UNL     1      -2.391  10.155  17.257  0.00  0.00    +0.000 N 
ATOM     30  O   UNL     1      -3.363   9.483  17.615  0.00  0.00    +0.000 OA
ATOM     31  O   UNL     1      -2.294  10.712  16.154  0.00  0.00    +0.000 OA
ENDBRANCH  27  29
ENDBRANCH  21  23
BRANCH   1  32
ATOM     32  C   UNL     1      -5.385  15.982  23.352  0.00  0.00    +0.000 C 
ATOM     33  O   UNL     1      -6.271  16.003  22.503  0.00  0.00    +0.000 OA
BRANCH  32  34
ATOM     34  O   UNL     1      -5.256  14.968  24.255  0.00  0.00    +0.000 OA
BRANCH  34  36
ATOM     35  C   UNL     1      -4.698  12.551  24.350  0.00  0.00    +0.000 C 
ATOM     36  C   UNL     1      -5.571  13.649  23.756  0.00  0.00    +0.000 C 
ENDBRANCH  34  36
ENDBRANCH  32  34
ENDBRANCH   1  32
TORSDOF 5
ENDMDL
MODEL 8
REMARK VINA RESULT:      -6.1      2.950      5.077
REMARK  Name = 
REMARK  9 active torsions:
REMARK  status: ('A' for Active; 'I' for Inactive)
REMARK    1  A    between atoms: C_1  and  C_2
REMARK    2  A    between atoms: C_2  and  O_3
REMARK    3  A    between atoms: O_3  and  C_4
REMARK    4  A    between atoms: C_4  and  C_6
REMARK    5  A    between atoms: C_6  and  C_7
REMARK    6  A    between atoms: C_11  and  C_12
REMARK    7  A    between atoms: C_16  and  C_17
REMARK    8  A    between atoms: N_26  and  C_27
REMARK    9  A    between atoms: C_31  and  N_32
REMARK                            x       y       z     vdW  Elec       q    Type
REMARK                         _______ _______ _______ _____ _____    ______ ____
ROOT
ATOM      1  C   UNL     1      -2.086  13.394  20.704  0.00  0.00    +0.000 C 
ATOM      2  C   UNL     1      -3.333  14.271  20.981  0.00  0.00    +0.000 C 
ATOM      3  C   UNL     1      -2.486  12.268  19.713  0.00  0.00    +0.000 C 
ATOM      4  C   UNL     1      -1.300  11.414  19.229  0.00  0.00    +0.000 C 
ATOM      5  C   UNL     1       0.016  12.142  18.873  0.00  0.00    +0.000 C 
ATOM      6  C   UNL     1       0.407  13.382  19.746  0.00  0.00    +0.000 C 
ATOM      7  C   UNL     1       1.022  12.876  21.059  0.00  0.00    +0.000 C 
ATOM      8  C   UNL     1       1.541  14.257  18.999  0.00  0.00    +0.000 C 
ATOM      9  C   UNL     1       2.976  13.583  18.961  0.00  0.00    +0.000 C 
ATOM     10  C   UNL     1       4.186  14.486  18.572  0.00  0.00    +0.000 C 
ATOM     11  C   UNL     1       4.053  15.934  19.079  0.00  0.00    +0.000 C 
ATOM     12  C   UNL     1       5.140  16.893  18.614  0.00  0.00    +0.000 C 
ATOM     13  C   UNL     1       2.655  16.460  18.549  0.00  0.00    +0.000 C 
ATOM     14  C   UNL     1       1.639  15.749  19.514  0.00  0.00    +0.000 C 
ATOM     15  C   UNL     1       0.285  16.426  19.530  0.00  0.00    +0.000 C 
ATOM     16  C   UNL     1      -0.748  15.662  20.373  0.00  0.00    +0.000 C 
ATOM     17  C   UNL     1      -0.930  14.196  19.950  0.00  0.00    +0.000 C 
ATOM     18  C   UNL     1       2.419  15.876  20.793  0.00  0.00    +0.000 A 
ATOM     19  C   UNL     1       2.281  15.798  22.171  0.00  0.00    +0.000 A 
ATOM     20  N   UNL     1       3.457  15.518  22.745  0.00  0.00    +0.000 NA
ATOM     21  N   UNL     1       4.361  15.505  21.719  0.00  0.00    +0.000 N 
ATOM     22  C   UNL     1       3.773  15.937  20.556  0.00  0.00    +0.000 A 
ENDROOT
BRANCH  21  23
ATOM     23  C   UNL     1       5.612  14.877  21.901  0.00  0.00    +0.000 A 
ATOM     24  C   UNL     1       6.763  15.443  21.350  0.00  0.00    +0.000 A 
ATOM     25  C   UNL     1       8.003  14.838  21.552  0.00  0.00    +0.000 A 
ATOM     26  C   UNL     1       8.096  13.641  22.263  0.00  0.00    +0.000 A 
ATOM     27  C   UNL     1       6.938  13.066  22.817  0.00  0.00    +0.000 A 
ATOM     28  C   UNL     1       5.684  13.694  22.661  0.00  0.00    +0.000 A 
BRANCH  27  29
ATOM     29  N   UNL     1       7.073  11.785  23.520  0.00  0.00    +0.000 N 
ATOM     30  O   UNL     1       8.118  11.143  23.374  0.00  0.00    +0.000 OA
ATOM     31  O   UNL     1       6.112  11.410  24.207  0.00  0.00    +0.000 OA
ENDBRANCH  27  29
ENDBRANCH  21  23
BRANCH   1  32
ATOM     32  C   UNL     1      -1.807  12.689  22.064  0.00  0.00    +0.000 C 
ATOM     33  O   UNL     1      -1.695  13.281  23.133  0.00  0.00    +0.000 OA
BRANCH  32  34
ATOM     34  O   UNL     1      -1.682  11.336  21.956  0.00  0.00    +0.000 OA
BRANCH  34  36
ATOM     35  C   UNL     1      -0.092   9.605  22.756  0.00  0.00    +0.000 C 
ATOM     36  C   UNL     1      -1.123  10.670  23.110  0.00  0.00    +0.000 C 
ENDBRANCH  34  36
ENDBRANCH  32  34
ENDBRANCH   1  32
TORSDOF 5
ENDMDL
MODEL 9
REMARK VINA RESULT:      -6.1      2.878      4.630
REMARK  Name = 
REMARK  9 active torsions:
REMARK  status: ('A' for Active; 'I' for Inactive)
REMARK    1  A    between atoms: C_1  and  C_2
REMARK    2  A    between atoms: C_2  and  O_3
REMARK    3  A    between atoms: O_3  and  C_4
REMARK    4  A    between atoms: C_4  and  C_6
REMARK    5  A    between atoms: C_6  and  C_7
REMARK    6  A    between atoms: C_11  and  C_12
REMARK    7  A    between atoms: C_16  and  C_17
REMARK    8  A    between atoms: N_26  and  C_27
REMARK    9  A    between atoms: C_31  and  N_32
REMARK                            x       y       z     vdW  Elec       q    Type
REMARK                         _______ _______ _______ _____ _____    ______ ____
ROOT
ATOM      1  C   UNL     1      -2.447  13.415  20.647  0.00  0.00    +0.000 C 
ATOM      2  C   UNL     1      -3.677  14.327  20.879  0.00  0.00    +0.000 C 
ATOM      3  C   UNL     1      -2.861  12.263  19.692  0.00  0.00    +0.000 C 
ATOM      4  C   UNL     1      -1.688  11.367  19.252  0.00  0.00    +0.000 C 
ATOM      5  C   UNL     1      -0.353  12.053  18.887  0.00  0.00    +0.000 C 
ATOM      6  C   UNL     1       0.055  13.316  19.720  0.00  0.00    +0.000 C 
ATOM      7  C   UNL     1       0.645  12.843  21.058  0.00  0.00    +0.000 C 
ATOM      8  C   UNL     1       1.217  14.139  18.957  0.00  0.00    +0.000 C 
ATOM      9  C   UNL     1       2.637  13.433  18.960  0.00  0.00    +0.000 C 
ATOM     10  C   UNL     1       3.871  14.296  18.553  0.00  0.00    +0.000 C 
ATOM     11  C   UNL     1       3.764  15.763  19.007  0.00  0.00    +0.000 C 
ATOM     12  C   UNL     1       4.877  16.681  18.522  0.00  0.00    +0.000 C 
ATOM     13  C   UNL     1       2.383  16.300  18.443  0.00  0.00    +0.000 C 
ATOM     14  C   UNL     1       1.341  15.645  19.420  0.00  0.00    +0.000 C 
ATOM     15  C   UNL     1       0.002  16.351  19.395  0.00  0.00    +0.000 C 
ATOM     16  C   UNL     1      -1.057  15.641  20.252  0.00  0.00    +0.000 C 
ATOM     17  C   UNL     1      -1.266  14.164  19.879  0.00  0.00    +0.000 C 
ATOM     18  C   UNL     1       2.110  15.801  20.702  0.00  0.00    +0.000 A 
ATOM     19  C   UNL     1       1.955  15.775  22.080  0.00  0.00    +0.000 A 
ATOM     20  N   UNL     1       3.118  15.491  22.678  0.00  0.00    +0.000 NA
ATOM     21  N   UNL     1       4.033  15.421  21.664  0.00  0.00    +0.000 N 
ATOM     22  C   UNL     1       3.467  15.825  20.480  0.00  0.00    +0.000 A 
ENDROOT
BRANCH  21  23
ATOM     23  C   UNL     1       5.268  14.774  21.883  0.00  0.00    +0.000 A 
ATOM     24  C   UNL     1       6.429  15.268  21.289  0.00  0.00    +0.000 A 
ATOM     25  C   UNL     1       7.654  14.646  21.526  0.00  0.00    +0.000 A 
ATOM     26  C   UNL     1       7.719  13.499  22.318  0.00  0.00    +0.000 A 
ATOM     27  C   UNL     1       6.550  12.995  22.916  0.00  0.00    +0.000 A 
ATOM     28  C   UNL     1       5.313  13.645  22.724  0.00  0.00    +0.000 A 
BRANCH  27  29
ATOM     29  N   UNL     1       6.656  11.763  23.706  0.00  0.00    +0.000 N 
ATOM     30  O   UNL     1       7.749  11.190  23.756  0.00  0.00    +0.000 OA
ATOM     31  O   UNL     1       5.626  11.355  24.263  0.00  0.00    +0.000 OA
ENDBRANCH  27  29
ENDBRANCH  21  23
BRANCH   1  32
ATOM     32  C   UNL     1      -2.199  12.753  22.035  0.00  0.00    +0.000 C 
ATOM     33  O   UNL     1      -1.859  11.584  22.187  0.00  0.00    +0.000 OA
BRANCH  32  34
ATOM     34  O   UNL     1      -2.413  13.599  23.082  0.00  0.00    +0.000 OA
BRANCH  34  36
ATOM     35  C   UNL     1      -1.262  15.619  23.955  0.00  0.00    +0.000 C 
ATOM     36  C   UNL     1      -1.221  14.114  23.717  0.00  0.00    +0.000 C 
ENDBRANCH  34  36
ENDBRANCH  32  34
ENDBRANCH   1  32
TORSDOF 5
ENDMDL
