MODEL 1
REMARK VINA RESULT:      -7.3      0.000      0.000
REMARK  Name = 
REMARK  13 active torsions:
REMARK  status: ('A' for Active; 'I' for Inactive)
REMARK    1  A    between atoms: C_1  and  C_2
REMARK    2  A    between atoms: C_2  and  C_3
REMARK    3  A    between atoms: C_2  and  O_4
REMARK    4  A    between atoms: O_4  and  C_5
REMARK    5  A    between atoms: C_8  and  N_9
REMARK    6  A    between atoms: N_14  and  C_15
REMARK    7  A    between atoms: C_15  and  C_16
REMARK    8  A    between atoms: C_16  and  C_17
REMARK    9  A    between atoms: C_16  and  C_18
REMARK   10  A    between atoms: C_16  and  C_19
REMARK   11  A    between atoms: C_19  and  N_20
REMARK   12  A    between atoms: N_23  and  C_24
REMARK   13  A    between atoms: C_24  and  C_25
REMARK                            x       y       z     vdW  Elec       q    Type
REMARK                         _______ _______ _______ _____ _____    ______ ____
ROOT
ATOM      1  N   UNL     1      -0.265  10.399  20.854  0.00  0.00    +0.000 N 
ATOM      2  C   UNL     1       0.092  11.740  20.865  0.00  0.00    +0.000 A 
ATOM      3  N   UNL     1       1.316  12.049  21.142  0.00  0.00    +0.000 NA
ATOM      4  C   UNL     1       1.757  13.329  21.084  0.00  0.00    +0.000 A 
ATOM      5  O   UNL     1       2.852  13.624  21.554  0.00  0.00    +0.000 OA
ATOM      6  N   UNL     1       0.944  14.257  20.471  0.00  0.00    +0.000 N 
ATOM      7  C   UNL     1      -0.408  14.041  20.458  0.00  0.00    +0.000 A 
ATOM      8  O   UNL     1      -1.212  14.971  20.357  0.00  0.00    +0.000 OA
ATOM      9  N   UNL     1      -0.825  12.733  20.574  0.00  0.00    +0.000 N 
ATOM     10  H   UNL     1      -1.199  10.170  20.535  0.00  0.00    +0.000 HD
ENDROOT
BRANCH   1  14
ATOM     11  C   UNL     1       2.343   7.425  19.278  0.00  0.00    +0.000 A 
ATOM     12  C   UNL     1       1.851   7.319  20.583  0.00  0.00    +0.000 A 
ATOM     13  C   UNL     1       0.997   8.303  21.112  0.00  0.00    +0.000 A 
ATOM     14  C   UNL     1       0.638   9.417  20.344  0.00  0.00    +0.000 A 
ATOM     15  C   UNL     1       1.102   9.488  19.025  0.00  0.00    +0.000 A 
ATOM     16  C   UNL     1       1.933   8.505  18.502  0.00  0.00    +0.000 A 
ATOM     17  F   UNL     1       2.293   8.626  17.216  0.00  0.00    +0.000 F 
BRANCH  11  18
ATOM     18  O   UNL     1       3.165   6.413  18.859  0.00  0.00    +0.000 OA
BRANCH  18  20
ATOM     19  C   UNL     1       1.915   4.640  17.864  0.00  0.00    +0.000 C 
ATOM     20  C   UNL     1       2.708   5.070  19.093  0.00  0.00    +0.000 C 
ATOM     21  C   UNL     1       3.908   4.148  19.300  0.00  0.00    +0.000 C 
ENDBRANCH  18  20
ENDBRANCH  11  18
ENDBRANCH   1  14
BRANCH   6  22
ATOM     22  C   UNL     1       1.460  15.611  20.258  0.00  0.00    +0.000 C 
BRANCH  22  23
ATOM     23  C   UNL     1       2.283  15.843  18.944  0.00  0.00    +0.000 C 
ATOM     24  C   UNL     1       1.514  16.916  18.131  0.00  0.00    +0.000 C 
ATOM     25  C   UNL     1       3.693  16.370  19.275  0.00  0.00    +0.000 C 
BRANCH  23  26
ATOM     26  C   UNL     1       2.395  14.547  18.095  0.00  0.00    +0.000 C 
BRANCH  26  27
ATOM     27  N   UNL     1       3.774  14.106  17.864  0.00  0.00    +0.000 NA
ATOM     28  H   UNL     1       3.813  13.089  17.824  0.00  0.00    +0.000 HD
ATOM     29  H   UNL     1       4.343  14.370  18.669  0.00  0.00    +0.000 HD
ENDBRANCH  26  27
ENDBRANCH  23  26
ENDBRANCH  22  23
ENDBRANCH   6  22
BRANCH   9  30
ATOM     30  C   UNL     1      -2.253  12.477  20.377  0.00  0.00    +0.000 C 
BRANCH  30  31
ATOM     31  C   UNL     1      -2.615  12.020  18.974  0.00  0.00    +0.000 A 
ATOM     32  C   UNL     1      -3.966  11.778  18.671  0.00  0.00    +0.000 A 
ATOM     33  C   UNL     1      -4.334  11.252  17.431  0.00  0.00    +0.000 A 
ATOM     34  C   UNL     1      -3.357  10.984  16.475  0.00  0.00    +0.000 A 
ATOM     35 CL   UNL     1      -3.796  10.235  14.990  0.00  0.00    +0.000 Cl
ATOM     36  C   UNL     1      -2.026  11.303  16.724  0.00  0.00    +0.000 A 
ATOM     37  C   UNL     1      -1.659  11.837  17.963  0.00  0.00    +0.000 A 
ENDBRANCH  30  31
ENDBRANCH   9  30
TORSDOF 9
ENDMDL
MODEL 2
REMARK VINA RESULT:      -7.2      0.587      1.014
REMARK  Name = 
REMARK  13 active torsions:
REMARK  status: ('A' for Active; 'I' for Inactive)
REMARK    1  A    between atoms: C_1  and  C_2
REMARK    2  A    between atoms: C_2  and  C_3
REMARK    3  A    between atoms: C_2  and  O_4
REMARK    4  A    between atoms: O_4  and  C_5
REMARK    5  A    between atoms: C_8  and  N_9
REMARK    6  A    between atoms: N_14  and  C_15
REMARK    7  A    between atoms: C_15  and  C_16
REMARK    8  A    between atoms: C_16  and  C_17
REMARK    9  A    between atoms: C_16  and  C_18
REMARK   10  A    between atoms: C_16  and  C_19
REMARK   11  A    between atoms: C_19  and  N_20
REMARK   12  A    between atoms: N_23  and  C_24
REMARK   13  A    between atoms: C_24  and  C_25
REMARK                            x       y       z     vdW  Elec       q    Type
REMARK                         _______ _______ _______ _____ _____    ______ ____
ROOT
ATOM      1  N   UNL     1      -0.340  10.368  20.890  0.00  0.00    +0.000 N 
ATOM      2  C   UNL     1       0.000  11.714  20.892  0.00  0.00    +0.000 A 
ATOM      3  N   UNL     1       1.215  12.040  21.188  0.00  0.00    +0.000 NA
ATOM      4  C   UNL     1       1.642  13.325  21.124  0.00  0.00    +0.000 A 
ATOM      5  O   UNL     1       2.724  13.639  21.611  0.00  0.00    +0.000 OA
ATOM      6  N   UNL     1       0.829  14.237  20.486  0.00  0.00    +0.000 N 
ATOM      7  C   UNL     1      -0.520  14.004  20.451  0.00  0.00    +0.000 A 
ATOM      8  O   UNL     1      -1.333  14.923  20.326  0.00  0.00    +0.000 OA
ATOM      9  N   UNL     1      -0.923  12.692  20.573  0.00  0.00    +0.000 N 
ATOM     10  H   UNL     1      -1.265  10.125  20.556  0.00  0.00    +0.000 HD
ENDROOT
BRANCH   1  14
ATOM     11  C   UNL     1       2.333   7.410  19.394  0.00  0.00    +0.000 A 
ATOM     12  C   UNL     1       1.817   7.311  20.690  0.00  0.00    +0.000 A 
ATOM     13  C   UNL     1       0.941   8.290  21.193  0.00  0.00    +0.000 A 
ATOM     14  C   UNL     1       0.584   9.393  20.407  0.00  0.00    +0.000 A 
ATOM     15  C   UNL     1       1.072   9.456  19.096  0.00  0.00    +0.000 A 
ATOM     16  C   UNL     1       1.924   8.477  18.599  0.00  0.00    +0.000 A 
ATOM     17  F   UNL     1       2.308   8.589  17.319  0.00  0.00    +0.000 F 
BRANCH  11  18
ATOM     18  O   UNL     1       3.174   6.404  19.001  0.00  0.00    +0.000 OA
BRANCH  18  20
ATOM     19  C   UNL     1       3.963   4.939  17.289  0.00  0.00    +0.000 C 
ATOM     20  C   UNL     1       2.726   5.571  17.918  0.00  0.00    +0.000 C 
ATOM     21  C   UNL     1       1.790   4.490  18.455  0.00  0.00    +0.000 C 
ENDBRANCH  18  20
ENDBRANCH  11  18
ENDBRANCH   1  14
BRANCH   6  22
ATOM     22  C   UNL     1       1.333  15.594  20.268  0.00  0.00    +0.000 C 
BRANCH  22  23
ATOM     23  C   UNL     1       2.151  15.829  18.952  0.00  0.00    +0.000 C 
ATOM     24  C   UNL     1       2.126  14.488  18.176  0.00  0.00    +0.000 C 
ATOM     25  C   UNL     1       1.490  16.925  18.093  0.00  0.00    +0.000 C 
BRANCH  23  26
ATOM     26  C   UNL     1       3.626  16.217  19.249  0.00  0.00    +0.000 C 
BRANCH  26  27
ATOM     27  N   UNL     1       4.467  15.087  19.652  0.00  0.00    +0.000 NA
ATOM     28  H   UNL     1       5.093  15.369  20.404  0.00  0.00    +0.000 HD
ATOM     29  H   UNL     1       5.074  14.833  18.872  0.00  0.00    +0.000 HD
ENDBRANCH  26  27
ENDBRANCH  23  26
ENDBRANCH  22  23
ENDBRANCH   6  22
BRANCH   9  30
ATOM     30  C   UNL     1      -2.344  12.417  20.354  0.00  0.00    +0.000 C 
BRANCH  30  31
ATOM     31  C   UNL     1      -2.679  11.969  18.941  0.00  0.00    +0.000 A 
ATOM     32  C   UNL     1      -4.027  11.767  18.599  0.00  0.00    +0.000 A 
ATOM     33  C   UNL     1      -4.374  11.251  17.349  0.00  0.00    +0.000 A 
ATOM     34  C   UNL     1      -3.379  10.953  16.421  0.00  0.00    +0.000 A 
ATOM     35 CL   UNL     1      -3.797  10.217  14.925  0.00  0.00    +0.000 Cl
ATOM     36  C   UNL     1      -2.047  11.234  16.709  0.00  0.00    +0.000 A 
ATOM     37  C   UNL     1      -1.700  11.758  17.958  0.00  0.00    +0.000 A 
ENDBRANCH  30  31
ENDBRANCH   9  30
TORSDOF 9
ENDMDL
MODEL 3
REMARK VINA RESULT:      -7.2      0.805      1.128
REMARK  Name = 
REMARK  13 active torsions:
REMARK  status: ('A' for Active; 'I' for Inactive)
REMARK    1  A    between atoms: C_1  and  C_2
REMARK    2  A    between atoms: C_2  and  C_3
REMARK    3  A    between atoms: C_2  and  O_4
REMARK    4  A    between atoms: O_4  and  C_5
REMARK    5  A    between atoms: C_8  and  N_9
REMARK    6  A    between atoms: N_14  and  C_15
REMARK    7  A    between atoms: C_15  and  C_16
REMARK    8  A    between atoms: C_16  and  C_17
REMARK    9  A    between atoms: C_16  and  C_18
REMARK   10  A    between atoms: C_16  and  C_19
REMARK   11  A    between atoms: C_19  and  N_20
REMARK   12  A    between atoms: N_23  and  C_24
REMARK   13  A    between atoms: C_24  and  C_25
REMARK                            x       y       z     vdW  Elec       q    Type
REMARK                         _______ _______ _______ _____ _____    ______ ____
ROOT
ATOM      1  N   UNL     1      -0.521  10.487  20.928  0.00  0.00    +0.000 N 
ATOM      2  C   UNL     1      -0.188  11.835  20.922  0.00  0.00    +0.000 A 
ATOM      3  N   UNL     1       1.016  12.173  21.247  0.00  0.00    +0.000 NA
ATOM      4  C   UNL     1       1.437  13.459  21.178  0.00  0.00    +0.000 A 
ATOM      5  O   UNL     1       2.503  13.785  21.691  0.00  0.00    +0.000 OA
ATOM      6  N   UNL     1       0.638  14.357  20.505  0.00  0.00    +0.000 N 
ATOM      7  C   UNL     1      -0.709  14.116  20.434  0.00  0.00    +0.000 A 
ATOM      8  O   UNL     1      -1.523  15.028  20.274  0.00  0.00    +0.000 OA
ATOM      9  N   UNL     1      -1.108  12.803  20.564  0.00  0.00    +0.000 N 
ATOM     10  H   UNL     1      -1.435  10.234  20.571  0.00  0.00    +0.000 HD
ENDROOT
BRANCH   1  14
ATOM     11  C   UNL     1       2.210   7.526  19.548  0.00  0.00    +0.000 A 
ATOM     12  C   UNL     1       1.656   7.440  20.829  0.00  0.00    +0.000 A 
ATOM     13  C   UNL     1       0.761   8.420  21.293  0.00  0.00    +0.000 A 
ATOM     14  C   UNL     1       0.422   9.511  20.484  0.00  0.00    +0.000 A 
ATOM     15  C   UNL     1       0.949   9.561  19.188  0.00  0.00    +0.000 A 
ATOM     16  C   UNL     1       1.820   8.581  18.729  0.00  0.00    +0.000 A 
ATOM     17  F   UNL     1       2.241   8.680  17.459  0.00  0.00    +0.000 F 
BRANCH  11  18
ATOM     18  O   UNL     1       3.068   6.520  19.192  0.00  0.00    +0.000 OA
BRANCH  18  20
ATOM     19  C   UNL     1       3.705   5.063  17.412  0.00  0.00    +0.000 C 
ATOM     20  C   UNL     1       2.553   5.515  18.302  0.00  0.00    +0.000 C 
ATOM     21  C   UNL     1       2.014   4.338  19.113  0.00  0.00    +0.000 C 
ENDBRANCH  18  20
ENDBRANCH  11  18
ENDBRANCH   1  14
BRANCH   6  22
ATOM     22  C   UNL     1       1.140  15.714  20.283  0.00  0.00    +0.000 C 
BRANCH  22  23
ATOM     23  C   UNL     1       2.058  15.920  19.029  0.00  0.00    +0.000 C 
ATOM     24  C   UNL     1       3.437  16.379  19.568  0.00  0.00    +0.000 C 
ATOM     25  C   UNL     1       2.229  14.595  18.261  0.00  0.00    +0.000 C 
BRANCH  23  26
ATOM     26  C   UNL     1       1.498  17.009  18.074  0.00  0.00    +0.000 C 
BRANCH  26  27
ATOM     27  N   UNL     1       2.473  17.500  17.096  0.00  0.00    +0.000 NA
ATOM     28  H   UNL     1       2.214  17.191  16.161  0.00  0.00    +0.000 HD
ATOM     29  H   UNL     1       3.377  17.066  17.287  0.00  0.00    +0.000 HD
ENDBRANCH  26  27
ENDBRANCH  23  26
ENDBRANCH  22  23
ENDBRANCH   6  22
BRANCH   9  30
ATOM     30  C   UNL     1      -2.521  12.517  20.308  0.00  0.00    +0.000 C 
BRANCH  30  31
ATOM     31  C   UNL     1      -2.807  12.006  18.905  0.00  0.00    +0.000 A 
ATOM     32  C   UNL     1      -4.138  11.736  18.544  0.00  0.00    +0.000 A 
ATOM     33  C   UNL     1      -4.437  11.164  17.306  0.00  0.00    +0.000 A 
ATOM     34  C   UNL     1      -3.411  10.876  16.409  0.00  0.00    +0.000 A 
ATOM     35 CL   UNL     1      -3.766  10.072  14.932  0.00  0.00    +0.000 Cl
ATOM     36  C   UNL     1      -2.097  11.223  16.713  0.00  0.00    +0.000 A 
ATOM     37  C   UNL     1      -1.799  11.803  17.949  0.00  0.00    +0.000 A 
ENDBRANCH  30  31
ENDBRANCH   9  30
TORSDOF 9
ENDMDL
MODEL 4
REMARK VINA RESULT:      -7.1      2.069      2.635
REMARK  Name = 
REMARK  13 active torsions:
REMARK  status: ('A' for Active; 'I' for Inactive)
REMARK    1  A    between atoms: C_1  and  C_2
REMARK    2  A    between atoms: C_2  and  C_3
REMARK    3  A    between atoms: C_2  and  O_4
REMARK    4  A    between atoms: O_4  and  C_5
REMARK    5  A    between atoms: C_8  and  N_9
REMARK    6  A    between atoms: N_14  and  C_15
REMARK    7  A    between atoms: C_15  and  C_16
REMARK    8  A    between atoms: C_16  and  C_17
REMARK    9  A    between atoms: C_16  and  C_18
REMARK   10  A    between atoms: C_16  and  C_19
REMARK   11  A    between atoms: C_19  and  N_20
REMARK   12  A    between atoms: N_23  and  C_24
REMARK   13  A    between atoms: C_24  and  C_25
REMARK                            x       y       z     vdW  Elec       q    Type
REMARK                         _______ _______ _______ _____ _____    ______ ____
ROOT
ATOM      1  N   UNL     1      -0.182  10.559  20.378  0.00  0.00    +0.000 N 
ATOM      2  C   UNL     1       0.259  11.871  20.469  0.00  0.00    +0.000 A 
ATOM      3  N   UNL     1       1.437  12.092  20.953  0.00  0.00    +0.000 NA
ATOM      4  C   UNL     1       1.969  13.338  20.990  0.00  0.00    +0.000 A 
ATOM      5  O   UNL     1       2.985  13.554  21.643  0.00  0.00    +0.000 OA
ATOM      6  N   UNL     1       1.338  14.323  20.262  0.00  0.00    +0.000 N 
ATOM      7  C   UNL     1      -0.004  14.203  20.016  0.00  0.00    +0.000 A 
ATOM      8  O   UNL     1      -0.713  15.187  19.795  0.00  0.00    +0.000 OA
ATOM      9  N   UNL     1      -0.524  12.927  20.041  0.00  0.00    +0.000 N 
ATOM     10  H   UNL     1      -1.062  10.397  19.902  0.00  0.00    +0.000 HD
ENDROOT
BRANCH   1  14
ATOM     11  C   UNL     1       2.439   7.404  19.237  0.00  0.00    +0.000 A 
ATOM     12  C   UNL     1       1.864   7.423  20.512  0.00  0.00    +0.000 A 
ATOM     13  C   UNL     1       1.005   8.468  20.897  0.00  0.00    +0.000 A 
ATOM     14  C   UNL     1       0.724   9.517  20.014  0.00  0.00    +0.000 A 
ATOM     15  C   UNL     1       1.272   9.462  18.727  0.00  0.00    +0.000 A 
ATOM     16  C   UNL     1       2.107   8.419  18.346  0.00  0.00    +0.000 A 
ATOM     17  F   UNL     1       2.550   8.419  17.080  0.00  0.00    +0.000 F 
BRANCH  11  18
ATOM     18  O   UNL     1       3.259   6.342  18.961  0.00  0.00    +0.000 OA
BRANCH  18  20
ATOM     19  C   UNL     1       1.925   4.679  17.885  0.00  0.00    +0.000 C 
ATOM     20  C   UNL     1       2.702   5.029  19.150  0.00  0.00    +0.000 C 
ATOM     21  C   UNL     1       3.828   4.022  19.377  0.00  0.00    +0.000 C 
ENDBRANCH  18  20
ENDBRANCH  11  18
ENDBRANCH   1  14
BRANCH   6  22
ATOM     22  C   UNL     1       1.975  15.637  20.159  0.00  0.00    +0.000 C 
BRANCH  22  23
ATOM     23  C   UNL     1       2.756  15.930  18.832  0.00  0.00    +0.000 C 
ATOM     24  C   UNL     1       1.898  16.945  18.034  0.00  0.00    +0.000 C 
ATOM     25  C   UNL     1       4.129  16.558  19.139  0.00  0.00    +0.000 C 
BRANCH  23  26
ATOM     26  C   UNL     1       2.948  14.646  17.978  0.00  0.00    +0.000 C 
BRANCH  26  27
ATOM     27  N   UNL     1       4.350  14.266  17.785  0.00  0.00    +0.000 NA
ATOM     28  H   UNL     1       4.490  13.296  18.061  0.00  0.00    +0.000 HD
ATOM     29  H   UNL     1       4.931  14.817  18.418  0.00  0.00    +0.000 HD
ENDBRANCH  26  27
ENDBRANCH  23  26
ENDBRANCH  22  23
ENDBRANCH   6  22
BRANCH   9  30
ATOM     30  C   UNL     1      -1.912  12.773  19.601  0.00  0.00    +0.000 C 
BRANCH  30  31
ATOM     31  C   UNL     1      -2.924  12.749  20.734  0.00  0.00    +0.000 A 
ATOM     32  C   UNL     1      -4.292  12.783  20.418  0.00  0.00    +0.000 A 
ATOM     33  C   UNL     1      -5.254  12.873  21.427  0.00  0.00    +0.000 A 
ATOM     34  C   UNL     1      -4.857  12.908  22.761  0.00  0.00    +0.000 A 
ATOM     35 CL   UNL     1      -6.031  13.128  23.998  0.00  0.00    +0.000 Cl
ATOM     36  C   UNL     1      -3.512  12.781  23.096  0.00  0.00    +0.000 A 
ATOM     37  C   UNL     1      -2.550  12.683  22.086  0.00  0.00    +0.000 A 
ENDBRANCH  30  31
ENDBRANCH   9  30
TORSDOF 9
ENDMDL
MODEL 5
REMARK VINA RESULT:      -7.1      0.488      1.008
REMARK  Name = 
REMARK  13 active torsions:
REMARK  status: ('A' for Active; 'I' for Inactive)
REMARK    1  A    between atoms: C_1  and  C_2
REMARK    2  A    between atoms: C_2  and  C_3
REMARK    3  A    between atoms: C_2  and  O_4
REMARK    4  A    between atoms: O_4  and  C_5
REMARK    5  A    between atoms: C_8  and  N_9
REMARK    6  A    between atoms: N_14  and  C_15
REMARK    7  A    between atoms: C_15  and  C_16
REMARK    8  A    between atoms: C_16  and  C_17
REMARK    9  A    between atoms: C_16  and  C_18
REMARK   10  A    between atoms: C_16  and  C_19
REMARK   11  A    between atoms: C_19  and  N_20
REMARK   12  A    between atoms: N_23  and  C_24
REMARK   13  A    between atoms: C_24  and  C_25
REMARK                            x       y       z     vdW  Elec       q    Type
REMARK                         _______ _______ _______ _____ _____    ______ ____
ROOT
ATOM      1  N   UNL     1      -0.413  10.510  20.908  0.00  0.00    +0.000 N 
ATOM      2  C   UNL     1      -0.045  11.848  20.874  0.00  0.00    +0.000 A 
ATOM      3  N   UNL     1       1.174  12.158  21.172  0.00  0.00    +0.000 NA
ATOM      4  C   UNL     1       1.629  13.431  21.074  0.00  0.00    +0.000 A 
ATOM      5  O   UNL     1       2.712  13.736  21.563  0.00  0.00    +0.000 OA
ATOM      6  N   UNL     1       0.841  14.340  20.401  0.00  0.00    +0.000 N 
ATOM      7  C   UNL     1      -0.512  14.134  20.358  0.00  0.00    +0.000 A 
ATOM      8  O   UNL     1      -1.304  15.065  20.198  0.00  0.00    +0.000 OA
ATOM      9  N   UNL     1      -0.944  12.835  20.516  0.00  0.00    +0.000 N 
ATOM     10  H   UNL     1      -1.340  10.276  20.572  0.00  0.00    +0.000 HD
ENDROOT
BRANCH   1  14
ATOM     11  C   UNL     1       2.212   7.455  19.528  0.00  0.00    +0.000 A 
ATOM     12  C   UNL     1       1.665   7.394  20.814  0.00  0.00    +0.000 A 
ATOM     13  C   UNL     1       0.805   8.405  21.278  0.00  0.00    +0.000 A 
ATOM     14  C   UNL     1       0.495   9.501  20.464  0.00  0.00    +0.000 A 
ATOM     15  C   UNL     1       1.014   9.527  19.164  0.00  0.00    +0.000 A 
ATOM     16  C   UNL     1       1.851   8.517  18.705  0.00  0.00    +0.000 A 
ATOM     17  F   UNL     1       2.265   8.595  17.432  0.00  0.00    +0.000 F 
BRANCH  11  18
ATOM     18  O   UNL     1       3.035   6.419  19.173  0.00  0.00    +0.000 OA
BRANCH  18  20
ATOM     19  C   UNL     1       3.799   5.077  17.353  0.00  0.00    +0.000 C 
ATOM     20  C   UNL     1       2.572   5.557  18.119  0.00  0.00    +0.000 C 
ATOM     21  C   UNL     1       1.822   4.370  18.720  0.00  0.00    +0.000 C 
ENDBRANCH  18  20
ENDBRANCH  11  18
ENDBRANCH   1  14
BRANCH   6  22
ATOM     22  C   UNL     1       1.376  15.679  20.148  0.00  0.00    +0.000 C 
BRANCH  22  23
ATOM     23  C   UNL     1       2.276  15.840  18.875  0.00  0.00    +0.000 C 
ATOM     24  C   UNL     1       1.641  16.975  18.031  0.00  0.00    +0.000 C 
ATOM     25  C   UNL     1       3.709  16.243  19.273  0.00  0.00    +0.000 C 
BRANCH  23  26
ATOM     26  C   UNL     1       2.316  14.539  18.027  0.00  0.00    +0.000 C 
BRANCH  26  27
ATOM     27  N   UNL     1       3.640  13.915  17.959  0.00  0.00    +0.000 NA
ATOM     28  H   UNL     1       4.049  13.863  18.890  0.00  0.00    +0.000 HD
ATOM     29  H   UNL     1       4.261  14.519  17.420  0.00  0.00    +0.000 HD
ENDBRANCH  26  27
ENDBRANCH  23  26
ENDBRANCH  22  23
ENDBRANCH   6  22
BRANCH   9  30
ATOM     30  C   UNL     1      -2.368  12.583  20.290  0.00  0.00    +0.000 C 
BRANCH  30  31
ATOM     31  C   UNL     1      -2.681  11.950  18.945  0.00  0.00    +0.000 A 
ATOM     32  C   UNL     1      -1.632  11.752  18.032  0.00  0.00    +0.000 A 
ATOM     33  C   UNL     1      -1.889  11.276  16.744  0.00  0.00    +0.000 A 
ATOM     34  C   UNL     1      -3.194  10.973  16.365  0.00  0.00    +0.000 A 
ATOM     35 CL   UNL     1      -3.526  10.492  14.748  0.00  0.00    +0.000 Cl
ATOM     36  C   UNL     1      -4.233  11.075  17.286  0.00  0.00    +0.000 A 
ATOM     37  C   UNL     1      -3.974  11.544  18.577  0.00  0.00    +0.000 A 
ENDBRANCH  30  31
ENDBRANCH   9  30
TORSDOF 9
ENDMDL
MODEL 6
REMARK VINA RESULT:      -7.0      0.809      1.442
REMARK  Name = 
REMARK  13 active torsions:
REMARK  status: ('A' for Active; 'I' for Inactive)
REMARK    1  A    between atoms: C_1  and  C_2
REMARK    2  A    between atoms: C_2  and  C_3
REMARK    3  A    between atoms: C_2  and  O_4
REMARK    4  A    between atoms: O_4  and  C_5
REMARK    5  A    between atoms: C_8  and  N_9
REMARK    6  A    between atoms: N_14  and  C_15
REMARK    7  A    between atoms: C_15  and  C_16
REMARK    8  A    between atoms: C_16  and  C_17
REMARK    9  A    between atoms: C_16  and  C_18
REMARK   10  A    between atoms: C_16  and  C_19
REMARK   11  A    between atoms: C_19  and  N_20
REMARK   12  A    between atoms: N_23  and  C_24
REMARK   13  A    between atoms: C_24  and  C_25
REMARK                            x       y       z     vdW  Elec       q    Type
REMARK                         _______ _______ _______ _____ _____    ______ ____
ROOT
ATOM      1  N   UNL     1      -0.561  10.532  20.906  0.00  0.00    +0.000 N 
ATOM      2  C   UNL     1      -0.239  11.882  20.937  0.00  0.00    +0.000 A 
ATOM      3  N   UNL     1       0.964  12.219  21.266  0.00  0.00    +0.000 NA
ATOM      4  C   UNL     1       1.375  13.511  21.232  0.00  0.00    +0.000 A 
ATOM      5  O   UNL     1       2.441  13.830  21.749  0.00  0.00    +0.000 OA
ATOM      6  N   UNL     1       0.565  14.422  20.589  0.00  0.00    +0.000 N 
ATOM      7  C   UNL     1      -0.780  14.172  20.518  0.00  0.00    +0.000 A 
ATOM      8  O   UNL     1      -1.601  15.081  20.389  0.00  0.00    +0.000 OA
ATOM      9  N   UNL     1      -1.168  12.853  20.612  0.00  0.00    +0.000 N 
ATOM     10  H   UNL     1      -1.475  10.282  20.547  0.00  0.00    +0.000 HD
ENDROOT
BRANCH   1  14
ATOM     11  C   UNL     1       2.184   7.632  19.430  0.00  0.00    +0.000 A 
ATOM     12  C   UNL     1       1.655   7.517  20.720  0.00  0.00    +0.000 A 
ATOM     13  C   UNL     1       0.755   8.477  21.215  0.00  0.00    +0.000 A 
ATOM     14  C   UNL     1       0.387   9.576  20.430  0.00  0.00    +0.000 A 
ATOM     15  C   UNL     1       0.890   9.654  19.126  0.00  0.00    +0.000 A 
ATOM     16  C   UNL     1       1.766   8.695  18.635  0.00  0.00    +0.000 A 
ATOM     17  F   UNL     1       2.162   8.820  17.361  0.00  0.00    +0.000 F 
BRANCH  11  18
ATOM     18  O   UNL     1       3.049   6.643  19.043  0.00  0.00    +0.000 OA
BRANCH  18  20
ATOM     19  C   UNL     1       1.917   4.847  17.952  0.00  0.00    +0.000 C 
ATOM     20  C   UNL     1       2.611   5.287  19.237  0.00  0.00    +0.000 C 
ATOM     21  C   UNL     1       3.816   4.394  19.522  0.00  0.00    +0.000 C 
ENDBRANCH  18  20
ENDBRANCH  11  18
ENDBRANCH   1  14
BRANCH   6  22
ATOM     22  C   UNL     1       1.056  15.788  20.403  0.00  0.00    +0.000 C 
BRANCH  22  23
ATOM     23  C   UNL     1       1.826  16.076  19.069  0.00  0.00    +0.000 C 
ATOM     24  C   UNL     1       3.184  16.703  19.475  0.00  0.00    +0.000 C 
ATOM     25  C   UNL     1       2.082  14.766  18.299  0.00  0.00    +0.000 C 
BRANCH  23  26
ATOM     26  C   UNL     1       1.057  17.074  18.161  0.00  0.00    +0.000 C 
BRANCH  26  27
ATOM     27  N   UNL     1      -0.394  16.874  18.154  0.00  0.00    +0.000 NA
ATOM     28  H   UNL     1      -0.809  17.351  17.355  0.00  0.00    +0.000 HD
ATOM     29  H   UNL     1      -0.793  17.325  18.978  0.00  0.00    +0.000 HD
ENDBRANCH  26  27
ENDBRANCH  23  26
ENDBRANCH  22  23
ENDBRANCH   6  22
BRANCH   9  30
ATOM     30  C   UNL     1      -2.580  12.563  20.355  0.00  0.00    +0.000 C 
BRANCH  30  31
ATOM     31  C   UNL     1      -2.848  11.936  18.997  0.00  0.00    +0.000 A 
ATOM     32  C   UNL     1      -1.791  11.845  18.075  0.00  0.00    +0.000 A 
ATOM     33  C   UNL     1      -2.016  11.378  16.779  0.00  0.00    +0.000 A 
ATOM     34  C   UNL     1      -3.295  10.976  16.398  0.00  0.00    +0.000 A 
ATOM     35 CL   UNL     1      -3.596  10.505  14.773  0.00  0.00    +0.000 Cl
ATOM     36  C   UNL     1      -4.332  10.972  17.326  0.00  0.00    +0.000 A 
ATOM     37  C   UNL     1      -4.105  11.432  18.626  0.00  0.00    +0.000 A 
ENDBRANCH  30  31
ENDBRANCH   9  30
TORSDOF 9
ENDMDL
MODEL 7
REMARK VINA RESULT:      -6.9      2.213      2.911
REMARK  Name = 
REMARK  13 active torsions:
REMARK  status: ('A' for Active; 'I' for Inactive)
REMARK    1  A    between atoms: C_1  and  C_2
REMARK    2  A    between atoms: C_2  and  C_3
REMARK    3  A    between atoms: C_2  and  O_4
REMARK    4  A    between atoms: O_4  and  C_5
REMARK    5  A    between atoms: C_8  and  N_9
REMARK    6  A    between atoms: N_14  and  C_15
REMARK    7  A    between atoms: C_15  and  C_16
REMARK    8  A    between atoms: C_16  and  C_17
REMARK    9  A    between atoms: C_16  and  C_18
REMARK   10  A    between atoms: C_16  and  C_19
REMARK   11  A    between atoms: C_19  and  N_20
REMARK   12  A    between atoms: N_23  and  C_24
REMARK   13  A    between atoms: C_24  and  C_25
REMARK                            x       y       z     vdW  Elec       q    Type
REMARK                         _______ _______ _______ _____ _____    ______ ____
ROOT
ATOM      1  N   UNL     1      -0.197  10.692  20.433  0.00  0.00    +0.000 N 
ATOM      2  C   UNL     1       0.282  11.994  20.493  0.00  0.00    +0.000 A 
ATOM      3  N   UNL     1       1.468  12.191  20.966  0.00  0.00    +0.000 NA
ATOM      4  C   UNL     1       2.036  13.422  20.974  0.00  0.00    +0.000 A 
ATOM      5  O   UNL     1       3.062  13.621  21.616  0.00  0.00    +0.000 OA
ATOM      6  N   UNL     1       1.428  14.409  20.229  0.00  0.00    +0.000 N 
ATOM      7  C   UNL     1       0.081  14.322  19.995  0.00  0.00    +0.000 A 
ATOM      8  O   UNL     1      -0.601  15.322  19.758  0.00  0.00    +0.000 OA
ATOM      9  N   UNL     1      -0.474  13.063  20.049  0.00  0.00    +0.000 N 
ATOM     10  H   UNL     1      -1.084  10.547  19.965  0.00  0.00    +0.000 HD
ENDROOT
BRANCH   1  14
ATOM     11  C   UNL     1       2.327   7.443  19.338  0.00  0.00    +0.000 A 
ATOM     12  C   UNL     1       1.745   7.493  20.608  0.00  0.00    +0.000 A 
ATOM     13  C   UNL     1       0.917   8.569  20.978  0.00  0.00    +0.000 A 
ATOM     14  C   UNL     1       0.677   9.619  20.084  0.00  0.00    +0.000 A 
ATOM     15  C   UNL     1       1.230   9.533  18.801  0.00  0.00    +0.000 A 
ATOM     16  C   UNL     1       2.033   8.460  18.435  0.00  0.00    +0.000 A 
ATOM     17  F   UNL     1       2.484   8.433  17.172  0.00  0.00    +0.000 F 
BRANCH  11  18
ATOM     18  O   UNL     1       3.112   6.352  19.077  0.00  0.00    +0.000 OA
BRANCH  18  20
ATOM     19  C   UNL     1       3.870   4.866  17.369  0.00  0.00    +0.000 C 
ATOM     20  C   UNL     1       2.643   5.443  18.067  0.00  0.00    +0.000 C 
ATOM     21  C   UNL     1       1.829   4.327  18.718  0.00  0.00    +0.000 C 
ENDBRANCH  18  20
ENDBRANCH  11  18
ENDBRANCH   1  14
BRANCH   6  22
ATOM     22  C   UNL     1       2.102  15.702  20.096  0.00  0.00    +0.000 C 
BRANCH  22  23
ATOM     23  C   UNL     1       2.891  15.941  18.763  0.00  0.00    +0.000 C 
ATOM     24  C   UNL     1       4.304  16.428  19.174  0.00  0.00    +0.000 C 
ATOM     25  C   UNL     1       3.018  14.628  17.967  0.00  0.00    +0.000 C 
BRANCH  23  26
ATOM     26  C   UNL     1       2.218  17.025  17.878  0.00  0.00    +0.000 C 
BRANCH  26  27
ATOM     27  N   UNL     1       0.971  17.556  18.435  0.00  0.00    +0.000 NA
ATOM     28  H   UNL     1       1.175  18.195  19.201  0.00  0.00    +0.000 HD
ATOM     29  H   UNL     1       0.444  16.788  18.853  0.00  0.00    +0.000 HD
ENDBRANCH  26  27
ENDBRANCH  23  26
ENDBRANCH  22  23
ENDBRANCH   6  22
BRANCH   9  30
ATOM     30  C   UNL     1      -1.869  12.939  19.621  0.00  0.00    +0.000 C 
BRANCH  30  31
ATOM     31  C   UNL     1      -2.865  12.852  20.766  0.00  0.00    +0.000 A 
ATOM     32  C   UNL     1      -4.229  12.706  20.464  0.00  0.00    +0.000 A 
ATOM     33  C   UNL     1      -5.189  12.731  21.478  0.00  0.00    +0.000 A 
ATOM     34  C   UNL     1      -4.792  12.882  22.804  0.00  0.00    +0.000 A 
ATOM     35 CL   UNL     1      -5.978  13.024  24.041  0.00  0.00    +0.000 Cl
ATOM     36  C   UNL     1      -3.440  12.935  23.129  0.00  0.00    +0.000 A 
ATOM     37  C   UNL     1      -2.479  12.901  22.115  0.00  0.00    +0.000 A 
ENDBRANCH  30  31
ENDBRANCH   9  30
TORSDOF 9
ENDMDL
MODEL 8
REMARK VINA RESULT:      -6.8      1.175      1.733
REMARK  Name = 
REMARK  13 active torsions:
REMARK  status: ('A' for Active; 'I' for Inactive)
REMARK    1  A    between atoms: C_1  and  C_2
REMARK    2  A    between atoms: C_2  and  C_3
REMARK    3  A    between atoms: C_2  and  O_4
REMARK    4  A    between atoms: O_4  and  C_5
REMARK    5  A    between atoms: C_8  and  N_9
REMARK    6  A    between atoms: N_14  and  C_15
REMARK    7  A    between atoms: C_15  and  C_16
REMARK    8  A    between atoms: C_16  and  C_17
REMARK    9  A    between atoms: C_16  and  C_18
REMARK   10  A    between atoms: C_16  and  C_19
REMARK   11  A    between atoms: C_19  and  N_20
REMARK   12  A    between atoms: N_23  and  C_24
REMARK   13  A    between atoms: C_24  and  C_25
REMARK                            x       y       z     vdW  Elec       q    Type
REMARK                         _______ _______ _______ _____ _____    ______ ____
ROOT
ATOM      1  N   UNL     1      -0.407  10.209  20.763  0.00  0.00    +0.000 N 
ATOM      2  C   UNL     1      -0.051  11.550  20.803  0.00  0.00    +0.000 A 
ATOM      3  N   UNL     1       1.168  11.853  21.106  0.00  0.00    +0.000 NA
ATOM      4  C   UNL     1       1.610  13.134  21.079  0.00  0.00    +0.000 A 
ATOM      5  O   UNL     1       2.696  13.420  21.573  0.00  0.00    +0.000 OA
ATOM      6  N   UNL     1       0.807  14.073  20.469  0.00  0.00    +0.000 N 
ATOM      7  C   UNL     1      -0.545  13.858  20.429  0.00  0.00    +0.000 A 
ATOM      8  O   UNL     1      -1.347  14.789  20.332  0.00  0.00    +0.000 OA
ATOM      9  N   UNL     1      -0.964  12.548  20.514  0.00  0.00    +0.000 N 
ATOM     10  H   UNL     1      -1.336   9.986  20.424  0.00  0.00    +0.000 HD
ENDROOT
BRANCH   1  14
ATOM     11  C   UNL     1       2.391   7.354  19.298  0.00  0.00    +0.000 A 
ATOM     12  C   UNL     1       2.078   8.491  18.547  0.00  0.00    +0.000 A 
ATOM     13  C   UNL     1       1.147   9.433  19.022  0.00  0.00    +0.000 A 
ATOM     14  C   UNL     1       0.505   9.237  20.250  0.00  0.00    +0.000 A 
ATOM     15  C   UNL     1       0.860   8.117  21.011  0.00  0.00    +0.000 A 
ATOM     16  C   UNL     1       1.793   7.198  20.544  0.00  0.00    +0.000 A 
ATOM     17  F   UNL     1       2.110   6.180  21.356  0.00  0.00    +0.000 F 
BRANCH  11  18
ATOM     18  O   UNL     1       3.311   6.502  18.747  0.00  0.00    +0.000 OA
BRANCH  18  20
ATOM     19  C   UNL     1       4.043   4.884  17.151  0.00  0.00    +0.000 C 
ATOM     20  C   UNL     1       2.829   5.587  17.748  0.00  0.00    +0.000 C 
ATOM     21  C   UNL     1       1.891   4.569  18.394  0.00  0.00    +0.000 C 
ENDBRANCH  18  20
ENDBRANCH  11  18
ENDBRANCH   1  14
BRANCH   6  22
ATOM     22  C   UNL     1       1.327  15.430  20.289  0.00  0.00    +0.000 C 
BRANCH  22  23
ATOM     23  C   UNL     1       2.034  15.729  18.923  0.00  0.00    +0.000 C 
ATOM     24  C   UNL     1       3.458  16.233  19.269  0.00  0.00    +0.000 C 
ATOM     25  C   UNL     1       2.141  14.445  18.077  0.00  0.00    +0.000 C 
BRANCH  23  26
ATOM     26  C   UNL     1       1.289  16.827  18.114  0.00  0.00    +0.000 C 
BRANCH  26  27
ATOM     27  N   UNL     1      -0.165  16.813  18.294  0.00  0.00    +0.000 NA
ATOM     28  H   UNL     1      -0.504  17.758  18.467  0.00  0.00    +0.000 HD
ATOM     29  H   UNL     1      -0.388  16.285  19.138  0.00  0.00    +0.000 HD
ENDBRANCH  26  27
ENDBRANCH  23  26
ENDBRANCH  22  23
ENDBRANCH   6  22
BRANCH   9  30
ATOM     30  C   UNL     1      -2.388  12.295  20.289  0.00  0.00    +0.000 C 
BRANCH  30  31
ATOM     31  C   UNL     1      -2.727  11.871  18.870  0.00  0.00    +0.000 A 
ATOM     32  C   UNL     1      -4.079  11.747  18.508  0.00  0.00    +0.000 A 
ATOM     33  C   UNL     1      -4.436  11.255  17.251  0.00  0.00    +0.000 A 
ATOM     34  C   UNL     1      -3.446  10.903  16.337  0.00  0.00    +0.000 A 
ATOM     35 CL   UNL     1      -3.883  10.195  14.832  0.00  0.00    +0.000 Cl
ATOM     36  C   UNL     1      -2.104  11.107  16.645  0.00  0.00    +0.000 A 
ATOM     37  C   UNL     1      -1.747  11.607  17.901  0.00  0.00    +0.000 A 
ENDBRANCH  30  31
ENDBRANCH   9  30
TORSDOF 9
ENDMDL
MODEL 9
REMARK VINA RESULT:      -6.8      2.210      2.967
REMARK  Name = 
REMARK  13 active torsions:
REMARK  status: ('A' for Active; 'I' for Inactive)
REMARK    1  A    between atoms: C_1  and  C_2
REMARK    2  A    between atoms: C_2  and  C_3
REMARK    3  A    between atoms: C_2  and  O_4
REMARK    4  A    between atoms: O_4  and  C_5
REMARK    5  A    between atoms: C_8  and  N_9
REMARK    6  A    between atoms: N_14  and  C_15
REMARK    7  A    between atoms: C_15  and  C_16
REMARK    8  A    between atoms: C_16  and  C_17
REMARK    9  A    between atoms: C_16  and  C_18
REMARK   10  A    between atoms: C_16  and  C_19
REMARK   11  A    between atoms: C_19  and  N_20
REMARK   12  A    between atoms: N_23  and  C_24
REMARK   13  A    between atoms: C_24  and  C_25
REMARK                            x       y       z     vdW  Elec       q    Type
REMARK                         _______ _______ _______ _____ _____    ______ ____
ROOT
ATOM      1  N   UNL     1      -0.163  10.535  20.398  0.00  0.00    +0.000 N 
ATOM      2  C   UNL     1       0.287  11.846  20.468  0.00  0.00    +0.000 A 
ATOM      3  N   UNL     1       1.471  12.066  20.938  0.00  0.00    +0.000 NA
ATOM      4  C   UNL     1       2.010  13.310  20.954  0.00  0.00    +0.000 A 
ATOM      5  O   UNL     1       3.034  13.528  21.594  0.00  0.00    +0.000 OA
ATOM      6  N   UNL     1       1.377  14.290  20.221  0.00  0.00    +0.000 N 
ATOM      7  C   UNL     1       0.031  14.174  19.990  0.00  0.00    +0.000 A 
ATOM      8  O   UNL     1      -0.674  15.159  19.765  0.00  0.00    +0.000 OA
ATOM      9  N   UNL     1      -0.495  12.901  20.035  0.00  0.00    +0.000 N 
ATOM     10  H   UNL     1      -1.048  10.373  19.932  0.00  0.00    +0.000 HD
ENDROOT
BRANCH   1  14
ATOM     11  C   UNL     1       2.431   7.354  19.264  0.00  0.00    +0.000 A 
ATOM     12  C   UNL     1       1.841   7.372  20.532  0.00  0.00    +0.000 A 
ATOM     13  C   UNL     1       0.990   8.425  20.915  0.00  0.00    +0.000 A 
ATOM     14  C   UNL     1       0.735   9.485  20.036  0.00  0.00    +0.000 A 
ATOM     15  C   UNL     1       1.297   9.432  18.756  0.00  0.00    +0.000 A 
ATOM     16  C   UNL     1       2.123   8.381  18.377  0.00  0.00    +0.000 A 
ATOM     17  F   UNL     1       2.582   8.384  17.117  0.00  0.00    +0.000 F 
BRANCH  11  18
ATOM     18  O   UNL     1       3.240   6.283  18.990  0.00  0.00    +0.000 OA
BRANCH  18  20
ATOM     19  C   UNL     1       4.092   4.685  17.435  0.00  0.00    +0.000 C 
ATOM     20  C   UNL     1       2.849   5.443  17.891  0.00  0.00    +0.000 C 
ATOM     21  C   UNL     1       1.770   4.465  18.351  0.00  0.00    +0.000 C 
ENDBRANCH  18  20
ENDBRANCH  11  18
ENDBRANCH   1  14
BRANCH   6  22
ATOM     22  C   UNL     1       2.020  15.599  20.096  0.00  0.00    +0.000 C 
BRANCH  22  23
ATOM     23  C   UNL     1       2.823  15.857  18.774  0.00  0.00    +0.000 C 
ATOM     24  C   UNL     1       2.854  14.507  18.012  0.00  0.00    +0.000 C 
ATOM     25  C   UNL     1       2.112  16.914  17.907  0.00  0.00    +0.000 C 
BRANCH  23  26
ATOM     26  C   UNL     1       4.280  16.311  19.062  0.00  0.00    +0.000 C 
BRANCH  26  27
ATOM     27  N   UNL     1       4.377  17.623  19.706  0.00  0.00    +0.000 NA
ATOM     28  H   UNL     1       5.225  17.675  20.267  0.00  0.00    +0.000 HD
ATOM     29  H   UNL     1       3.606  17.723  20.368  0.00  0.00    +0.000 HD
ENDBRANCH  26  27
ENDBRANCH  23  26
ENDBRANCH  22  23
ENDBRANCH   6  22
BRANCH   9  30
ATOM     30  C   UNL     1      -1.888  12.750  19.612  0.00  0.00    +0.000 C 
BRANCH  30  31
ATOM     31  C   UNL     1      -2.897  12.865  20.743  0.00  0.00    +0.000 A 
ATOM     32  C   UNL     1      -2.452  12.692  22.064  0.00  0.00    +0.000 A 
ATOM     33  C   UNL     1      -3.360  12.681  23.125  0.00  0.00    +0.000 A 
ATOM     34  C   UNL     1      -4.719  12.863  22.877  0.00  0.00    +0.000 A 
ATOM     35 CL   UNL     1      -5.849  12.739  24.166  0.00  0.00    +0.000 Cl
ATOM     36  C   UNL     1      -5.166  13.127  21.585  0.00  0.00    +0.000 A 
ATOM     37  C   UNL     1      -4.255  13.147  20.524  0.00  0.00    +0.000 A 
ENDBRANCH  30  31
ENDBRANCH   9  30
TORSDOF 9
ENDMDL
