MODEL 1
REMARK VINA RESULT:      -8.0      0.000      0.000
REMARK  Name = 
REMARK  9 active torsions:
REMARK  status: ('A' for Active; 'I' for Inactive)
REMARK    1  A    between atoms: C_1  and  C_2
REMARK    2  A    between atoms: C_7  and  N_8
REMARK    3  A    between atoms: C_9  and  C_11
REMARK    4  A    between atoms: C_11  and  C_12
REMARK    5  A    between atoms: C_14  and  C_15
REMARK    6  A    between atoms: C_15  and  O_16
REMARK    7  A    between atoms: O_16  and  C_17
REMARK    8  A    between atoms: C_17  and  C_19
REMARK    9  A    between atoms: C_19  and  C_20
REMARK                            x       y       z     vdW  Elec       q    Type
REMARK                         _______ _______ _______ _____ _____    ______ ____
ROOT
ATOM      1  C   UNL     1       6.561   6.890  17.090  0.00  0.00    +0.000 A 
ATOM      2  N   UNL     1       6.948   8.153  17.078  0.00  0.00    +0.000 NA
ATOM      3  C   UNL     1       7.952   8.354  18.029  0.00  0.00    +0.000 A 
ATOM      4  C   UNL     1       8.285   7.229  18.758  0.00  0.00    +0.000 A 
ATOM      5  S   UNL     1       7.355   5.893  18.256  0.00  0.00    +0.000 S 
ENDROOT
BRANCH   1   6
ATOM      6  C   UNL     1       5.468   6.268  16.278  0.00  0.00    +0.000 C 
BRANCH   6   8
ATOM      7  N   UNL     1       3.856   5.614  18.049  0.00  0.00    +0.000 N 
ATOM      8  C   UNL     1       4.590   5.234  16.949  0.00  0.00    +0.000 C 
ATOM      9  O   UNL     1       4.628   4.083  16.489  0.00  0.00    +0.000 OA
ATOM     10  H   UNL     1       4.007   6.568  18.375  0.00  0.00    +0.000 HD
BRANCH   7  17
ATOM     11  C   UNL     1       2.188   6.900  20.053  0.00  0.00    +0.000 C 
ATOM     12  C   UNL     1       2.144   5.421  19.776  0.00  0.00    +0.000 A 
ATOM     13  C   UNL     1       1.244   4.631  20.519  0.00  0.00    +0.000 A 
ATOM     14  C   UNL     1       1.184   3.251  20.341  0.00  0.00    +0.000 A 
ATOM     15  C   UNL     1       2.013   2.646  19.406  0.00  0.00    +0.000 A 
ATOM     16  C   UNL     1       2.894   3.418  18.648  0.00  0.00    +0.000 A 
ATOM     17  C   UNL     1       2.977   4.808  18.816  0.00  0.00    +0.000 A 
ENDBRANCH   7  17
ENDBRANCH   6   8
ENDBRANCH   1   6
BRANCH   3  18
ATOM     18  C   UNL     1       8.554   9.712  18.231  0.00  0.00    +0.000 C 
BRANCH  18  19
ATOM     19  O   UNL     1       9.530   9.783  19.286  0.00  0.00    +0.000 OA
BRANCH  19  20
ATOM     20  C   UNL     1       9.660  11.009  19.864  0.00  0.00    +0.000 C 
ATOM     21  O   UNL     1       8.726  11.686  20.277  0.00  0.00    +0.000 OA
BRANCH  20  22
ATOM     22  C   UNL     1      11.109  11.462  19.841  0.00  0.00    +0.000 C 
BRANCH  22  23
ATOM     23  C   UNL     1      11.323  12.587  18.860  0.00  0.00    +0.000 A 
ATOM     24  C   UNL     1      11.414  12.346  17.484  0.00  0.00    +0.000 A 
ATOM     25  C   UNL     1      11.427  13.419  16.587  0.00  0.00    +0.000 A 
ATOM     26  C   UNL     1      11.348  14.732  17.056  0.00  0.00    +0.000 A 
ATOM     27  C   UNL     1      11.310  14.979  18.425  0.00  0.00    +0.000 A 
ATOM     28  C   UNL     1      11.315  13.907  19.310  0.00  0.00    +0.000 A 
ATOM     29  F   UNL     1      11.304  14.162  20.623  0.00  0.00    +0.000 F 
ENDBRANCH  22  23
ENDBRANCH  20  22
ENDBRANCH  19  20
ENDBRANCH  18  19
ENDBRANCH   3  18
TORSDOF 8
ENDMDL
MODEL 2
REMARK VINA RESULT:      -8.0      1.401      1.493
REMARK  Name = 
REMARK  9 active torsions:
REMARK  status: ('A' for Active; 'I' for Inactive)
REMARK    1  A    between atoms: C_1  and  C_2
REMARK    2  A    between atoms: C_7  and  N_8
REMARK    3  A    between atoms: C_9  and  C_11
REMARK    4  A    between atoms: C_11  and  C_12
REMARK    5  A    between atoms: C_14  and  C_15
REMARK    6  A    between atoms: C_15  and  O_16
REMARK    7  A    between atoms: O_16  and  C_17
REMARK    8  A    between atoms: C_17  and  C_19
REMARK    9  A    between atoms: C_19  and  C_20
REMARK                            x       y       z     vdW  Elec       q    Type
REMARK                         _______ _______ _______ _____ _____    ______ ____
ROOT
ATOM      1  C   UNL     1       6.238   5.965  17.040  0.00  0.00    +0.000 A 
ATOM      2  N   UNL     1       6.529   7.251  16.941  0.00  0.00    +0.000 NA
ATOM      3  C   UNL     1       7.606   7.562  17.776  0.00  0.00    +0.000 A 
ATOM      4  C   UNL     1       8.093   6.496  18.506  0.00  0.00    +0.000 A 
ATOM      5  S   UNL     1       7.217   5.078  18.152  0.00  0.00    +0.000 S 
ENDROOT
BRANCH   1   6
ATOM      6  C   UNL     1       5.118   5.235  16.369  0.00  0.00    +0.000 C 
BRANCH   6   8
ATOM      7  N   UNL     1       4.223   4.657  18.611  0.00  0.00    +0.000 N 
ATOM      8  C   UNL     1       4.120   4.511  17.247  0.00  0.00    +0.000 C 
ATOM      9  O   UNL     1       3.295   3.782  16.676  0.00  0.00    +0.000 OA
ATOM     10  H   UNL     1       5.017   5.206  18.940  0.00  0.00    +0.000 HD
BRANCH   7  17
ATOM     11  C   UNL     1       1.913   6.153  19.549  0.00  0.00    +0.000 C 
ATOM     12  C   UNL     1       2.257   4.776  20.051  0.00  0.00    +0.000 A 
ATOM     13  C   UNL     1       1.411   4.188  21.013  0.00  0.00    +0.000 A 
ATOM     14  C   UNL     1       1.696   2.934  21.548  0.00  0.00    +0.000 A 
ATOM     15  C   UNL     1       2.824   2.247  21.118  0.00  0.00    +0.000 A 
ATOM     16  C   UNL     1       3.658   2.808  20.151  0.00  0.00    +0.000 A 
ATOM     17  C   UNL     1       3.395   4.072  19.604  0.00  0.00    +0.000 A 
ENDBRANCH   7  17
ENDBRANCH   6   8
ENDBRANCH   1   6
BRANCH   3  18
ATOM     18  C   UNL     1       8.124   8.966  17.864  0.00  0.00    +0.000 C 
BRANCH  18  19
ATOM     19  O   UNL     1       8.977   9.219  18.995  0.00  0.00    +0.000 OA
BRANCH  19  20
ATOM     20  C   UNL     1       9.327  10.523  19.168  0.00  0.00    +0.000 C 
ATOM     21  O   UNL     1       9.118  11.169  20.187  0.00  0.00    +0.000 OA
BRANCH  20  22
ATOM     22  C   UNL     1       9.926  11.092  17.894  0.00  0.00    +0.000 C 
BRANCH  22  23
ATOM     23  C   UNL     1      10.471  12.482  18.110  0.00  0.00    +0.000 A 
ATOM     24  C   UNL     1      11.820  12.697  18.414  0.00  0.00    +0.000 A 
ATOM     25  C   UNL     1      12.333  13.998  18.427  0.00  0.00    +0.000 A 
ATOM     26  C   UNL     1      11.508  15.085  18.137  0.00  0.00    +0.000 A 
ATOM     27  C   UNL     1      10.154  14.882  17.886  0.00  0.00    +0.000 A 
ATOM     28  C   UNL     1       9.649  13.587  17.891  0.00  0.00    +0.000 A 
ATOM     29  F   UNL     1       8.341  13.411  17.673  0.00  0.00    +0.000 F 
ENDBRANCH  22  23
ENDBRANCH  20  22
ENDBRANCH  19  20
ENDBRANCH  18  19
ENDBRANCH   3  18
TORSDOF 8
ENDMDL
MODEL 3
REMARK VINA RESULT:      -7.9      1.768      2.687
REMARK  Name = 
REMARK  9 active torsions:
REMARK  status: ('A' for Active; 'I' for Inactive)
REMARK    1  A    between atoms: C_1  and  C_2
REMARK    2  A    between atoms: C_7  and  N_8
REMARK    3  A    between atoms: C_9  and  C_11
REMARK    4  A    between atoms: C_11  and  C_12
REMARK    5  A    between atoms: C_14  and  C_15
REMARK    6  A    between atoms: C_15  and  O_16
REMARK    7  A    between atoms: O_16  and  C_17
REMARK    8  A    between atoms: C_17  and  C_19
REMARK    9  A    between atoms: C_19  and  C_20
REMARK                            x       y       z     vdW  Elec       q    Type
REMARK                         _______ _______ _______ _____ _____    ______ ____
ROOT
ATOM      1  C   UNL     1       6.484   6.652  17.054  0.00  0.00    +0.000 A 
ATOM      2  N   UNL     1       6.791   7.935  16.965  0.00  0.00    +0.000 NA
ATOM      3  C   UNL     1       7.815   8.245  17.863  0.00  0.00    +0.000 A 
ATOM      4  C   UNL     1       8.246   7.180  18.631  0.00  0.00    +0.000 A 
ATOM      5  S   UNL     1       7.383   5.766  18.233  0.00  0.00    +0.000 S 
ENDROOT
BRANCH   1   6
ATOM      6  C   UNL     1       5.402   5.925  16.320  0.00  0.00    +0.000 C 
BRANCH   6   8
ATOM      7  N   UNL     1       3.379   5.286  17.608  0.00  0.00    +0.000 N 
ATOM      8  C   UNL     1       4.592   4.901  17.085  0.00  0.00    +0.000 C 
ATOM      9  O   UNL     1       5.104   3.782  17.239  0.00  0.00    +0.000 OA
ATOM     10  H   UNL     1       3.136   6.269  17.490  0.00  0.00    +0.000 HD
BRANCH   7  17
ATOM     11  C   UNL     1       2.483   6.252  20.199  0.00  0.00    +0.000 C 
ATOM     12  C   UNL     1       2.008   4.956  19.598  0.00  0.00    +0.000 A 
ATOM     13  C   UNL     1       1.081   4.185  20.327  0.00  0.00    +0.000 A 
ATOM     14  C   UNL     1       0.634   2.956  19.846  0.00  0.00    +0.000 A 
ATOM     15  C   UNL     1       1.099   2.490  18.624  0.00  0.00    +0.000 A 
ATOM     16  C   UNL     1       2.001   3.253  17.882  0.00  0.00    +0.000 A 
ATOM     17  C   UNL     1       2.471   4.489  18.350  0.00  0.00    +0.000 A 
ENDBRANCH   7  17
ENDBRANCH   6   8
ENDBRANCH   1   6
BRANCH   3  18
ATOM     18  C   UNL     1       8.338   9.645  17.973  0.00  0.00    +0.000 C 
BRANCH  18  19
ATOM     19  O   UNL     1       9.159   9.888  19.130  0.00  0.00    +0.000 OA
BRANCH  19  20
ATOM     20  C   UNL     1       9.944  10.998  19.053  0.00  0.00    +0.000 C 
ATOM     21  O   UNL     1      10.355  11.487  18.009  0.00  0.00    +0.000 OA
BRANCH  20  22
ATOM     22  C   UNL     1      10.317  11.488  20.441  0.00  0.00    +0.000 C 
BRANCH  22  23
ATOM     23  C   UNL     1       9.139  12.119  21.141  0.00  0.00    +0.000 A 
ATOM     24  C   UNL     1       8.459  11.453  22.167  0.00  0.00    +0.000 A 
ATOM     25  C   UNL     1       7.493  12.131  22.918  0.00  0.00    +0.000 A 
ATOM     26  C   UNL     1       7.204  13.470  22.652  0.00  0.00    +0.000 A 
ATOM     27  C   UNL     1       7.839  14.122  21.599  0.00  0.00    +0.000 A 
ATOM     28  C   UNL     1       8.784  13.436  20.846  0.00  0.00    +0.000 A 
ATOM     29  F   UNL     1       9.367  14.068  19.822  0.00  0.00    +0.000 F 
ENDBRANCH  22  23
ENDBRANCH  20  22
ENDBRANCH  19  20
ENDBRANCH  18  19
ENDBRANCH   3  18
TORSDOF 8
ENDMDL
MODEL 4
REMARK VINA RESULT:      -7.9      6.821      9.962
REMARK  Name = 
REMARK  9 active torsions:
REMARK  status: ('A' for Active; 'I' for Inactive)
REMARK    1  A    between atoms: C_1  and  C_2
REMARK    2  A    between atoms: C_7  and  N_8
REMARK    3  A    between atoms: C_9  and  C_11
REMARK    4  A    between atoms: C_11  and  C_12
REMARK    5  A    between atoms: C_14  and  C_15
REMARK    6  A    between atoms: C_15  and  O_16
REMARK    7  A    between atoms: O_16  and  C_17
REMARK    8  A    between atoms: C_17  and  C_19
REMARK    9  A    between atoms: C_19  and  C_20
REMARK                            x       y       z     vdW  Elec       q    Type
REMARK                         _______ _______ _______ _____ _____    ______ ____
ROOT
ATOM      1  C   UNL     1       1.849   8.714  18.616  0.00  0.00    +0.000 A 
ATOM      2  N   UNL     1       2.718   8.042  17.882  0.00  0.00    +0.000 NA
ATOM      3  C   UNL     1       3.130   6.893  18.563  0.00  0.00    +0.000 A 
ATOM      4  C   UNL     1       2.570   6.737  19.816  0.00  0.00    +0.000 A 
ATOM      5  S   UNL     1       1.506   8.022  20.161  0.00  0.00    +0.000 S 
ENDROOT
BRANCH   1   6
ATOM      6  C   UNL     1       1.213  10.029  18.291  0.00  0.00    +0.000 C 
BRANCH   6   8
ATOM      7  N   UNL     1       0.110  11.168  20.201  0.00  0.00    +0.000 N 
ATOM      8  C   UNL     1      -0.034  10.420  19.055  0.00  0.00    +0.000 C 
ATOM      9  O   UNL     1      -1.114   9.991  18.623  0.00  0.00    +0.000 OA
ATOM     10  H   UNL     1       1.069  11.358  20.490  0.00  0.00    +0.000 HD
BRANCH   7  17
ATOM     11  C   UNL     1      -0.127  10.006  22.855  0.00  0.00    +0.000 C 
ATOM     12  C   UNL     1      -1.032  11.100  22.356  0.00  0.00    +0.000 A 
ATOM     13  C   UNL     1      -2.032  11.583  23.222  0.00  0.00    +0.000 A 
ATOM     14  C   UNL     1      -2.929  12.565  22.807  0.00  0.00    +0.000 A 
ATOM     15  C   UNL     1      -2.828  13.084  21.524  0.00  0.00    +0.000 A 
ATOM     16  C   UNL     1      -1.829  12.630  20.662  0.00  0.00    +0.000 A 
ATOM     17  C   UNL     1      -0.921  11.637  21.056  0.00  0.00    +0.000 A 
ENDBRANCH   7  17
ENDBRANCH   6   8
ENDBRANCH   1   6
BRANCH   3  18
ATOM     18  C   UNL     1       4.134   5.961  17.953  0.00  0.00    +0.000 C 
BRANCH  18  19
ATOM     19  O   UNL     1       3.593   5.058  16.973  0.00  0.00    +0.000 OA
BRANCH  19  20
ATOM     20  C   UNL     1       4.146   3.814  16.972  0.00  0.00    +0.000 C 
ATOM     21  O   UNL     1       5.299   3.566  16.641  0.00  0.00    +0.000 OA
BRANCH  20  22
ATOM     22  C   UNL     1       3.112   2.766  17.347  0.00  0.00    +0.000 C 
BRANCH  22  23
ATOM     23  C   UNL     1       2.569   2.996  18.735  0.00  0.00    +0.000 A 
ATOM     24  C   UNL     1       1.228   3.335  18.946  0.00  0.00    +0.000 A 
ATOM     25  C   UNL     1       0.710   3.360  20.245  0.00  0.00    +0.000 A 
ATOM     26  C   UNL     1       1.524   3.049  21.335  0.00  0.00    +0.000 A 
ATOM     27  C   UNL     1       2.872   2.763  21.136  0.00  0.00    +0.000 A 
ATOM     28  C   UNL     1       3.381   2.756  19.843  0.00  0.00    +0.000 A 
ATOM     29  F   UNL     1       4.684   2.504  19.671  0.00  0.00    +0.000 F 
ENDBRANCH  22  23
ENDBRANCH  20  22
ENDBRANCH  19  20
ENDBRANCH  18  19
ENDBRANCH   3  18
TORSDOF 8
ENDMDL
MODEL 5
REMARK VINA RESULT:      -7.9      6.905     10.152
REMARK  Name = 
REMARK  9 active torsions:
REMARK  status: ('A' for Active; 'I' for Inactive)
REMARK    1  A    between atoms: C_1  and  C_2
REMARK    2  A    between atoms: C_7  and  N_8
REMARK    3  A    between atoms: C_9  and  C_11
REMARK    4  A    between atoms: C_11  and  C_12
REMARK    5  A    between atoms: C_14  and  C_15
REMARK    6  A    between atoms: C_15  and  O_16
REMARK    7  A    between atoms: O_16  and  C_17
REMARK    8  A    between atoms: C_17  and  C_19
REMARK    9  A    between atoms: C_19  and  C_20
REMARK                            x       y       z     vdW  Elec       q    Type
REMARK                         _______ _______ _______ _____ _____    ______ ____
ROOT
ATOM      1  C   UNL     1       1.513   9.186  18.689  0.00  0.00    +0.000 A 
ATOM      2  N   UNL     1       2.319   8.564  17.846  0.00  0.00    +0.000 NA
ATOM      3  C   UNL     1       2.816   7.397  18.433  0.00  0.00    +0.000 A 
ATOM      4  C   UNL     1       2.382   7.176  19.726  0.00  0.00    +0.000 A 
ATOM      5  S   UNL     1       1.334   8.422  20.228  0.00  0.00    +0.000 S 
ENDROOT
BRANCH   1   6
ATOM      6  C   UNL     1       0.826  10.499  18.485  0.00  0.00    +0.000 C 
BRANCH   6   8
ATOM      7  N   UNL     1      -0.410  11.632  20.316  0.00  0.00    +0.000 N 
ATOM      8  C   UNL     1      -0.452  10.756  19.255  0.00  0.00    +0.000 C 
ATOM      9  O   UNL     1      -1.454  10.114  18.908  0.00  0.00    +0.000 OA
ATOM     10  H   UNL     1       0.510  12.005  20.548  0.00  0.00    +0.000 HD
BRANCH   7  17
ATOM     11  C   UNL     1      -0.547  10.487  22.985  0.00  0.00    +0.000 C 
ATOM     12  C   UNL     1      -1.551  11.481  22.467  0.00  0.00    +0.000 A 
ATOM     13  C   UNL     1      -2.598  11.878  23.323  0.00  0.00    +0.000 A 
ATOM     14  C   UNL     1      -3.583  12.762  22.891  0.00  0.00    +0.000 A 
ATOM     15  C   UNL     1      -3.526  13.272  21.601  0.00  0.00    +0.000 A 
ATOM     16  C   UNL     1      -2.483  12.905  20.749  0.00  0.00    +0.000 A 
ATOM     17  C   UNL     1      -1.485  12.010  21.160  0.00  0.00    +0.000 A 
ENDBRANCH   7  17
ENDBRANCH   6   8
ENDBRANCH   1   6
BRANCH   3  18
ATOM     18  C   UNL     1       3.771   6.514  17.689  0.00  0.00    +0.000 C 
BRANCH  18  19
ATOM     19  O   UNL     1       3.836   5.161  18.174  0.00  0.00    +0.000 OA
BRANCH  19  20
ATOM     20  C   UNL     1       4.136   4.227  17.230  0.00  0.00    +0.000 C 
ATOM     21  O   UNL     1       4.745   4.458  16.193  0.00  0.00    +0.000 OA
BRANCH  20  22
ATOM     22  C   UNL     1       3.532   2.882  17.594  0.00  0.00    +0.000 C 
BRANCH  22  23
ATOM     23  C   UNL     1       2.767   2.951  18.892  0.00  0.00    +0.000 A 
ATOM     24  C   UNL     1       3.342   2.541  20.099  0.00  0.00    +0.000 A 
ATOM     25  C   UNL     1       2.681   2.787  21.307  0.00  0.00    +0.000 A 
ATOM     26  C   UNL     1       1.448   3.441  21.315  0.00  0.00    +0.000 A 
ATOM     27  C   UNL     1       0.846   3.804  20.114  0.00  0.00    +0.000 A 
ATOM     28  C   UNL     1       1.503   3.541  18.918  0.00  0.00    +0.000 A 
ATOM     29  F   UNL     1       0.900   3.873  17.771  0.00  0.00    +0.000 F 
ENDBRANCH  22  23
ENDBRANCH  20  22
ENDBRANCH  19  20
ENDBRANCH  18  19
ENDBRANCH   3  18
TORSDOF 8
ENDMDL
MODEL 6
REMARK VINA RESULT:      -7.8      6.919     10.020
REMARK  Name = 
REMARK  9 active torsions:
REMARK  status: ('A' for Active; 'I' for Inactive)
REMARK    1  A    between atoms: C_1  and  C_2
REMARK    2  A    between atoms: C_7  and  N_8
REMARK    3  A    between atoms: C_9  and  C_11
REMARK    4  A    between atoms: C_11  and  C_12
REMARK    5  A    between atoms: C_14  and  C_15
REMARK    6  A    between atoms: C_15  and  O_16
REMARK    7  A    between atoms: O_16  and  C_17
REMARK    8  A    between atoms: C_17  and  C_19
REMARK    9  A    between atoms: C_19  and  C_20
REMARK                            x       y       z     vdW  Elec       q    Type
REMARK                         _______ _______ _______ _____ _____    ______ ____
ROOT
ATOM      1  C   UNL     1       1.970   7.972  20.030  0.00  0.00    +0.000 A 
ATOM      2  N   UNL     1       2.763   7.015  19.581  0.00  0.00    +0.000 NA
ATOM      3  C   UNL     1       2.993   7.188  18.213  0.00  0.00    +0.000 A 
ATOM      4  C   UNL     1       2.345   8.273  17.656  0.00  0.00    +0.000 A 
ATOM      5  S   UNL     1       1.442   9.104  18.837  0.00  0.00    +0.000 S 
ENDROOT
BRANCH   1   6
ATOM      6  C   UNL     1       1.425   8.122  21.416  0.00  0.00    +0.000 C 
BRANCH   6   8
ATOM      7  N   UNL     1       0.146  10.219  21.776  0.00  0.00    +0.000 N 
ATOM      8  C   UNL     1       0.112   8.857  21.583  0.00  0.00    +0.000 C 
ATOM      9  O   UNL     1      -0.919   8.168  21.588  0.00  0.00    +0.000 OA
ATOM     10  H   UNL     1       1.074  10.634  21.854  0.00  0.00    +0.000 HD
BRANCH   7  17
ATOM     11  C   UNL     1      -0.752  11.796  19.505  0.00  0.00    +0.000 C 
ATOM     12  C   UNL     1      -1.422  11.843  20.852  0.00  0.00    +0.000 A 
ATOM     13  C   UNL     1      -2.541  12.686  21.010  0.00  0.00    +0.000 A 
ATOM     14  C   UNL     1      -3.180  12.806  22.241  0.00  0.00    +0.000 A 
ATOM     15  C   UNL     1      -2.718  12.075  23.327  0.00  0.00    +0.000 A 
ATOM     16  C   UNL     1      -1.625  11.221  23.180  0.00  0.00    +0.000 A 
ATOM     17  C   UNL     1      -0.960  11.090  21.952  0.00  0.00    +0.000 A 
ENDBRANCH   7  17
ENDBRANCH   6   8
ENDBRANCH   1   6
BRANCH   3  18
ATOM     18  C   UNL     1       3.850   6.221  17.453  0.00  0.00    +0.000 C 
BRANCH  18  19
ATOM     19  O   UNL     1       4.074   4.967  18.122  0.00  0.00    +0.000 OA
BRANCH  19  20
ATOM     20  C   UNL     1       4.365   3.923  17.298  0.00  0.00    +0.000 C 
ATOM     21  O   UNL     1       5.219   3.947  16.420  0.00  0.00    +0.000 OA
BRANCH  20  22
ATOM     22  C   UNL     1       3.424   2.758  17.555  0.00  0.00    +0.000 C 
BRANCH  22  23
ATOM     23  C   UNL     1       2.692   2.916  18.864  0.00  0.00    +0.000 A 
ATOM     24  C   UNL     1       3.245   2.465  20.067  0.00  0.00    +0.000 A 
ATOM     25  C   UNL     1       2.631   2.788  21.282  0.00  0.00    +0.000 A 
ATOM     26  C   UNL     1       1.467   3.558  21.301  0.00  0.00    +0.000 A 
ATOM     27  C   UNL     1       0.883   3.965  20.105  0.00  0.00    +0.000 A 
ATOM     28  C   UNL     1       1.492   3.626  18.902  0.00  0.00    +0.000 A 
ATOM     29  F   UNL     1       0.905   4.002  17.761  0.00  0.00    +0.000 F 
ENDBRANCH  22  23
ENDBRANCH  20  22
ENDBRANCH  19  20
ENDBRANCH  18  19
ENDBRANCH   3  18
TORSDOF 8
ENDMDL
MODEL 7
REMARK VINA RESULT:      -7.8      6.742      9.982
REMARK  Name = 
REMARK  9 active torsions:
REMARK  status: ('A' for Active; 'I' for Inactive)
REMARK    1  A    between atoms: C_1  and  C_2
REMARK    2  A    between atoms: C_7  and  N_8
REMARK    3  A    between atoms: C_9  and  C_11
REMARK    4  A    between atoms: C_11  and  C_12
REMARK    5  A    between atoms: C_14  and  C_15
REMARK    6  A    between atoms: C_15  and  O_16
REMARK    7  A    between atoms: O_16  and  C_17
REMARK    8  A    between atoms: C_17  and  C_19
REMARK    9  A    between atoms: C_19  and  C_20
REMARK                            x       y       z     vdW  Elec       q    Type
REMARK                         _______ _______ _______ _____ _____    ______ ____
ROOT
ATOM      1  C   UNL     1       1.740   8.027  19.794  0.00  0.00    +0.000 A 
ATOM      2  N   UNL     1       2.489   6.997  19.440  0.00  0.00    +0.000 NA
ATOM      3  C   UNL     1       2.978   7.185  18.144  0.00  0.00    +0.000 A 
ATOM      4  C   UNL     1       2.565   8.356  17.539  0.00  0.00    +0.000 A 
ATOM      5  S   UNL     1       1.564   9.251  18.588  0.00  0.00    +0.000 S 
ENDROOT
BRANCH   1   6
ATOM      6  C   UNL     1       0.976   8.198  21.068  0.00  0.00    +0.000 C 
BRANCH   6   8
ATOM      7  N   UNL     1       0.194  10.552  21.138  0.00  0.00    +0.000 N 
ATOM      8  C   UNL     1       0.967   9.568  21.710  0.00  0.00    +0.000 C 
ATOM      9  O   UNL     1       1.705   9.732  22.693  0.00  0.00    +0.000 OA
ATOM     10  H   UNL     1      -0.279  10.298  20.271  0.00  0.00    +0.000 HD
BRANCH   7  17
ATOM     11  C   UNL     1      -1.753  11.118  23.222  0.00  0.00    +0.000 C 
ATOM     12  C   UNL     1      -0.879  12.179  22.606  0.00  0.00    +0.000 A 
ATOM     13  C   UNL     1      -1.010  13.502  23.072  0.00  0.00    +0.000 A 
ATOM     14  C   UNL     1      -0.261  14.536  22.516  0.00  0.00    +0.000 A 
ATOM     15  C   UNL     1       0.638  14.257  21.495  0.00  0.00    +0.000 A 
ATOM     16  C   UNL     1       0.794  12.948  21.039  0.00  0.00    +0.000 A 
ATOM     17  C   UNL     1       0.045  11.893  21.579  0.00  0.00    +0.000 A 
ENDBRANCH   7  17
ENDBRANCH   6   8
ENDBRANCH   1   6
BRANCH   3  18
ATOM     18  C   UNL     1       3.844   6.147  17.496  0.00  0.00    +0.000 C 
BRANCH  18  19
ATOM     19  O   UNL     1       5.075   5.876  18.190  0.00  0.00    +0.000 OA
BRANCH  19  20
ATOM     20  C   UNL     1       5.195   4.608  18.670  0.00  0.00    +0.000 C 
ATOM     21  O   UNL     1       6.098   4.225  19.403  0.00  0.00    +0.000 OA
BRANCH  20  22
ATOM     22  C   UNL     1       4.110   3.712  18.097  0.00  0.00    +0.000 C 
BRANCH  22  23
ATOM     23  C   UNL     1       3.110   3.310  19.152  0.00  0.00    +0.000 A 
ATOM     24  C   UNL     1       3.519   2.777  20.379  0.00  0.00    +0.000 A 
ATOM     25  C   UNL     1       2.586   2.586  21.403  0.00  0.00    +0.000 A 
ATOM     26  C   UNL     1       1.246   2.925  21.209  0.00  0.00    +0.000 A 
ATOM     27  C   UNL     1       0.823   3.407  19.973  0.00  0.00    +0.000 A 
ATOM     28  C   UNL     1       1.755   3.577  18.956  0.00  0.00    +0.000 A 
ATOM     29  F   UNL     1       1.329   4.017  17.766  0.00  0.00    +0.000 F 
ENDBRANCH  22  23
ENDBRANCH  20  22
ENDBRANCH  19  20
ENDBRANCH  18  19
ENDBRANCH   3  18
TORSDOF 8
ENDMDL
MODEL 8
REMARK VINA RESULT:      -7.8      6.548      9.749
REMARK  Name = 
REMARK  9 active torsions:
REMARK  status: ('A' for Active; 'I' for Inactive)
REMARK    1  A    between atoms: C_1  and  C_2
REMARK    2  A    between atoms: C_7  and  N_8
REMARK    3  A    between atoms: C_9  and  C_11
REMARK    4  A    between atoms: C_11  and  C_12
REMARK    5  A    between atoms: C_14  and  C_15
REMARK    6  A    between atoms: C_15  and  O_16
REMARK    7  A    between atoms: O_16  and  C_17
REMARK    8  A    between atoms: C_17  and  C_19
REMARK    9  A    between atoms: C_19  and  C_20
REMARK                            x       y       z     vdW  Elec       q    Type
REMARK                         _______ _______ _______ _____ _____    ______ ____
ROOT
ATOM      1  C   UNL     1       2.161   8.228  18.234  0.00  0.00    +0.000 A 
ATOM      2  N   UNL     1       3.109   7.648  17.518  0.00  0.00    +0.000 NA
ATOM      3  C   UNL     1       3.687   6.604  18.246  0.00  0.00    +0.000 A 
ATOM      4  C   UNL     1       3.168   6.435  19.515  0.00  0.00    +0.000 A 
ATOM      5  S   UNL     1       1.937   7.573  19.817  0.00  0.00    +0.000 S 
ENDROOT
BRANCH   1   6
ATOM      6  C   UNL     1       1.342   9.422  17.857  0.00  0.00    +0.000 C 
BRANCH   6   8
ATOM      7  N   UNL     1      -0.278  10.094  19.614  0.00  0.00    +0.000 N 
ATOM      8  C   UNL     1       0.906  10.358  18.964  0.00  0.00    +0.000 C 
ATOM      9  O   UNL     1       1.626  11.344  19.180  0.00  0.00    +0.000 OA
ATOM     10  H   UNL     1      -0.815   9.305  19.256  0.00  0.00    +0.000 HD
BRANCH   7  17
ATOM     11  C   UNL     1      -2.123  12.238  18.946  0.00  0.00    +0.000 C 
ATOM     12  C   UNL     1      -1.778  11.865  20.363  0.00  0.00    +0.000 A 
ATOM     13  C   UNL     1      -2.388  12.587  21.408  0.00  0.00    +0.000 A 
ATOM     14  C   UNL     1      -2.080  12.320  22.740  0.00  0.00    +0.000 A 
ATOM     15  C   UNL     1      -1.168  11.318  23.043  0.00  0.00    +0.000 A 
ATOM     16  C   UNL     1      -0.573  10.581  22.019  0.00  0.00    +0.000 A 
ATOM     17  C   UNL     1      -0.862  10.838  20.671  0.00  0.00    +0.000 A 
ENDBRANCH   7  17
ENDBRANCH   6   8
ENDBRANCH   1   6
BRANCH   3  18
ATOM     18  C   UNL     1       4.805   5.793  17.664  0.00  0.00    +0.000 C 
BRANCH  18  19
ATOM     19  O   UNL     1       4.826   4.417  18.083  0.00  0.00    +0.000 OA
BRANCH  19  20
ATOM     20  C   UNL     1       4.456   3.521  17.127  0.00  0.00    +0.000 C 
ATOM     21  O   UNL     1       4.630   3.676  15.925  0.00  0.00    +0.000 OA
BRANCH  20  22
ATOM     22  C   UNL     1       3.715   2.349  17.747  0.00  0.00    +0.000 C 
BRANCH  22  23
ATOM     23  C   UNL     1       2.891   2.781  18.934  0.00  0.00    +0.000 A 
ATOM     24  C   UNL     1       1.588   3.267  18.778  0.00  0.00    +0.000 A 
ATOM     25  C   UNL     1       0.785   3.484  19.902  0.00  0.00    +0.000 A 
ATOM     26  C   UNL     1       1.276   3.219  21.182  0.00  0.00    +0.000 A 
ATOM     27  C   UNL     1       2.588   2.786  21.346  0.00  0.00    +0.000 A 
ATOM     28  C   UNL     1       3.384   2.589  20.224  0.00  0.00    +0.000 A 
ATOM     29  F   UNL     1       4.651   2.197  20.400  0.00  0.00    +0.000 F 
ENDBRANCH  22  23
ENDBRANCH  20  22
ENDBRANCH  19  20
ENDBRANCH  18  19
ENDBRANCH   3  18
TORSDOF 8
ENDMDL
MODEL 9
REMARK VINA RESULT:      -7.7      1.400      1.711
REMARK  Name = 
REMARK  9 active torsions:
REMARK  status: ('A' for Active; 'I' for Inactive)
REMARK    1  A    between atoms: C_1  and  C_2
REMARK    2  A    between atoms: C_7  and  N_8
REMARK    3  A    between atoms: C_9  and  C_11
REMARK    4  A    between atoms: C_11  and  C_12
REMARK    5  A    between atoms: C_14  and  C_15
REMARK    6  A    between atoms: C_15  and  O_16
REMARK    7  A    between atoms: O_16  and  C_17
REMARK    8  A    between atoms: C_17  and  C_19
REMARK    9  A    between atoms: C_19  and  C_20
REMARK                            x       y       z     vdW  Elec       q    Type
REMARK                         _______ _______ _______ _____ _____    ______ ____
ROOT
ATOM      1  C   UNL     1       6.871   5.521  17.300  0.00  0.00    +0.000 A 
ATOM      2  N   UNL     1       7.018   6.788  16.956  0.00  0.00    +0.000 NA
ATOM      3  C   UNL     1       7.775   7.460  17.919  0.00  0.00    +0.000 A 
ATOM      4  C   UNL     1       8.168   6.678  18.988  0.00  0.00    +0.000 A 
ATOM      5  S   UNL     1       7.604   5.081  18.800  0.00  0.00    +0.000 S 
ENDROOT
BRANCH   1   6
ATOM      6  C   UNL     1       6.078   4.473  16.584  0.00  0.00    +0.000 C 
BRANCH   6   8
ATOM      7  N   UNL     1       4.546   4.171  18.513  0.00  0.00    +0.000 N 
ATOM      8  C   UNL     1       4.726   4.099  17.151  0.00  0.00    +0.000 C 
ATOM      9  O   UNL     1       3.873   3.696  16.346  0.00  0.00    +0.000 OA
ATOM     10  H   UNL     1       5.371   4.420  19.057  0.00  0.00    +0.000 HD
BRANCH   7  17
ATOM     11  C   UNL     1       2.464   6.193  18.683  0.00  0.00    +0.000 C 
ATOM     12  C   UNL     1       2.338   4.832  19.312  0.00  0.00    +0.000 A 
ATOM     13  C   UNL     1       1.150   4.527  20.007  0.00  0.00    +0.000 A 
ATOM     14  C   UNL     1       0.987   3.300  20.646  0.00  0.00    +0.000 A 
ATOM     15  C   UNL     1       2.005   2.358  20.588  0.00  0.00    +0.000 A 
ATOM     16  C   UNL     1       3.178   2.638  19.886  0.00  0.00    +0.000 A 
ATOM     17  C   UNL     1       3.367   3.869  19.242  0.00  0.00    +0.000 A 
ENDBRANCH   7  17
ENDBRANCH   6   8
ENDBRANCH   1   6
BRANCH   3  18
ATOM     18  C   UNL     1       8.073   8.922  17.776  0.00  0.00    +0.000 C 
BRANCH  18  19
ATOM     19  O   UNL     1       9.032   9.433  18.719  0.00  0.00    +0.000 OA
BRANCH  19  20
ATOM     20  C   UNL     1       9.150  10.789  18.740  0.00  0.00    +0.000 C 
ATOM     21  O   UNL     1       8.544  11.551  17.996  0.00  0.00    +0.000 OA
BRANCH  20  22
ATOM     22  C   UNL     1      10.203  11.221  19.745  0.00  0.00    +0.000 C 
BRANCH  22  23
ATOM     23  C   UNL     1      10.720  12.606  19.445  0.00  0.00    +0.000 A 
ATOM     24  C   UNL     1      10.339  13.709  20.217  0.00  0.00    +0.000 A 
ATOM     25  C   UNL     1      10.972  14.942  20.033  0.00  0.00    +0.000 A 
ATOM     26  C   UNL     1      11.984  15.080  19.082  0.00  0.00    +0.000 A 
ATOM     27  C   UNL     1      12.331  14.001  18.275  0.00  0.00    +0.000 A 
ATOM     28  C   UNL     1      11.684  12.784  18.453  0.00  0.00    +0.000 A 
ATOM     29  F   UNL     1      12.011  11.763  17.652  0.00  0.00    +0.000 F 
ENDBRANCH  22  23
ENDBRANCH  20  22
ENDBRANCH  19  20
ENDBRANCH  18  19
ENDBRANCH   3  18
TORSDOF 8
ENDMDL
