MODEL 1
REMARK VINA RESULT:      -8.1      0.000      0.000
REMARK  Name = 
REMARK  6 active torsions:
REMARK  status: ('A' for Active; 'I' for Inactive)
REMARK    1  A    between atoms: C_2  and  O_3
REMARK    2  A    between atoms: C_2  and  C_4
REMARK    3  A    between atoms: C_4  and  C_5
REMARK    4  A    between atoms: C_8  and  O_9
REMARK    5  A    between atoms: O_9  and  C_10
REMARK    6  A    between atoms: C_19  and  C_20
REMARK                            x       y       z     vdW  Elec       q    Type
REMARK                         _______ _______ _______ _____ _____    ______ ____
ROOT
ATOM      1  C   UNL     1       3.864   5.981  18.679  0.00  0.00    +0.000 A 
ATOM      2  N   UNL     1       3.576   7.073  17.939  0.00  0.00    +0.000 NA
ATOM      3  C   UNL     1       2.568   7.833  18.417  0.00  0.00    +0.000 A 
ATOM      4  C   UNL     1       1.813   8.657  17.594  0.00  0.00    +0.000 A 
ATOM      5  C   UNL     1       0.803   9.463  18.121  0.00  0.00    +0.000 A 
ATOM      6  C   UNL     1       0.670   9.575  19.500  0.00  0.00    +0.000 A 
ATOM      7  C   UNL     1       1.374   8.701  20.322  0.00  0.00    +0.000 A 
ATOM      8  C   UNL     1       2.159   7.709  19.757  0.00  0.00    +0.000 A 
ATOM      9  N   UNL     1       2.390   6.562  20.422  0.00  0.00    +0.000 NA
ATOM     10  C   UNL     1       3.025   5.591  19.714  0.00  0.00    +0.000 A 
ENDROOT
BRANCH  10  11
ATOM     11  C   UNL     1       2.112   4.447  19.382  0.00  0.00    +0.000 A 
ATOM     12  C   UNL     1       1.751   3.960  18.130  0.00  0.00    +0.000 A 
ATOM     13  C   UNL     1       0.935   2.792  18.193  0.00  0.00    +0.000 A 
ATOM     14  C   UNL     1       0.727   2.388  19.490  0.00  0.00    +0.000 A 
ATOM     15  S   UNL     1       1.507   3.411  20.616  0.00  0.00    +0.000 S 
ENDBRANCH  10  11
BRANCH   1  16
ATOM     16  O   UNL     1       5.074   5.300  18.593  0.00  0.00    +0.000 OA
BRANCH  16  20
ATOM     17  C   UNL     1       6.422   4.419  14.754  0.00  0.00    +0.000 A 
ATOM     18  C   UNL     1       5.343   3.728  15.319  0.00  0.00    +0.000 A 
ATOM     19  C   UNL     1       4.945   4.013  16.628  0.00  0.00    +0.000 A 
ATOM     20  C   UNL     1       5.622   4.981  17.380  0.00  0.00    +0.000 A 
ATOM     21  C   UNL     1       6.699   5.658  16.819  0.00  0.00    +0.000 A 
ATOM     22  C   UNL     1       7.112   5.365  15.523  0.00  0.00    +0.000 A 
BRANCH  17  23
ATOM     23  C   UNL     1       6.774   4.261  13.297  0.00  0.00    +0.000 C 
BRANCH  23  25
ATOM     24  O   UNL     1       4.716   3.648  12.233  0.00  0.00    +0.000 OA
ATOM     25  C   UNL     1       5.866   3.352  12.494  0.00  0.00    +0.000 C 
BRANCH  25  26
ATOM     26  O   UNL     1       6.397   2.182  12.052  0.00  0.00    +0.000 OA
ATOM     27  H   UNL     1       6.221   1.977  11.115  0.00  0.00    +0.000 HD
ENDBRANCH  25  26
ENDBRANCH  23  25
ENDBRANCH  17  23
ENDBRANCH  16  20
ENDBRANCH   1  16
TORSDOF 6
ENDMDL
MODEL 2
REMARK VINA RESULT:      -8.1      1.385      3.787
REMARK  Name = 
REMARK  6 active torsions:
REMARK  status: ('A' for Active; 'I' for Inactive)
REMARK    1  A    between atoms: C_2  and  O_3
REMARK    2  A    between atoms: C_2  and  C_4
REMARK    3  A    between atoms: C_4  and  C_5
REMARK    4  A    between atoms: C_8  and  O_9
REMARK    5  A    between atoms: O_9  and  C_10
REMARK    6  A    between atoms: C_19  and  C_20
REMARK                            x       y       z     vdW  Elec       q    Type
REMARK                         _______ _______ _______ _____ _____    ______ ____
ROOT
ATOM      1  C   UNL     1       4.223   5.482  18.479  0.00  0.00    +0.000 A 
ATOM      2  N   UNL     1       4.215   4.569  19.475  0.00  0.00    +0.000 NA
ATOM      3  C   UNL     1       3.028   3.961  19.678  0.00  0.00    +0.000 A 
ATOM      4  C   UNL     1       2.684   3.409  20.904  0.00  0.00    +0.000 A 
ATOM      5  C   UNL     1       1.466   2.750  21.075  0.00  0.00    +0.000 A 
ATOM      6  C   UNL     1       0.670   2.489  19.966  0.00  0.00    +0.000 A 
ATOM      7  C   UNL     1       0.976   3.099  18.754  0.00  0.00    +0.000 A 
ATOM      8  C   UNL     1       2.036   3.987  18.680  0.00  0.00    +0.000 A 
ATOM      9  N   UNL     1       2.037   4.974  17.766  0.00  0.00    +0.000 NA
ATOM     10  C   UNL     1       3.035   5.889  17.889  0.00  0.00    +0.000 A 
ENDROOT
BRANCH  10  11
ATOM     11  C   UNL     1       2.524   7.218  18.360  0.00  0.00    +0.000 A 
ATOM     12  C   UNL     1       2.284   8.369  17.615  0.00  0.00    +0.000 A 
ATOM     13  C   UNL     1       1.705   9.425  18.380  0.00  0.00    +0.000 A 
ATOM     14  C   UNL     1       1.474   9.043  19.680  0.00  0.00    +0.000 A 
ATOM     15  S   UNL     1       1.956   7.428  19.971  0.00  0.00    +0.000 S 
ENDBRANCH  10  11
BRANCH   1  16
ATOM     16  O   UNL     1       5.388   5.924  17.860  0.00  0.00    +0.000 OA
BRANCH  16  20
ATOM     17  C   UNL     1       6.440   4.259  14.193  0.00  0.00    +0.000 A 
ATOM     18  C   UNL     1       5.338   3.783  14.914  0.00  0.00    +0.000 A 
ATOM     19  C   UNL     1       5.039   4.330  16.165  0.00  0.00    +0.000 A 
ATOM     20  C   UNL     1       5.838   5.346  16.704  0.00  0.00    +0.000 A 
ATOM     21  C   UNL     1       6.937   5.809  15.989  0.00  0.00    +0.000 A 
ATOM     22  C   UNL     1       7.250   5.254  14.751  0.00  0.00    +0.000 A 
BRANCH  17  23
ATOM     23  C   UNL     1       6.696   3.815  12.775  0.00  0.00    +0.000 C 
BRANCH  23  25
ATOM     24  O   UNL     1       4.498   3.527  11.865  0.00  0.00    +0.000 OA
ATOM     25  C   UNL     1       5.579   3.030  12.118  0.00  0.00    +0.000 C 
BRANCH  25  26
ATOM     26  O   UNL     1       5.837   1.735  11.798  0.00  0.00    +0.000 OA
ATOM     27  H   UNL     1       6.383   1.251  12.445  0.00  0.00    +0.000 HD
ENDBRANCH  25  26
ENDBRANCH  23  25
ENDBRANCH  17  23
ENDBRANCH  16  20
ENDBRANCH   1  16
TORSDOF 6
ENDMDL
MODEL 3
REMARK VINA RESULT:      -8.0      0.762      1.191
REMARK  Name = 
REMARK  6 active torsions:
REMARK  status: ('A' for Active; 'I' for Inactive)
REMARK    1  A    between atoms: C_2  and  O_3
REMARK    2  A    between atoms: C_2  and  C_4
REMARK    3  A    between atoms: C_4  and  C_5
REMARK    4  A    between atoms: C_8  and  O_9
REMARK    5  A    between atoms: O_9  and  C_10
REMARK    6  A    between atoms: C_19  and  C_20
REMARK                            x       y       z     vdW  Elec       q    Type
REMARK                         _______ _______ _______ _____ _____    ______ ____
ROOT
ATOM      1  C   UNL     1       3.562   6.655  18.444  0.00  0.00    +0.000 A 
ATOM      2  N   UNL     1       3.109   7.725  17.754  0.00  0.00    +0.000 NA
ATOM      3  C   UNL     1       2.093   8.390  18.341  0.00  0.00    +0.000 A 
ATOM      4  C   UNL     1       1.193   9.153  17.610  0.00  0.00    +0.000 A 
ATOM      5  C   UNL     1       0.174   9.863  18.248  0.00  0.00    +0.000 A 
ATOM      6  C   UNL     1       0.169   9.951  19.635  0.00  0.00    +0.000 A 
ATOM      7  C   UNL     1       1.022   9.134  20.369  0.00  0.00    +0.000 A 
ATOM      8  C   UNL     1       1.830   8.219  19.713  0.00  0.00    +0.000 A 
ATOM      9  N   UNL     1       2.222   7.091  20.332  0.00  0.00    +0.000 NA
ATOM     10  C   UNL     1       2.866   6.185  19.548  0.00  0.00    +0.000 A 
ENDROOT
BRANCH  10  11
ATOM     11  C   UNL     1       2.025   4.969  19.288  0.00  0.00    +0.000 A 
ATOM     12  C   UNL     1       1.802   4.312  18.082  0.00  0.00    +0.000 A 
ATOM     13  C   UNL     1       1.021   3.126  18.222  0.00  0.00    +0.000 A 
ATOM     14  C   UNL     1       0.703   2.881  19.537  0.00  0.00    +0.000 A 
ATOM     15  S   UNL     1       1.339   4.072  20.586  0.00  0.00    +0.000 S 
ENDBRANCH  10  11
BRANCH   1  16
ATOM     16  O   UNL     1       4.811   6.084  18.228  0.00  0.00    +0.000 OA
BRANCH  16  20
ATOM     17  C   UNL     1       6.021   4.468  14.587  0.00  0.00    +0.000 A 
ATOM     18  C   UNL     1       5.634   5.811  14.691  0.00  0.00    +0.000 A 
ATOM     19  C   UNL     1       5.186   6.310  15.917  0.00  0.00    +0.000 A 
ATOM     20  C   UNL     1       5.117   5.478  17.039  0.00  0.00    +0.000 A 
ATOM     21  C   UNL     1       5.493   4.143  16.930  0.00  0.00    +0.000 A 
ATOM     22  C   UNL     1       5.921   3.635  15.707  0.00  0.00    +0.000 A 
BRANCH  17  23
ATOM     23  C   UNL     1       6.664   3.937  13.332  0.00  0.00    +0.000 C 
BRANCH  23  25
ATOM     24  O   UNL     1       6.107   2.316  11.657  0.00  0.00    +0.000 OA
ATOM     25  C   UNL     1       5.736   3.235  12.361  0.00  0.00    +0.000 C 
BRANCH  25  26
ATOM     26  O   UNL     1       4.448   3.663  12.318  0.00  0.00    +0.000 OA
ATOM     27  H   UNL     1       3.854   3.130  11.758  0.00  0.00    +0.000 HD
ENDBRANCH  25  26
ENDBRANCH  23  25
ENDBRANCH  17  23
ENDBRANCH  16  20
ENDBRANCH   1  16
TORSDOF 6
ENDMDL
MODEL 4
REMARK VINA RESULT:      -8.0      1.644      3.863
REMARK  Name = 
REMARK  6 active torsions:
REMARK  status: ('A' for Active; 'I' for Inactive)
REMARK    1  A    between atoms: C_2  and  O_3
REMARK    2  A    between atoms: C_2  and  C_4
REMARK    3  A    between atoms: C_4  and  C_5
REMARK    4  A    between atoms: C_8  and  O_9
REMARK    5  A    between atoms: O_9  and  C_10
REMARK    6  A    between atoms: C_19  and  C_20
REMARK                            x       y       z     vdW  Elec       q    Type
REMARK                         _______ _______ _______ _____ _____    ______ ____
ROOT
ATOM      1  C   UNL     1       4.112   5.577  18.681  0.00  0.00    +0.000 A 
ATOM      2  N   UNL     1       4.183   4.761  19.755  0.00  0.00    +0.000 NA
ATOM      3  C   UNL     1       3.021   4.161  20.089  0.00  0.00    +0.000 A 
ATOM      4  C   UNL     1       2.765   3.722  21.381  0.00  0.00    +0.000 A 
ATOM      5  C   UNL     1       1.571   3.069  21.690  0.00  0.00    +0.000 A 
ATOM      6  C   UNL     1       0.712   2.696  20.663  0.00  0.00    +0.000 A 
ATOM      7  C   UNL     1       0.930   3.194  19.382  0.00  0.00    +0.000 A 
ATOM      8  C   UNL     1       1.968   4.084  19.159  0.00  0.00    +0.000 A 
ATOM      9  N   UNL     1       1.894   4.980  18.159  0.00  0.00    +0.000 NA
ATOM     10  C   UNL     1       2.882   5.914  18.133  0.00  0.00    +0.000 A 
ENDROOT
BRANCH  10  11
ATOM     11  C   UNL     1       2.379   7.276  18.511  0.00  0.00    +0.000 A 
ATOM     12  C   UNL     1       2.158   8.377  17.690  0.00  0.00    +0.000 A 
ATOM     13  C   UNL     1       1.581   9.486  18.378  0.00  0.00    +0.000 A 
ATOM     14  C   UNL     1       1.334   9.192  19.698  0.00  0.00    +0.000 A 
ATOM     15  S   UNL     1       1.798   7.596  20.099  0.00  0.00    +0.000 S 
ENDBRANCH  10  11
BRANCH   1  16
ATOM     16  O   UNL     1       5.228   5.972  17.950  0.00  0.00    +0.000 OA
BRANCH  16  20
ATOM     17  C   UNL     1       5.673   4.240  14.191  0.00  0.00    +0.000 A 
ATOM     18  C   UNL     1       5.880   3.496  15.360  0.00  0.00    +0.000 A 
ATOM     19  C   UNL     1       5.771   4.119  16.606  0.00  0.00    +0.000 A 
ATOM     20  C   UNL     1       5.461   5.481  16.694  0.00  0.00    +0.000 A 
ATOM     21  C   UNL     1       5.265   6.218  15.530  0.00  0.00    +0.000 A 
ATOM     22  C   UNL     1       5.392   5.607  14.286  0.00  0.00    +0.000 A 
BRANCH  17  23
ATOM     23  C   UNL     1       5.616   3.571  12.841  0.00  0.00    +0.000 C 
BRANCH  23  25
ATOM     24  O   UNL     1       7.551   4.581  11.852  0.00  0.00    +0.000 OA
ATOM     25  C   UNL     1       6.910   3.568  12.052  0.00  0.00    +0.000 C 
BRANCH  25  26
ATOM     26  O   UNL     1       7.346   2.369  11.585  0.00  0.00    +0.000 OA
ATOM     27  H   UNL     1       6.863   1.593  11.923  0.00  0.00    +0.000 HD
ENDBRANCH  25  26
ENDBRANCH  23  25
ENDBRANCH  17  23
ENDBRANCH  16  20
ENDBRANCH   1  16
TORSDOF 6
ENDMDL
MODEL 5
REMARK VINA RESULT:      -7.9      3.234      7.720
REMARK  Name = 
REMARK  6 active torsions:
REMARK  status: ('A' for Active; 'I' for Inactive)
REMARK    1  A    between atoms: C_2  and  O_3
REMARK    2  A    between atoms: C_2  and  C_4
REMARK    3  A    between atoms: C_4  and  C_5
REMARK    4  A    between atoms: C_8  and  O_9
REMARK    5  A    between atoms: O_9  and  C_10
REMARK    6  A    between atoms: C_19  and  C_20
REMARK                            x       y       z     vdW  Elec       q    Type
REMARK                         _______ _______ _______ _____ _____    ______ ____
ROOT
ATOM      1  C   UNL     1       2.937   6.210  18.035  0.00  0.00    +0.000 A 
ATOM      2  N   UNL     1       1.823   5.446  18.046  0.00  0.00    +0.000 NA
ATOM      3  C   UNL     1       1.948   4.270  18.697  0.00  0.00    +0.000 A 
ATOM      4  C   UNL     1       1.144   3.178  18.404  0.00  0.00    +0.000 A 
ATOM      5  C   UNL     1       1.268   1.986  19.120  0.00  0.00    +0.000 A 
ATOM      6  C   UNL     1       2.076   1.951  20.251  0.00  0.00    +0.000 A 
ATOM      7  C   UNL     1       2.933   3.017  20.505  0.00  0.00    +0.000 A 
ATOM      8  C   UNL     1       3.001   4.072  19.610  0.00  0.00    +0.000 A 
ATOM      9  N   UNL     1       4.128   4.798  19.497  0.00  0.00    +0.000 NA
ATOM     10  C   UNL     1       4.148   5.695  18.475  0.00  0.00    +0.000 A 
ENDROOT
BRANCH  10  11
ATOM     11  C   UNL     1       5.087   5.280  17.381  0.00  0.00    +0.000 A 
ATOM     12  C   UNL     1       4.892   4.328  16.385  0.00  0.00    +0.000 A 
ATOM     13  C   UNL     1       5.966   4.262  15.449  0.00  0.00    +0.000 A 
ATOM     14  C   UNL     1       6.937   5.195  15.725  0.00  0.00    +0.000 A 
ATOM     15  S   UNL     1       6.554   6.135  17.101  0.00  0.00    +0.000 S 
ENDBRANCH  10  11
BRANCH   1  16
ATOM     16  O   UNL     1       2.920   7.577  17.775  0.00  0.00    +0.000 OA
BRANCH  16  20
ATOM     17  C   UNL     1       0.440  10.140  19.922  0.00  0.00    +0.000 A 
ATOM     18  C   UNL     1       0.785  10.412  18.592  0.00  0.00    +0.000 A 
ATOM     19  C   UNL     1       1.659   9.558  17.914  0.00  0.00    +0.000 A 
ATOM     20  C   UNL     1       2.195   8.436  18.557  0.00  0.00    +0.000 A 
ATOM     21  C   UNL     1       1.858   8.175  19.880  0.00  0.00    +0.000 A 
ATOM     22  C   UNL     1       1.003   9.033  20.566  0.00  0.00    +0.000 A 
BRANCH  17  23
ATOM     23  C   UNL     1      -0.624  10.939  20.631  0.00  0.00    +0.000 C 
BRANCH  23  25
ATOM     24  O   UNL     1       0.453  12.739  21.789  0.00  0.00    +0.000 OA
ATOM     25  C   UNL     1      -0.170  11.697  21.861  0.00  0.00    +0.000 C 
BRANCH  25  26
ATOM     26  O   UNL     1      -0.506  11.175  23.069  0.00  0.00    +0.000 OA
ATOM     27  H   UNL     1      -0.477  11.804  23.814  0.00  0.00    +0.000 HD
ENDBRANCH  25  26
ENDBRANCH  23  25
ENDBRANCH  17  23
ENDBRANCH  16  20
ENDBRANCH   1  16
TORSDOF 6
ENDMDL
MODEL 6
REMARK VINA RESULT:      -7.9      3.193      7.757
REMARK  Name = 
REMARK  6 active torsions:
REMARK  status: ('A' for Active; 'I' for Inactive)
REMARK    1  A    between atoms: C_2  and  O_3
REMARK    2  A    between atoms: C_2  and  C_4
REMARK    3  A    between atoms: C_4  and  C_5
REMARK    4  A    between atoms: C_8  and  O_9
REMARK    5  A    between atoms: O_9  and  C_10
REMARK    6  A    between atoms: C_19  and  C_20
REMARK                            x       y       z     vdW  Elec       q    Type
REMARK                         _______ _______ _______ _____ _____    ______ ____
ROOT
ATOM      1  C   UNL     1       3.061   6.343  18.281  0.00  0.00    +0.000 A 
ATOM      2  N   UNL     1       2.007   5.538  18.021  0.00  0.00    +0.000 NA
ATOM      3  C   UNL     1       2.061   4.325  18.609  0.00  0.00    +0.000 A 
ATOM      4  C   UNL     1       1.387   3.226  18.093  0.00  0.00    +0.000 A 
ATOM      5  C   UNL     1       1.428   1.992  18.744  0.00  0.00    +0.000 A 
ATOM      6  C   UNL     1       1.998   1.907  20.009  0.00  0.00    +0.000 A 
ATOM      7  C   UNL     1       2.733   2.983  20.496  0.00  0.00    +0.000 A 
ATOM      8  C   UNL     1       2.921   4.102  19.700  0.00  0.00    +0.000 A 
ATOM      9  N   UNL     1       4.010   4.876  19.860  0.00  0.00    +0.000 NA
ATOM     10  C   UNL     1       4.186   5.844  18.922  0.00  0.00    +0.000 A 
ENDROOT
BRANCH  10  11
ATOM     11  C   UNL     1       5.342   5.543  18.014  0.00  0.00    +0.000 A 
ATOM     12  C   UNL     1       6.518   4.859  18.305  0.00  0.00    +0.000 A 
ATOM     13  C   UNL     1       7.359   4.674  17.167  0.00  0.00    +0.000 A 
ATOM     14  C   UNL     1       6.787   5.182  16.026  0.00  0.00    +0.000 A 
ATOM     15  S   UNL     1       5.254   5.877  16.328  0.00  0.00    +0.000 S 
ENDBRANCH  10  11
BRANCH   1  16
ATOM     16  O   UNL     1       3.025   7.723  18.109  0.00  0.00    +0.000 OA
BRANCH  16  20
ATOM     17  C   UNL     1       0.144  10.135  19.901  0.00  0.00    +0.000 A 
ATOM     18  C   UNL     1       0.790   9.122  20.621  0.00  0.00    +0.000 A 
ATOM     19  C   UNL     1       1.717   8.297  19.978  0.00  0.00    +0.000 A 
ATOM     20  C   UNL     1       2.000   8.474  18.619  0.00  0.00    +0.000 A 
ATOM     21  C   UNL     1       1.350   9.475  17.905  0.00  0.00    +0.000 A 
ATOM     22  C   UNL     1       0.412  10.286  18.535  0.00  0.00    +0.000 A 
BRANCH  17  23
ATOM     23  C   UNL     1      -0.732  11.148  20.593  0.00  0.00    +0.000 C 
BRANCH  23  25
ATOM     24  O   UNL     1      -0.497  11.560  22.942  0.00  0.00    +0.000 OA
ATOM     25  C   UNL     1      -0.130  11.818  21.812  0.00  0.00    +0.000 C 
BRANCH  25  26
ATOM     26  O   UNL     1       0.864  12.717  21.595  0.00  0.00    +0.000 OA
ATOM     27  H   UNL     1       0.596  13.652  21.653  0.00  0.00    +0.000 HD
ENDBRANCH  25  26
ENDBRANCH  23  25
ENDBRANCH  17  23
ENDBRANCH  16  20
ENDBRANCH   1  16
TORSDOF 6
ENDMDL
MODEL 7
REMARK VINA RESULT:      -7.8      1.367      1.595
REMARK  Name = 
REMARK  6 active torsions:
REMARK  status: ('A' for Active; 'I' for Inactive)
REMARK    1  A    between atoms: C_2  and  O_3
REMARK    2  A    between atoms: C_2  and  C_4
REMARK    3  A    between atoms: C_4  and  C_5
REMARK    4  A    between atoms: C_8  and  O_9
REMARK    5  A    between atoms: O_9  and  C_10
REMARK    6  A    between atoms: C_19  and  C_20
REMARK                            x       y       z     vdW  Elec       q    Type
REMARK                         _______ _______ _______ _____ _____    ______ ____
ROOT
ATOM      1  C   UNL     1       3.406   6.960  18.613  0.00  0.00    +0.000 A 
ATOM      2  N   UNL     1       2.895   8.042  17.985  0.00  0.00    +0.000 NA
ATOM      3  C   UNL     1       1.838   8.610  18.601  0.00  0.00    +0.000 A 
ATOM      4  C   UNL     1       0.899   9.362  17.909  0.00  0.00    +0.000 A 
ATOM      5  C   UNL     1      -0.163   9.971  18.579  0.00  0.00    +0.000 A 
ATOM      6  C   UNL     1      -0.182   9.974  19.968  0.00  0.00    +0.000 A 
ATOM      7  C   UNL     1       0.714   9.165  20.660  0.00  0.00    +0.000 A 
ATOM      8  C   UNL     1       1.577   8.340  19.958  0.00  0.00    +0.000 A 
ATOM      9  N   UNL     1       2.031   7.201  20.511  0.00  0.00    +0.000 NA
ATOM     10  C   UNL     1       2.732   6.383  19.680  0.00  0.00    +0.000 A 
ENDROOT
BRANCH  10  11
ATOM     11  C   UNL     1       1.965   5.139  19.339  0.00  0.00    +0.000 A 
ATOM     12  C   UNL     1       1.786   4.546  18.093  0.00  0.00    +0.000 A 
ATOM     13  C   UNL     1       1.076   3.309  18.154  0.00  0.00    +0.000 A 
ATOM     14  C   UNL     1       0.768   2.965  19.449  0.00  0.00    +0.000 A 
ATOM     15  S   UNL     1       1.328   4.124  20.574  0.00  0.00    +0.000 S 
ENDBRANCH  10  11
BRANCH   1  16
ATOM     16  O   UNL     1       4.688   6.476  18.376  0.00  0.00    +0.000 OA
BRANCH  16  20
ATOM     17  C   UNL     1       5.836   4.536  14.876  0.00  0.00    +0.000 A 
ATOM     18  C   UNL     1       5.407   5.869  14.857  0.00  0.00    +0.000 A 
ATOM     19  C   UNL     1       4.982   6.477  16.041  0.00  0.00    +0.000 A 
ATOM     20  C   UNL     1       4.977   5.761  17.244  0.00  0.00    +0.000 A 
ATOM     21  C   UNL     1       5.394   4.434  17.257  0.00  0.00    +0.000 A 
ATOM     22  C   UNL     1       5.801   3.818  16.078  0.00  0.00    +0.000 A 
BRANCH  17  23
ATOM     23  C   UNL     1       6.458   3.898  13.659  0.00  0.00    +0.000 C 
BRANCH  23  25
ATOM     24  O   UNL     1       7.497   4.750  11.675  0.00  0.00    +0.000 OA
ATOM     25  C   UNL     1       7.436   4.762  12.890  0.00  0.00    +0.000 C 
BRANCH  25  26
ATOM     26  O   UNL     1       8.243   5.580  13.614  0.00  0.00    +0.000 OA
ATOM     27  H   UNL     1       7.816   6.390  13.949  0.00  0.00    +0.000 HD
ENDBRANCH  25  26
ENDBRANCH  23  25
ENDBRANCH  17  23
ENDBRANCH  16  20
ENDBRANCH   1  16
TORSDOF 6
ENDMDL
MODEL 8
REMARK VINA RESULT:      -7.7      3.286      7.284
REMARK  Name = 
REMARK  6 active torsions:
REMARK  status: ('A' for Active; 'I' for Inactive)
REMARK    1  A    between atoms: C_2  and  O_3
REMARK    2  A    between atoms: C_2  and  C_4
REMARK    3  A    between atoms: C_4  and  C_5
REMARK    4  A    between atoms: C_8  and  O_9
REMARK    5  A    between atoms: O_9  and  C_10
REMARK    6  A    between atoms: C_19  and  C_20
REMARK                            x       y       z     vdW  Elec       q    Type
REMARK                         _______ _______ _______ _____ _____    ______ ____
ROOT
ATOM      1  C   UNL     1       3.208   6.193  18.161  0.00  0.00    +0.000 A 
ATOM      2  N   UNL     1       2.013   5.564  18.131  0.00  0.00    +0.000 NA
ATOM      3  C   UNL     1       2.008   4.330  18.678  0.00  0.00    +0.000 A 
ATOM      4  C   UNL     1       1.079   3.366  18.311  0.00  0.00    +0.000 A 
ATOM      5  C   UNL     1       1.071   2.112  18.923  0.00  0.00    +0.000 A 
ATOM      6  C   UNL     1       1.882   1.888  20.030  0.00  0.00    +0.000 A 
ATOM      7  C   UNL     1       2.860   2.822  20.354  0.00  0.00    +0.000 A 
ATOM      8  C   UNL     1       3.040   3.935  19.550  0.00  0.00    +0.000 A 
ATOM      9  N   UNL     1       4.242   4.534  19.474  0.00  0.00    +0.000 NA
ATOM     10  C   UNL     1       4.356   5.507  18.532  0.00  0.00    +0.000 A 
ENDROOT
BRANCH  10  11
ATOM     11  C   UNL     1       5.229   5.081  17.387  0.00  0.00    +0.000 A 
ATOM     12  C   UNL     1       4.904   4.272  16.304  0.00  0.00    +0.000 A 
ATOM     13  C   UNL     1       5.959   4.155  15.350  0.00  0.00    +0.000 A 
ATOM     14  C   UNL     1       7.049   4.915  15.705  0.00  0.00    +0.000 A 
ATOM     15  S   UNL     1       6.798   5.753  17.174  0.00  0.00    +0.000 S 
ENDBRANCH  10  11
BRANCH   1  16
ATOM     16  O   UNL     1       3.347   7.570  18.017  0.00  0.00    +0.000 OA
BRANCH  16  20
ATOM     17  C   UNL     1       0.245  10.071  19.222  0.00  0.00    +0.000 A 
ATOM     18  C   UNL     1       0.819  10.190  17.949  0.00  0.00    +0.000 A 
ATOM     19  C   UNL     1       1.891   9.368  17.592  0.00  0.00    +0.000 A 
ATOM     20  C   UNL     1       2.399   8.431  18.499  0.00  0.00    +0.000 A 
ATOM     21  C   UNL     1       1.833   8.322  19.765  0.00  0.00    +0.000 A 
ATOM     22  C   UNL     1       0.777   9.151  20.133  0.00  0.00    +0.000 A 
BRANCH  17  23
ATOM     23  C   UNL     1      -1.014  10.817  19.583  0.00  0.00    +0.000 C 
BRANCH  23  25
ATOM     24  O   UNL     1      -2.716  10.186  18.018  0.00  0.00    +0.000 OA
ATOM     25  C   UNL     1      -1.986  11.060  18.447  0.00  0.00    +0.000 C 
BRANCH  25  26
ATOM     26  O   UNL     1      -2.031  12.315  17.929  0.00  0.00    +0.000 OA
ATOM     27  H   UNL     1      -1.336  12.517  17.275  0.00  0.00    +0.000 HD
ENDBRANCH  25  26
ENDBRANCH  23  25
ENDBRANCH  17  23
ENDBRANCH  16  20
ENDBRANCH   1  16
TORSDOF 6
ENDMDL
MODEL 9
REMARK VINA RESULT:      -7.7      1.756      4.000
REMARK  Name = 
REMARK  6 active torsions:
REMARK  status: ('A' for Active; 'I' for Inactive)
REMARK    1  A    between atoms: C_2  and  O_3
REMARK    2  A    between atoms: C_2  and  C_4
REMARK    3  A    between atoms: C_4  and  C_5
REMARK    4  A    between atoms: C_8  and  O_9
REMARK    5  A    between atoms: O_9  and  C_10
REMARK    6  A    between atoms: C_19  and  C_20
REMARK                            x       y       z     vdW  Elec       q    Type
REMARK                         _______ _______ _______ _____ _____    ______ ____
ROOT
ATOM      1  C   UNL     1       3.979   5.437  18.793  0.00  0.00    +0.000 A 
ATOM      2  N   UNL     1       4.121   4.589  19.835  0.00  0.00    +0.000 NA
ATOM      3  C   UNL     1       2.992   3.951  20.206  0.00  0.00    +0.000 A 
ATOM      4  C   UNL     1       2.809   3.464  21.493  0.00  0.00    +0.000 A 
ATOM      5  C   UNL     1       1.647   2.773  21.838  0.00  0.00    +0.000 A 
ATOM      6  C   UNL     1       0.746   2.413  20.842  0.00  0.00    +0.000 A 
ATOM      7  C   UNL     1       0.889   2.958  19.570  0.00  0.00    +0.000 A 
ATOM      8  C   UNL     1       1.895   3.878  19.326  0.00  0.00    +0.000 A 
ATOM      9  N   UNL     1       1.751   4.805  18.361  0.00  0.00    +0.000 NA
ATOM     10  C   UNL     1       2.716   5.762  18.318  0.00  0.00    +0.000 A 
ENDROOT
BRANCH  10  11
ATOM     11  C   UNL     1       2.203   7.099  18.766  0.00  0.00    +0.000 A 
ATOM     12  C   UNL     1       1.861   7.510  20.050  0.00  0.00    +0.000 A 
ATOM     13  C   UNL     1       1.499   8.889  20.123  0.00  0.00    +0.000 A 
ATOM     14  C   UNL     1       1.615   9.509  18.902  0.00  0.00    +0.000 A 
ATOM     15  S   UNL     1       2.151   8.436  17.683  0.00  0.00    +0.000 S 
ENDBRANCH  10  11
BRANCH   1  16
ATOM     16  O   UNL     1       5.048   5.882  18.022  0.00  0.00    +0.000 OA
BRANCH  16  20
ATOM     17  C   UNL     1       6.054   4.535  14.214  0.00  0.00    +0.000 A 
ATOM     18  C   UNL     1       5.649   5.858  14.430  0.00  0.00    +0.000 A 
ATOM     19  C   UNL     1       5.271   6.267  15.712  0.00  0.00    +0.000 A 
ATOM     20  C   UNL     1       5.289   5.362  16.779  0.00  0.00    +0.000 A 
ATOM     21  C   UNL     1       5.682   4.046  16.559  0.00  0.00    +0.000 A 
ATOM     22  C   UNL     1       6.042   3.629  15.281  0.00  0.00    +0.000 A 
BRANCH  17  23
ATOM     23  C   UNL     1       6.627   4.101  12.889  0.00  0.00    +0.000 C 
BRANCH  23  25
ATOM     24  O   UNL     1       4.649   3.338  11.772  0.00  0.00    +0.000 OA
ATOM     25  C   UNL     1       5.795   3.106  12.105  0.00  0.00    +0.000 C 
BRANCH  25  26
ATOM     26  O   UNL     1       6.391   1.934  11.764  0.00  0.00    +0.000 OA
ATOM     27  H   UNL     1       5.872   1.366  11.164  0.00  0.00    +0.000 HD
ENDBRANCH  25  26
ENDBRANCH  23  25
ENDBRANCH  17  23
ENDBRANCH  16  20
ENDBRANCH   1  16
TORSDOF 6
ENDMDL
