MODEL 1
REMARK VINA RESULT:      -8.5      0.000      0.000
REMARK  Name = 
REMARK  9 active torsions:
REMARK  status: ('A' for Active; 'I' for Inactive)
REMARK    1  A    between atoms: C_1  and  C_2
REMARK    2  A    between atoms: C_8  and  O_9
REMARK    3  A    between atoms: O_9  and  C_10
REMARK    4  A    between atoms: C_10  and  C_11
REMARK    5  A    between atoms: C_10  and  C_12
REMARK    6  A    between atoms: C_13  and  O_14
REMARK    7  A    between atoms: O_14  and  C_15
REMARK    8  A    between atoms: C_23  and  C_24
REMARK    9  A    between atoms: C_26  and  O_27
REMARK                            x       y       z     vdW  Elec       q    Type
REMARK                         _______ _______ _______ _____ _____    ______ ____
ROOT
ATOM      1  C   UNL     1      -1.245  12.009  22.442  0.00  0.00    +0.000 C 
ATOM      2  C   UNL     1      -0.380  10.959  21.843  0.00  0.00    +0.000 A 
ATOM      3  C   UNL     1       0.076  11.024  20.551  0.00  0.00    +0.000 A 
ATOM      4  N   UNL     1       0.820  10.064  19.973  0.00  0.00    +0.000 NA
ATOM      5  C   UNL     1       1.130   8.980  20.720  0.00  0.00    +0.000 A 
ATOM      6  N   UNL     1       1.817   7.881  20.074  0.00  0.00    +0.000 N 
ATOM      7  N   UNL     1       2.146   6.758  20.781  0.00  0.00    +0.000 NA
ATOM      8  C   UNL     1       2.591   5.908  19.861  0.00  0.00    +0.000 A 
ATOM      9  C   UNL     1       2.579   6.453  18.564  0.00  0.00    +0.000 A 
ATOM     10  C   UNL     1       2.197   7.773  18.729  0.00  0.00    +0.000 A 
ATOM     11  C   UNL     1       2.127   8.919  17.782  0.00  0.00    +0.000 C 
ATOM     12  N   UNL     1       0.771   8.843  22.016  0.00  0.00    +0.000 NA
ATOM     13  C   UNL     1       0.030   9.836  22.519  0.00  0.00    +0.000 A 
ENDROOT
BRANCH  13  14
ATOM     14  O   UNL     1      -0.325   9.643  23.814  0.00  0.00    +0.000 OA
ATOM     15  H   UNL     1       0.394   9.053  24.106  0.00  0.00    +0.000 HD
ENDBRANCH  13  14
BRANCH   8  16
ATOM     16  O   UNL     1       2.940   4.644  20.208  0.00  0.00    +0.000 OA
BRANCH  16  17
ATOM     17  C   UNL     1       1.902   3.885  20.848  0.00  0.00    +0.000 C 
ATOM     18  C   UNL     1       0.862   3.396  19.839  0.00  0.00    +0.000 C 
ATOM     19  C   UNL     1       2.560   2.669  21.505  0.00  0.00    +0.000 C 
ENDBRANCH  16  17
ENDBRANCH   8  16
BRANCH   9  20
ATOM     20  O   UNL     1       2.992   5.818  17.444  0.00  0.00    +0.000 OA
BRANCH  20  21
ATOM     21  C   UNL     1       4.297   5.486  17.179  0.00  0.00    +0.000 A 
ATOM     22  C   UNL     1       4.547   4.160  16.822  0.00  0.00    +0.000 A 
ATOM     23  F   UNL     1       3.545   3.269  16.786  0.00  0.00    +0.000 F 
ATOM     24  C   UNL     1       5.835   3.726  16.507  0.00  0.00    +0.000 A 
ATOM     25  C   UNL     1       6.901   4.618  16.545  0.00  0.00    +0.000 A 
ATOM     26  C   UNL     1       6.665   5.950  16.885  0.00  0.00    +0.000 A 
ATOM     27  C   UNL     1       5.367   6.380  17.179  0.00  0.00    +0.000 A 
ATOM     28  F   UNL     1       5.190   7.674  17.478  0.00  0.00    +0.000 F 
ENDBRANCH  20  21
ENDBRANCH   9  20
TORSDOF 5
ENDMDL
MODEL 2
REMARK VINA RESULT:      -8.1      0.199      1.598
REMARK  Name = 
REMARK  9 active torsions:
REMARK  status: ('A' for Active; 'I' for Inactive)
REMARK    1  A    between atoms: C_1  and  C_2
REMARK    2  A    between atoms: C_8  and  O_9
REMARK    3  A    between atoms: O_9  and  C_10
REMARK    4  A    between atoms: C_10  and  C_11
REMARK    5  A    between atoms: C_10  and  C_12
REMARK    6  A    between atoms: C_13  and  O_14
REMARK    7  A    between atoms: O_14  and  C_15
REMARK    8  A    between atoms: C_23  and  C_24
REMARK    9  A    between atoms: C_26  and  O_27
REMARK                            x       y       z     vdW  Elec       q    Type
REMARK                         _______ _______ _______ _____ _____    ______ ____
ROOT
ATOM      1  C   UNL     1      -1.351  11.932  22.639  0.00  0.00    +0.000 C 
ATOM      2  C   UNL     1      -0.465  10.925  21.997  0.00  0.00    +0.000 A 
ATOM      3  C   UNL     1      -0.025  11.045  20.702  0.00  0.00    +0.000 A 
ATOM      4  N   UNL     1       0.739  10.125  20.085  0.00  0.00    +0.000 NA
ATOM      5  C   UNL     1       1.085   9.025  20.793  0.00  0.00    +0.000 A 
ATOM      6  N   UNL     1       1.794   7.967  20.103  0.00  0.00    +0.000 N 
ATOM      7  N   UNL     1       2.160   6.831  20.769  0.00  0.00    +0.000 NA
ATOM      8  C   UNL     1       2.617   6.024  19.817  0.00  0.00    +0.000 A 
ATOM      9  C   UNL     1       2.577   6.611  18.539  0.00  0.00    +0.000 A 
ATOM     10  C   UNL     1       2.162   7.915  18.752  0.00  0.00    +0.000 A 
ATOM     11  C   UNL     1       2.051   9.088  17.845  0.00  0.00    +0.000 C 
ATOM     12  N   UNL     1       0.744   8.837  22.087  0.00  0.00    +0.000 NA
ATOM     13  C   UNL     1      -0.017   9.792  22.630  0.00  0.00    +0.000 A 
ENDROOT
BRANCH  13  14
ATOM     14  O   UNL     1      -0.353   9.547  23.921  0.00  0.00    +0.000 OA
ATOM     15  H   UNL     1       0.528   9.568  24.338  0.00  0.00    +0.000 HD
ENDBRANCH  13  14
BRANCH   8  16
ATOM     16  O   UNL     1       3.003   4.759  20.118  0.00  0.00    +0.000 OA
BRANCH  16  17
ATOM     17  C   UNL     1       2.055   4.006  20.891  0.00  0.00    +0.000 C 
ATOM     18  C   UNL     1       0.834   3.618  20.056  0.00  0.00    +0.000 C 
ATOM     19  C   UNL     1       2.756   2.729  21.361  0.00  0.00    +0.000 C 
ENDBRANCH  16  17
ENDBRANCH   8  16
BRANCH   9  20
ATOM     20  O   UNL     1       2.994   6.025  17.395  0.00  0.00    +0.000 OA
BRANCH  20  21
ATOM     21  C   UNL     1       4.268   5.561  17.183  0.00  0.00    +0.000 A 
ATOM     22  C   UNL     1       5.293   6.507  17.206  0.00  0.00    +0.000 A 
ATOM     23  F   UNL     1       5.011   7.805  17.390  0.00  0.00    +0.000 F 
ATOM     24  C   UNL     1       6.626   6.135  17.028  0.00  0.00    +0.000 A 
ATOM     25  C   UNL     1       6.957   4.800  16.822  0.00  0.00    +0.000 A 
ATOM     26  C   UNL     1       5.944   3.839  16.811  0.00  0.00    +0.000 A 
ATOM     27  C   UNL     1       4.614   4.220  17.012  0.00  0.00    +0.000 A 
ATOM     28  F   UNL     1       3.682   3.257  17.014  0.00  0.00    +0.000 F 
ENDBRANCH  20  21
ENDBRANCH   9  20
TORSDOF 5
ENDMDL
MODEL 3
REMARK VINA RESULT:      -7.9      1.567      1.700
REMARK  Name = 
REMARK  9 active torsions:
REMARK  status: ('A' for Active; 'I' for Inactive)
REMARK    1  A    between atoms: C_1  and  C_2
REMARK    2  A    between atoms: C_8  and  O_9
REMARK    3  A    between atoms: O_9  and  C_10
REMARK    4  A    between atoms: C_10  and  C_11
REMARK    5  A    between atoms: C_10  and  C_12
REMARK    6  A    between atoms: C_13  and  O_14
REMARK    7  A    between atoms: O_14  and  C_15
REMARK    8  A    between atoms: C_23  and  C_24
REMARK    9  A    between atoms: C_26  and  O_27
REMARK                            x       y       z     vdW  Elec       q    Type
REMARK                         _______ _______ _______ _____ _____    ______ ____
ROOT
ATOM      1  C   UNL     1      -0.611  12.168  19.527  0.00  0.00    +0.000 C 
ATOM      2  C   UNL     1       0.188  10.914  19.558  0.00  0.00    +0.000 A 
ATOM      3  C   UNL     1       1.063  10.570  18.558  0.00  0.00    +0.000 A 
ATOM      4  N   UNL     1       1.762   9.421  18.541  0.00  0.00    +0.000 NA
ATOM      5  C   UNL     1       1.582   8.566  19.574  0.00  0.00    +0.000 A 
ATOM      6  N   UNL     1       2.224   7.270  19.505  0.00  0.00    +0.000 N 
ATOM      7  N   UNL     1       2.069   6.365  20.519  0.00  0.00    +0.000 NA
ATOM      8  C   UNL     1       2.630   5.253  20.056  0.00  0.00    +0.000 A 
ATOM      9  C   UNL     1       3.169   5.410  18.765  0.00  0.00    +0.000 A 
ATOM     10  C   UNL     1       3.014   6.753  18.469  0.00  0.00    +0.000 A 
ATOM     11  C   UNL     1       3.494   7.588  17.335  0.00  0.00    +0.000 C 
ATOM     12  N   UNL     1       0.781   8.834  20.629  0.00  0.00    +0.000 NA
ATOM     13  C   UNL     1       0.118   9.993  20.574  0.00  0.00    +0.000 A 
ENDROOT
BRANCH  13  14
ATOM     14  O   UNL     1      -0.690  10.206  21.642  0.00  0.00    +0.000 OA
ATOM     15  H   UNL     1      -0.788  11.176  21.596  0.00  0.00    +0.000 HD
ENDBRANCH  13  14
BRANCH   8  16
ATOM     16  O   UNL     1       2.589   4.110  20.785  0.00  0.00    +0.000 OA
BRANCH  16  17
ATOM     17  C   UNL     1       1.292   3.500  20.881  0.00  0.00    +0.000 C 
ATOM     18  C   UNL     1       0.865   2.882  19.549  0.00  0.00    +0.000 C 
ATOM     19  C   UNL     1       1.381   2.392  21.933  0.00  0.00    +0.000 C 
ENDBRANCH  16  17
ENDBRANCH   8  16
BRANCH   9  20
ATOM     20  O   UNL     1       3.811   4.449  18.063  0.00  0.00    +0.000 OA
BRANCH  20  21
ATOM     21  C   UNL     1       5.111   4.542  17.635  0.00  0.00    +0.000 A 
ATOM     22  C   UNL     1       5.340   4.336  16.274  0.00  0.00    +0.000 A 
ATOM     23  F   UNL     1       4.322   4.027  15.456  0.00  0.00    +0.000 F 
ATOM     24  C   UNL     1       6.622   4.434  15.732  0.00  0.00    +0.000 A 
ATOM     25  C   UNL     1       7.704   4.741  16.551  0.00  0.00    +0.000 A 
ATOM     26  C   UNL     1       7.489   4.964  17.911  0.00  0.00    +0.000 A 
ATOM     27  C   UNL     1       6.197   4.885  18.440  0.00  0.00    +0.000 A 
ATOM     28  F   UNL     1       6.041   5.129  19.748  0.00  0.00    +0.000 F 
ENDBRANCH  20  21
ENDBRANCH   9  20
TORSDOF 5
ENDMDL
MODEL 4
REMARK VINA RESULT:      -7.8      2.398      4.405
REMARK  Name = 
REMARK  9 active torsions:
REMARK  status: ('A' for Active; 'I' for Inactive)
REMARK    1  A    between atoms: C_1  and  C_2
REMARK    2  A    between atoms: C_8  and  O_9
REMARK    3  A    between atoms: O_9  and  C_10
REMARK    4  A    between atoms: C_10  and  C_11
REMARK    5  A    between atoms: C_10  and  C_12
REMARK    6  A    between atoms: C_13  and  O_14
REMARK    7  A    between atoms: O_14  and  C_15
REMARK    8  A    between atoms: C_23  and  C_24
REMARK    9  A    between atoms: C_26  and  O_27
REMARK                            x       y       z     vdW  Elec       q    Type
REMARK                         _______ _______ _______ _____ _____    ______ ____
ROOT
ATOM      1  C   UNL     1       0.933  13.991  19.487  0.00  0.00    +0.000 C 
ATOM      2  C   UNL     1       1.194  12.536  19.326  0.00  0.00    +0.000 A 
ATOM      3  C   UNL     1       0.829  11.611  20.272  0.00  0.00    +0.000 A 
ATOM      4  N   UNL     1       1.095  10.296  20.170  0.00  0.00    +0.000 NA
ATOM      5  C   UNL     1       1.761   9.877  19.069  0.00  0.00    +0.000 A 
ATOM      6  N   UNL     1       2.170   8.489  19.007  0.00  0.00    +0.000 N 
ATOM      7  N   UNL     1       2.852   8.016  17.921  0.00  0.00    +0.000 NA
ATOM      8  C   UNL     1       3.213   6.785  18.270  0.00  0.00    +0.000 A 
ATOM      9  C   UNL     1       2.769   6.431  19.557  0.00  0.00    +0.000 A 
ATOM     10  C   UNL     1       1.986   7.493  19.975  0.00  0.00    +0.000 A 
ATOM     11  C   UNL     1       1.118   7.684  21.169  0.00  0.00    +0.000 C 
ATOM     12  N   UNL     1       2.120  10.701  18.060  0.00  0.00    +0.000 NA
ATOM     13  C   UNL     1       1.824  11.993  18.234  0.00  0.00    +0.000 A 
ENDROOT
BRANCH  13  14
ATOM     14  O   UNL     1       2.226  12.783  17.207  0.00  0.00    +0.000 OA
ATOM     15  H   UNL     1       2.871  12.193  16.775  0.00  0.00    +0.000 HD
ENDBRANCH  13  14
BRANCH   8  16
ATOM     16  O   UNL     1       3.986   6.038  17.443  0.00  0.00    +0.000 OA
BRANCH  16  17
ATOM     17  C   UNL     1       5.134   6.717  16.909  0.00  0.00    +0.000 C 
ATOM     18  C   UNL     1       6.397   6.394  17.709  0.00  0.00    +0.000 C 
ATOM     19  C   UNL     1       5.326   6.235  15.469  0.00  0.00    +0.000 C 
ENDBRANCH  16  17
ENDBRANCH   8  16
BRANCH   9  20
ATOM     20  O   UNL     1       2.980   5.237  20.156  0.00  0.00    +0.000 OA
BRANCH  20  21
ATOM     21  C   UNL     1       2.617   4.027  19.621  0.00  0.00    +0.000 A 
ATOM     22  C   UNL     1       1.265   3.687  19.695  0.00  0.00    +0.000 A 
ATOM     23  F   UNL     1       0.395   4.508  20.302  0.00  0.00    +0.000 F 
ATOM     24  C   UNL     1       0.788   2.492  19.157  0.00  0.00    +0.000 A 
ATOM     25  C   UNL     1       1.663   1.610  18.531  0.00  0.00    +0.000 A 
ATOM     26  C   UNL     1       3.015   1.942  18.435  0.00  0.00    +0.000 A 
ATOM     27  C   UNL     1       3.479   3.153  18.959  0.00  0.00    +0.000 A 
ATOM     28  F   UNL     1       4.782   3.435  18.822  0.00  0.00    +0.000 F 
ENDBRANCH  20  21
ENDBRANCH   9  20
TORSDOF 5
ENDMDL
MODEL 5
REMARK VINA RESULT:      -7.7      1.627      2.062
REMARK  Name = 
REMARK  9 active torsions:
REMARK  status: ('A' for Active; 'I' for Inactive)
REMARK    1  A    between atoms: C_1  and  C_2
REMARK    2  A    between atoms: C_8  and  O_9
REMARK    3  A    between atoms: O_9  and  C_10
REMARK    4  A    between atoms: C_10  and  C_11
REMARK    5  A    between atoms: C_10  and  C_12
REMARK    6  A    between atoms: C_13  and  O_14
REMARK    7  A    between atoms: O_14  and  C_15
REMARK    8  A    between atoms: C_23  and  C_24
REMARK    9  A    between atoms: C_26  and  O_27
REMARK                            x       y       z     vdW  Elec       q    Type
REMARK                         _______ _______ _______ _____ _____    ______ ____
ROOT
ATOM      1  C   UNL     1      -0.555  12.204  19.256  0.00  0.00    +0.000 C 
ATOM      2  C   UNL     1       0.233  10.945  19.327  0.00  0.00    +0.000 A 
ATOM      3  C   UNL     1       1.109  10.564  18.342  0.00  0.00    +0.000 A 
ATOM      4  N   UNL     1       1.798   9.408  18.362  0.00  0.00    +0.000 NA
ATOM      5  C   UNL     1       1.606   8.586  19.418  0.00  0.00    +0.000 A 
ATOM      6  N   UNL     1       2.237   7.283  19.391  0.00  0.00    +0.000 N 
ATOM      7  N   UNL     1       2.070   6.410  20.429  0.00  0.00    +0.000 NA
ATOM      8  C   UNL     1       2.623   5.280  20.002  0.00  0.00    +0.000 A 
ATOM      9  C   UNL     1       3.168   5.394  18.710  0.00  0.00    +0.000 A 
ATOM     10  C   UNL     1       3.027   6.729  18.374  0.00  0.00    +0.000 A 
ATOM     11  C   UNL     1       3.519   7.526  17.218  0.00  0.00    +0.000 C 
ATOM     12  N   UNL     1       0.803   8.892  20.462  0.00  0.00    +0.000 NA
ATOM     13  C   UNL     1       0.151  10.055  20.369  0.00  0.00    +0.000 A 
ENDROOT
BRANCH  13  14
ATOM     14  O   UNL     1      -0.660  10.306  21.427  0.00  0.00    +0.000 OA
ATOM     15  H   UNL     1      -0.263  11.134  21.758  0.00  0.00    +0.000 HD
ENDBRANCH  13  14
BRANCH   8  16
ATOM     16  O   UNL     1       2.569   4.159  20.764  0.00  0.00    +0.000 OA
BRANCH  16  17
ATOM     17  C   UNL     1       1.268   3.555  20.860  0.00  0.00    +0.000 C 
ATOM     18  C   UNL     1       0.838   2.941  19.527  0.00  0.00    +0.000 C 
ATOM     19  C   UNL     1       1.353   2.445  21.910  0.00  0.00    +0.000 C 
ENDBRANCH  16  17
ENDBRANCH   8  16
BRANCH   9  20
ATOM     20  O   UNL     1       3.804   4.407  18.039  0.00  0.00    +0.000 OA
BRANCH  20  21
ATOM     21  C   UNL     1       5.056   4.527  17.491  0.00  0.00    +0.000 A 
ATOM     22  C   UNL     1       6.113   4.740  18.378  0.00  0.00    +0.000 A 
ATOM     23  F   UNL     1       5.877   4.857  19.693  0.00  0.00    +0.000 F 
ATOM     24  C   UNL     1       7.428   4.849  17.926  0.00  0.00    +0.000 A 
ATOM     25  C   UNL     1       7.709   4.744  16.567  0.00  0.00    +0.000 A 
ATOM     26  C   UNL     1       6.666   4.516  15.669  0.00  0.00    +0.000 A 
ATOM     27  C   UNL     1       5.355   4.388  16.135  0.00  0.00    +0.000 A 
ATOM     28  F   UNL     1       4.392   4.147  15.235  0.00  0.00    +0.000 F 
ENDBRANCH  20  21
ENDBRANCH   9  20
TORSDOF 5
ENDMDL
MODEL 6
REMARK VINA RESULT:      -7.5      1.225      1.325
REMARK  Name = 
REMARK  9 active torsions:
REMARK  status: ('A' for Active; 'I' for Inactive)
REMARK    1  A    between atoms: C_1  and  C_2
REMARK    2  A    between atoms: C_8  and  O_9
REMARK    3  A    between atoms: O_9  and  C_10
REMARK    4  A    between atoms: C_10  and  C_11
REMARK    5  A    between atoms: C_10  and  C_12
REMARK    6  A    between atoms: C_13  and  O_14
REMARK    7  A    between atoms: O_14  and  C_15
REMARK    8  A    between atoms: C_23  and  C_24
REMARK    9  A    between atoms: C_26  and  O_27
REMARK                            x       y       z     vdW  Elec       q    Type
REMARK                         _______ _______ _______ _____ _____    ______ ____
ROOT
ATOM      1  C   UNL     1      -0.732  11.930  21.739  0.00  0.00    +0.000 C 
ATOM      2  C   UNL     1       0.003  10.718  21.291  0.00  0.00    +0.000 A 
ATOM      3  C   UNL     1       0.864  10.729  20.222  0.00  0.00    +0.000 A 
ATOM      4  N   UNL     1       1.505   9.635  19.769  0.00  0.00    +0.000 NA
ATOM      5  C   UNL     1       1.279   8.468  20.414  0.00  0.00    +0.000 A 
ATOM      6  N   UNL     1       1.857   7.261  19.860  0.00  0.00    +0.000 N 
ATOM      7  N   UNL     1       1.653   6.054  20.467  0.00  0.00    +0.000 NA
ATOM      8  C   UNL     1       2.161   5.167  19.616  0.00  0.00    +0.000 A 
ATOM      9  C   UNL     1       2.711   5.767  18.468  0.00  0.00    +0.000 A 
ATOM     10  C   UNL     1       2.624   7.130  18.694  0.00  0.00    +0.000 A 
ATOM     11  C   UNL     1       3.149   8.302  17.943  0.00  0.00    +0.000 C 
ATOM     12  N   UNL     1       0.489   8.363  21.505  0.00  0.00    +0.000 NA
ATOM     13  C   UNL     1      -0.115   9.490  21.893  0.00  0.00    +0.000 A 
ENDROOT
BRANCH  13  14
ATOM     14  O   UNL     1      -0.916   9.329  22.977  0.00  0.00    +0.000 OA
ATOM     15  H   UNL     1      -0.539   8.511  23.352  0.00  0.00    +0.000 HD
ENDBRANCH  13  14
BRANCH   8  16
ATOM     16  O   UNL     1       2.060   3.839  19.870  0.00  0.00    +0.000 OA
BRANCH  16  17
ATOM     17  C   UNL     1       2.985   3.339  20.850  0.00  0.00    +0.000 C 
ATOM     18  C   UNL     1       2.273   2.506  21.917  0.00  0.00    +0.000 C 
ATOM     19  C   UNL     1       3.992   2.447  20.120  0.00  0.00    +0.000 C 
ENDBRANCH  16  17
ENDBRANCH   8  16
BRANCH   9  20
ATOM     20  O   UNL     1       3.307   5.106  17.450  0.00  0.00    +0.000 OA
BRANCH  20  21
ATOM     21  C   UNL     1       4.662   4.928  17.331  0.00  0.00    +0.000 A 
ATOM     22  C   UNL     1       5.140   4.566  16.071  0.00  0.00    +0.000 A 
ATOM     23  F   UNL     1       4.286   4.371  15.055  0.00  0.00    +0.000 F 
ATOM     24  C   UNL     1       6.503   4.387  15.837  0.00  0.00    +0.000 A 
ATOM     25  C   UNL     1       7.418   4.568  16.869  0.00  0.00    +0.000 A 
ATOM     26  C   UNL     1       6.958   4.945  18.131  0.00  0.00    +0.000 A 
ATOM     27  C   UNL     1       5.591   5.143  18.349  0.00  0.00    +0.000 A 
ATOM     28  F   UNL     1       5.203   5.526  19.573  0.00  0.00    +0.000 F 
ENDBRANCH  20  21
ENDBRANCH   9  20
TORSDOF 5
ENDMDL
MODEL 7
REMARK VINA RESULT:      -7.5      2.357      4.323
REMARK  Name = 
REMARK  9 active torsions:
REMARK  status: ('A' for Active; 'I' for Inactive)
REMARK    1  A    between atoms: C_1  and  C_2
REMARK    2  A    between atoms: C_8  and  O_9
REMARK    3  A    between atoms: O_9  and  C_10
REMARK    4  A    between atoms: C_10  and  C_11
REMARK    5  A    between atoms: C_10  and  C_12
REMARK    6  A    between atoms: C_13  and  O_14
REMARK    7  A    between atoms: O_14  and  C_15
REMARK    8  A    between atoms: C_23  and  C_24
REMARK    9  A    between atoms: C_26  and  O_27
REMARK                            x       y       z     vdW  Elec       q    Type
REMARK                         _______ _______ _______ _____ _____    ______ ____
ROOT
ATOM      1  C   UNL     1       0.568  13.946  20.062  0.00  0.00    +0.000 C 
ATOM      2  C   UNL     1       0.867  12.515  19.791  0.00  0.00    +0.000 A 
ATOM      3  C   UNL     1       0.678  11.530  20.727  0.00  0.00    +0.000 A 
ATOM      4  N   UNL     1       0.985  10.236  20.521  0.00  0.00    +0.000 NA
ATOM      5  C   UNL     1       1.507   9.902  19.318  0.00  0.00    +0.000 A 
ATOM      6  N   UNL     1       1.964   8.542  19.128  0.00  0.00    +0.000 N 
ATOM      7  N   UNL     1       2.507   8.153  17.935  0.00  0.00    +0.000 NA
ATOM      8  C   UNL     1       2.967   6.928  18.166  0.00  0.00    +0.000 A 
ATOM      9  C   UNL     1       2.723   6.493  19.481  0.00  0.00    +0.000 A 
ATOM     10  C   UNL     1       1.960   7.493  20.058  0.00  0.00    +0.000 A 
ATOM     11  C   UNL     1       1.261   7.586  21.368  0.00  0.00    +0.000 C 
ATOM     12  N   UNL     1       1.686  10.789  18.314  0.00  0.00    +0.000 NA
ATOM     13  C   UNL     1       1.361  12.055  18.595  0.00  0.00    +0.000 A 
ENDROOT
BRANCH  13  14
ATOM     14  O   UNL     1       1.580  12.911  17.565  0.00  0.00    +0.000 OA
ATOM     15  H   UNL     1       0.664  13.057  17.262  0.00  0.00    +0.000 HD
ENDBRANCH  13  14
BRANCH   8  16
ATOM     16  O   UNL     1       3.647   6.259  17.201  0.00  0.00    +0.000 OA
BRANCH  16  17
ATOM     17  C   UNL     1       4.937   6.805  16.882  0.00  0.00    +0.000 C 
ATOM     18  C   UNL     1       5.971   6.464  17.956  0.00  0.00    +0.000 C 
ATOM     19  C   UNL     1       5.383   6.186  15.555  0.00  0.00    +0.000 C 
ENDBRANCH  16  17
ENDBRANCH   8  16
BRANCH   9  20
ATOM     20  O   UNL     1       3.067   5.285  19.982  0.00  0.00    +0.000 OA
BRANCH  20  21
ATOM     21  C   UNL     1       2.540   4.092  19.557  0.00  0.00    +0.000 A 
ATOM     22  C   UNL     1       3.421   3.196  18.950  0.00  0.00    +0.000 A 
ATOM     23  F   UNL     1       4.708   3.531  18.771  0.00  0.00    +0.000 F 
ATOM     24  C   UNL     1       2.992   1.945  18.507  0.00  0.00    +0.000 A 
ATOM     25  C   UNL     1       1.662   1.567  18.665  0.00  0.00    +0.000 A 
ATOM     26  C   UNL     1       0.772   2.446  19.283  0.00  0.00    +0.000 A 
ATOM     27  C   UNL     1       1.218   3.688  19.743  0.00  0.00    +0.000 A 
ATOM     28  F   UNL     1       0.328   4.486  20.350  0.00  0.00    +0.000 F 
ENDBRANCH  20  21
ENDBRANCH   9  20
TORSDOF 5
ENDMDL
MODEL 8
REMARK VINA RESULT:      -7.4      2.306      4.345
REMARK  Name = 
REMARK  9 active torsions:
REMARK  status: ('A' for Active; 'I' for Inactive)
REMARK    1  A    between atoms: C_1  and  C_2
REMARK    2  A    between atoms: C_8  and  O_9
REMARK    3  A    between atoms: O_9  and  C_10
REMARK    4  A    between atoms: C_10  and  C_11
REMARK    5  A    between atoms: C_10  and  C_12
REMARK    6  A    between atoms: C_13  and  O_14
REMARK    7  A    between atoms: O_14  and  C_15
REMARK    8  A    between atoms: C_23  and  C_24
REMARK    9  A    between atoms: C_26  and  O_27
REMARK                            x       y       z     vdW  Elec       q    Type
REMARK                         _______ _______ _______ _____ _____    ______ ____
ROOT
ATOM      1  C   UNL     1       0.133  13.581  20.126  0.00  0.00    +0.000 C 
ATOM      2  C   UNL     1       0.620  12.230  19.744  0.00  0.00    +0.000 A 
ATOM      3  C   UNL     1       0.421  11.122  20.530  0.00  0.00    +0.000 A 
ATOM      4  N   UNL     1       0.893   9.899  20.228  0.00  0.00    +0.000 NA
ATOM      5  C   UNL     1       1.600   9.768  19.083  0.00  0.00    +0.000 A 
ATOM      6  N   UNL     1       2.225   8.490  18.811  0.00  0.00    +0.000 N 
ATOM      7  N   UNL     1       2.958   8.306  17.671  0.00  0.00    +0.000 NA
ATOM      8  C   UNL     1       3.516   7.110  17.829  0.00  0.00    +0.000 A 
ATOM      9  C   UNL     1       3.153   6.494  19.040  0.00  0.00    +0.000 A 
ATOM     10  C   UNL     1       2.216   7.339  19.610  0.00  0.00    +0.000 A 
ATOM     11  C   UNL     1       1.346   7.202  20.809  0.00  0.00    +0.000 C 
ATOM     12  N   UNL     1       1.809  10.785  18.218  0.00  0.00    +0.000 NA
ATOM     13  C   UNL     1       1.313  11.970  18.587  0.00  0.00    +0.000 A 
ENDROOT
BRANCH  13  14
ATOM     14  O   UNL     1       1.569  12.964  17.700  0.00  0.00    +0.000 OA
ATOM     15  H   UNL     1       2.284  13.434  18.167  0.00  0.00    +0.000 HD
ENDBRANCH  13  14
BRANCH   8  16
ATOM     16  O   UNL     1       4.385   6.633  16.903  0.00  0.00    +0.000 OA
BRANCH  16  17
ATOM     17  C   UNL     1       5.645   6.187  17.431  0.00  0.00    +0.000 C 
ATOM     18  C   UNL     1       6.194   4.999  16.640  0.00  0.00    +0.000 C 
ATOM     19  C   UNL     1       6.631   7.353  17.316  0.00  0.00    +0.000 C 
ENDBRANCH  16  17
ENDBRANCH   8  16
BRANCH   9  20
ATOM     20  O   UNL     1       3.560   5.271  19.449  0.00  0.00    +0.000 OA
BRANCH  20  21
ATOM     21  C   UNL     1       2.747   4.167  19.516  0.00  0.00    +0.000 A 
ATOM     22  C   UNL     1       2.544   3.463  18.329  0.00  0.00    +0.000 A 
ATOM     23  F   UNL     1       3.098   3.894  17.185  0.00  0.00    +0.000 F 
ATOM     24  C   UNL     1       1.757   2.312  18.294  0.00  0.00    +0.000 A 
ATOM     25  C   UNL     1       1.156   1.843  19.458  0.00  0.00    +0.000 A 
ATOM     26  C   UNL     1       1.362   2.526  20.657  0.00  0.00    +0.000 A 
ATOM     27  C   UNL     1       2.170   3.667  20.683  0.00  0.00    +0.000 A 
ATOM     28  F   UNL     1       2.355   4.274  21.864  0.00  0.00    +0.000 F 
ENDBRANCH  20  21
ENDBRANCH   9  20
TORSDOF 5
ENDMDL
MODEL 9
REMARK VINA RESULT:      -7.4      2.232      4.167
REMARK  Name = 
REMARK  9 active torsions:
REMARK  status: ('A' for Active; 'I' for Inactive)
REMARK    1  A    between atoms: C_1  and  C_2
REMARK    2  A    between atoms: C_8  and  O_9
REMARK    3  A    between atoms: O_9  and  C_10
REMARK    4  A    between atoms: C_10  and  C_11
REMARK    5  A    between atoms: C_10  and  C_12
REMARK    6  A    between atoms: C_13  and  O_14
REMARK    7  A    between atoms: O_14  and  C_15
REMARK    8  A    between atoms: C_23  and  C_24
REMARK    9  A    between atoms: C_26  and  O_27
REMARK                            x       y       z     vdW  Elec       q    Type
REMARK                         _______ _______ _______ _____ _____    ______ ____
ROOT
ATOM      1  C   UNL     1      -0.715  12.970  20.427  0.00  0.00    +0.000 C 
ATOM      2  C   UNL     1      -0.034  11.733  19.960  0.00  0.00    +0.000 A 
ATOM      3  C   UNL     1      -0.114  10.543  20.639  0.00  0.00    +0.000 A 
ATOM      4  N   UNL     1       0.531   9.424  20.262  0.00  0.00    +0.000 NA
ATOM      5  C   UNL     1       1.295   9.490  19.148  0.00  0.00    +0.000 A 
ATOM      6  N   UNL     1       2.098   8.335  18.803  0.00  0.00    +0.000 N 
ATOM      7  N   UNL     1       2.894   8.351  17.693  0.00  0.00    +0.000 NA
ATOM      8  C   UNL     1       3.602   7.229  17.779  0.00  0.00    +0.000 A 
ATOM      9  C   UNL     1       3.277   6.465  18.914  0.00  0.00    +0.000 A 
ATOM     10  C   UNL     1       2.212   7.125  19.503  0.00  0.00    +0.000 A 
ATOM     11  C   UNL     1       1.321   6.769  20.639  0.00  0.00    +0.000 C 
ATOM     12  N   UNL     1       1.400  10.599  18.383  0.00  0.00    +0.000 NA
ATOM     13  C   UNL     1       0.734  11.671  18.823  0.00  0.00    +0.000 A 
ENDROOT
BRANCH  13  14
ATOM     14  O   UNL     1       0.889  12.765  18.036  0.00  0.00    +0.000 OA
ATOM     15  H   UNL     1       1.802  13.018  18.268  0.00  0.00    +0.000 HD
ENDBRANCH  13  14
BRANCH   8  16
ATOM     16  O   UNL     1       4.565   6.955  16.864  0.00  0.00    +0.000 OA
BRANCH  16  17
ATOM     17  C   UNL     1       5.791   6.443  17.411  0.00  0.00    +0.000 C 
ATOM     18  C   UNL     1       6.364   5.319  16.546  0.00  0.00    +0.000 C 
ATOM     19  C   UNL     1       6.796   7.597  17.449  0.00  0.00    +0.000 C 
ENDBRANCH  16  17
ENDBRANCH   8  16
BRANCH   9  20
ATOM     20  O   UNL     1       3.828   5.274  19.240  0.00  0.00    +0.000 OA
BRANCH  20  21
ATOM     21  C   UNL     1       3.213   4.061  19.062  0.00  0.00    +0.000 A 
ATOM     22  C   UNL     1       2.606   3.493  20.183  0.00  0.00    +0.000 A 
ATOM     23  F   UNL     1       2.671   4.111  21.372  0.00  0.00    +0.000 F 
ATOM     24  C   UNL     1       1.930   2.275  20.102  0.00  0.00    +0.000 A 
ATOM     25  C   UNL     1       1.851   1.600  18.889  0.00  0.00    +0.000 A 
ATOM     26  C   UNL     1       2.441   2.162  17.755  0.00  0.00    +0.000 A 
ATOM     27  C   UNL     1       3.096   3.393  17.843  0.00  0.00    +0.000 A 
ATOM     28  F   UNL     1       3.626   3.900  16.721  0.00  0.00    +0.000 F 
ENDBRANCH  20  21
ENDBRANCH   9  20
TORSDOF 5
ENDMDL
