MODEL 1
REMARK VINA RESULT:      -9.3      0.000      0.000
REMARK  Name = 
REMARK  6 active torsions:
REMARK  status: ('A' for Active; 'I' for Inactive)
REMARK    1  A    between atoms: C_1  and  C_2
REMARK    2  A    between atoms: C_5  and  C_6
REMARK    3  A    between atoms: C_6  and  N_7
REMARK    4  A    between atoms: C_20  and  C_21
REMARK    5  A    between atoms: N_23  and  C_24
REMARK    6  A    between atoms: C_24  and  C_25
REMARK                            x       y       z     vdW  Elec       q    Type
REMARK                         _______ _______ _______ _____ _____    ______ ____
ROOT
ATOM      1  N   UNL     1      -0.756  11.951  20.058  0.00  0.00    +0.000 N 
ATOM      2  C   UNL     1      -0.022  13.034  20.596  0.00  0.00    +0.000 C 
ATOM      3  O   UNL     1       1.106  13.304  20.172  0.00  0.00    +0.000 OA
ATOM      4  C   UNL     1      -0.439  13.706  21.856  0.00  0.00    +0.000 A 
ATOM      5  C   UNL     1       0.265  14.837  22.309  0.00  0.00    +0.000 A 
ATOM      6  C   UNL     1      -0.273  15.652  23.304  0.00  0.00    +0.000 A 
ATOM      7  C   UNL     1      -1.538  15.363  23.799  0.00  0.00    +0.000 A 
ATOM      8  C   UNL     1      -2.112  14.119  23.512  0.00  0.00    +0.000 A 
ATOM      9  C   UNL     1      -1.452  13.213  22.663  0.00  0.00    +0.000 A 
ATOM     10  S   UNL     1      -1.599  11.450  23.058  0.00  0.00    +0.000 S 
ATOM     11  C   UNL     1      -0.351  10.592  22.069  0.00  0.00    +0.000 A 
ATOM     12  C   UNL     1       0.459   9.597  22.634  0.00  0.00    +0.000 A 
ATOM     13  C   UNL     1       1.260   8.780  21.812  0.00  0.00    +0.000 A 
ATOM     14  C   UNL     1       1.236   8.940  20.420  0.00  0.00    +0.000 A 
ATOM     15  C   UNL     1       0.534  10.004  19.864  0.00  0.00    +0.000 A 
ATOM     16  C   UNL     1      -0.249  10.793  20.673  0.00  0.00    +0.000 A 
ENDROOT
BRANCH  14  17
ATOM     17  C   UNL     1       1.885   8.007  19.476  0.00  0.00    +0.000 C 
ATOM     18  O   UNL     1       1.847   8.182  18.248  0.00  0.00    +0.000 OA
ATOM     19  N   UNL     1       2.526   6.981  20.117  0.00  0.00    +0.000 N 
ATOM     20  H   UNL     1       2.717   7.065  21.110  0.00  0.00    +0.000 HD
BRANCH  19  21
ATOM     21  C   UNL     1       3.153   5.856  19.476  0.00  0.00    +0.000 C 
BRANCH  21  22
ATOM     22  C   UNL     1       2.216   4.708  19.614  0.00  0.00    +0.000 A 
ATOM     23  C   UNL     1       1.252   4.364  20.541  0.00  0.00    +0.000 A 
ATOM     24  C   UNL     1       0.724   3.116  20.126  0.00  0.00    +0.000 A 
ATOM     25  C   UNL     1       1.417   2.763  18.994  0.00  0.00    +0.000 A 
ATOM     26  O   UNL     1       2.331   3.718  18.678  0.00  0.00    +0.000 OA
ENDBRANCH  21  22
ENDBRANCH  19  21
ENDBRANCH  14  17
BRANCH   1  27
ATOM     27  C   UNL     1      -2.224  11.829  19.789  0.00  0.00    +0.000 C 
BRANCH  27  32
ATOM     28  C   UNL     1      -3.515  10.147  14.297  0.00  0.00    +0.000 C 
ATOM     29  C   UNL     1      -3.295  10.428  15.763  0.00  0.00    +0.000 A 
ATOM     30  C   UNL     1      -4.180  11.193  16.510  0.00  0.00    +0.000 A 
ATOM     31  C   UNL     1      -3.871  11.556  17.845  0.00  0.00    +0.000 A 
ATOM     32  C   UNL     1      -2.657  11.164  18.465  0.00  0.00    +0.000 A 
ATOM     33  C   UNL     1      -1.822  10.315  17.730  0.00  0.00    +0.000 A 
ATOM     34  C   UNL     1      -2.129   9.963  16.391  0.00  0.00    +0.000 A 
ENDBRANCH  27  32
ENDBRANCH   1  27
TORSDOF 5
ENDMDL
MODEL 2
REMARK VINA RESULT:      -9.1      0.631      1.051
REMARK  Name = 
REMARK  6 active torsions:
REMARK  status: ('A' for Active; 'I' for Inactive)
REMARK    1  A    between atoms: C_1  and  C_2
REMARK    2  A    between atoms: C_5  and  C_6
REMARK    3  A    between atoms: C_6  and  N_7
REMARK    4  A    between atoms: C_20  and  C_21
REMARK    5  A    between atoms: N_23  and  C_24
REMARK    6  A    between atoms: C_24  and  C_25
REMARK                            x       y       z     vdW  Elec       q    Type
REMARK                         _______ _______ _______ _____ _____    ______ ____
ROOT
ATOM      1  N   UNL     1      -0.816  11.921  20.141  0.00  0.00    +0.000 N 
ATOM      2  C   UNL     1      -0.103  13.012  20.690  0.00  0.00    +0.000 C 
ATOM      3  O   UNL     1       1.027  13.298  20.280  0.00  0.00    +0.000 OA
ATOM      4  C   UNL     1      -0.544  13.677  21.946  0.00  0.00    +0.000 A 
ATOM      5  C   UNL     1       0.139  14.815  22.409  0.00  0.00    +0.000 A 
ATOM      6  C   UNL     1      -0.420  15.622  23.399  0.00  0.00    +0.000 A 
ATOM      7  C   UNL     1      -1.688  15.316  23.877  0.00  0.00    +0.000 A 
ATOM      8  C   UNL     1      -2.243  14.066  23.582  0.00  0.00    +0.000 A 
ATOM      9  C   UNL     1      -1.561  13.170  22.740  0.00  0.00    +0.000 A 
ATOM     10  S   UNL     1      -1.690  11.404  23.129  0.00  0.00    +0.000 S 
ATOM     11  C   UNL     1      -0.420  10.564  22.155  0.00  0.00    +0.000 A 
ATOM     12  C   UNL     1       0.396   9.578  22.728  0.00  0.00    +0.000 A 
ATOM     13  C   UNL     1       1.217   8.773  21.915  0.00  0.00    +0.000 A 
ATOM     14  C   UNL     1       1.208   8.935  20.523  0.00  0.00    +0.000 A 
ATOM     15  C   UNL     1       0.501   9.991  19.960  0.00  0.00    +0.000 A 
ATOM     16  C   UNL     1      -0.302  10.768  20.761  0.00  0.00    +0.000 A 
ENDROOT
BRANCH  14  17
ATOM     17  C   UNL     1       1.881   8.012  19.586  0.00  0.00    +0.000 C 
ATOM     18  O   UNL     1       1.976   8.259  18.373  0.00  0.00    +0.000 OA
ATOM     19  N   UNL     1       2.384   6.906  20.216  0.00  0.00    +0.000 N 
ATOM     20  H   UNL     1       2.482   6.918  21.226  0.00  0.00    +0.000 HD
BRANCH  19  21
ATOM     21  C   UNL     1       2.992   5.775  19.566  0.00  0.00    +0.000 C 
BRANCH  21  22
ATOM     22  C   UNL     1       2.406   4.558  20.188  0.00  0.00    +0.000 A 
ATOM     23  C   UNL     1       1.124   4.182  20.537  0.00  0.00    +0.000 A 
ATOM     24  C   UNL     1       1.229   2.900  21.131  0.00  0.00    +0.000 A 
ATOM     25  C   UNL     1       2.567   2.588  21.138  0.00  0.00    +0.000 A 
ATOM     26  O   UNL     1       3.291   3.590  20.575  0.00  0.00    +0.000 OA
ENDBRANCH  21  22
ENDBRANCH  19  21
ENDBRANCH  14  17
BRANCH   1  27
ATOM     27  C   UNL     1      -2.280  11.781  19.854  0.00  0.00    +0.000 C 
BRANCH  27  32
ATOM     28  C   UNL     1      -4.034  10.013  14.519  0.00  0.00    +0.000 C 
ATOM     29  C   UNL     1      -3.528  10.632  15.799  0.00  0.00    +0.000 A 
ATOM     30  C   UNL     1      -2.198  10.549  16.186  0.00  0.00    +0.000 A 
ATOM     31  C   UNL     1      -1.785  11.015  17.458  0.00  0.00    +0.000 A 
ATOM     32  C   UNL     1      -2.704  11.575  18.384  0.00  0.00    +0.000 A 
ATOM     33  C   UNL     1      -4.021  11.737  17.940  0.00  0.00    +0.000 A 
ATOM     34  C   UNL     1      -4.432  11.259  16.671  0.00  0.00    +0.000 A 
ENDBRANCH  27  32
ENDBRANCH   1  27
TORSDOF 5
ENDMDL
MODEL 3
REMARK VINA RESULT:      -8.8      1.685      2.544
REMARK  Name = 
REMARK  6 active torsions:
REMARK  status: ('A' for Active; 'I' for Inactive)
REMARK    1  A    between atoms: C_1  and  C_2
REMARK    2  A    between atoms: C_5  and  C_6
REMARK    3  A    between atoms: C_6  and  N_7
REMARK    4  A    between atoms: C_20  and  C_21
REMARK    5  A    between atoms: N_23  and  C_24
REMARK    6  A    between atoms: C_24  and  C_25
REMARK                            x       y       z     vdW  Elec       q    Type
REMARK                         _______ _______ _______ _____ _____    ______ ____
ROOT
ATOM      1  N   UNL     1      -0.138  11.123  19.576  0.00  0.00    +0.000 N 
ATOM      2  C   UNL     1       0.636  12.237  19.976  0.00  0.00    +0.000 C 
ATOM      3  O   UNL     1       1.747  12.445  19.477  0.00  0.00    +0.000 OA
ATOM      4  C   UNL     1       0.289  13.032  21.185  0.00  0.00    +0.000 A 
ATOM      5  C   UNL     1       1.030  14.186  21.496  0.00  0.00    +0.000 A 
ATOM      6  C   UNL     1       0.552  15.101  22.434  0.00  0.00    +0.000 A 
ATOM      7  C   UNL     1      -0.692  14.883  23.011  0.00  0.00    +0.000 A 
ATOM      8  C   UNL     1      -1.297  13.629  22.870  0.00  0.00    +0.000 A 
ATOM      9  C   UNL     1      -0.691  12.635  22.081  0.00  0.00    +0.000 A 
ATOM     10  S   UNL     1      -0.845  10.920  22.646  0.00  0.00    +0.000 S 
ATOM     11  C   UNL     1       0.342   9.950  21.686  0.00  0.00    +0.000 A 
ATOM     12  C   UNL     1       1.164   8.997  22.304  0.00  0.00    +0.000 A 
ATOM     13  C   UNL     1       1.913   8.092  21.527  0.00  0.00    +0.000 A 
ATOM     14  C   UNL     1       1.825   8.122  20.129  0.00  0.00    +0.000 A 
ATOM     15  C   UNL     1       1.113   9.142  19.508  0.00  0.00    +0.000 A 
ATOM     16  C   UNL     1       0.381  10.017  20.274  0.00  0.00    +0.000 A 
ENDROOT
BRANCH  14  17
ATOM     17  C   UNL     1       2.415   7.093  19.247  0.00  0.00    +0.000 C 
ATOM     18  O   UNL     1       2.139   7.024  18.040  0.00  0.00    +0.000 OA
ATOM     19  N   UNL     1       3.289   6.277  19.914  0.00  0.00    +0.000 N 
ATOM     20  H   UNL     1       3.639   6.568  20.821  0.00  0.00    +0.000 HD
BRANCH  19  21
ATOM     21  C   UNL     1       3.936   5.116  19.363  0.00  0.00    +0.000 C 
BRANCH  21  22
ATOM     22  C   UNL     1       5.264   5.563  18.862  0.00  0.00    +0.000 A 
ATOM     23  C   UNL     1       5.679   6.273  17.753  0.00  0.00    +0.000 A 
ATOM     24  C   UNL     1       7.093   6.342  17.826  0.00  0.00    +0.000 A 
ATOM     25  C   UNL     1       7.452   5.645  18.955  0.00  0.00    +0.000 A 
ATOM     26  O   UNL     1       6.351   5.162  19.586  0.00  0.00    +0.000 OA
ENDBRANCH  21  22
ENDBRANCH  19  21
ENDBRANCH  14  17
BRANCH   1  27
ATOM     27  C   UNL     1      -1.619  11.004  19.388  0.00  0.00    +0.000 C 
BRANCH  27  32
ATOM     28  C   UNL     1      -4.203   9.932  14.208  0.00  0.00    +0.000 C 
ATOM     29  C   UNL     1      -3.420  10.325  15.437  0.00  0.00    +0.000 A 
ATOM     30  C   UNL     1      -2.251   9.677  15.807  0.00  0.00    +0.000 A 
ATOM     31  C   UNL     1      -1.620   9.975  17.040  0.00  0.00    +0.000 A 
ATOM     32  C   UNL     1      -2.153  10.933  17.942  0.00  0.00    +0.000 A 
ATOM     33  C   UNL     1      -3.279  11.644  17.508  0.00  0.00    +0.000 A 
ATOM     34  C   UNL     1      -3.914  11.334  16.279  0.00  0.00    +0.000 A 
ENDBRANCH  27  32
ENDBRANCH   1  27
TORSDOF 5
ENDMDL
MODEL 4
REMARK VINA RESULT:      -8.7      1.366      2.045
REMARK  Name = 
REMARK  6 active torsions:
REMARK  status: ('A' for Active; 'I' for Inactive)
REMARK    1  A    between atoms: C_1  and  C_2
REMARK    2  A    between atoms: C_5  and  C_6
REMARK    3  A    between atoms: C_6  and  N_7
REMARK    4  A    between atoms: C_20  and  C_21
REMARK    5  A    between atoms: N_23  and  C_24
REMARK    6  A    between atoms: C_24  and  C_25
REMARK                            x       y       z     vdW  Elec       q    Type
REMARK                         _______ _______ _______ _____ _____    ______ ____
ROOT
ATOM      1  N   UNL     1      -0.650  11.879  19.730  0.00  0.00    +0.000 N 
ATOM      2  C   UNL     1       0.084  12.955  20.283  0.00  0.00    +0.000 C 
ATOM      3  O   UNL     1       1.153  13.314  19.780  0.00  0.00    +0.000 OA
ATOM      4  C   UNL     1      -0.240  13.508  21.626  0.00  0.00    +0.000 A 
ATOM      5  C   UNL     1       0.454  14.635  22.101  0.00  0.00    +0.000 A 
ATOM      6  C   UNL     1      -0.021  15.344  23.204  0.00  0.00    +0.000 A 
ATOM      7  C   UNL     1      -1.219  14.954  23.788  0.00  0.00    +0.000 A 
ATOM      8  C   UNL     1      -1.762  13.708  23.458  0.00  0.00    +0.000 A 
ATOM      9  C   UNL     1      -1.148  12.903  22.481  0.00  0.00    +0.000 A 
ATOM     10  S   UNL     1      -1.178  11.110  22.745  0.00  0.00    +0.000 S 
ATOM     11  C   UNL     1       0.005  10.395  21.580  0.00  0.00    +0.000 A 
ATOM     12  C   UNL     1       0.910   9.403  21.986  0.00  0.00    +0.000 A 
ATOM     13  C   UNL     1       1.662   8.693  21.031  0.00  0.00    +0.000 A 
ATOM     14  C   UNL     1       1.498   8.956  19.665  0.00  0.00    +0.000 A 
ATOM     15  C   UNL     1       0.700  10.021  19.263  0.00  0.00    +0.000 A 
ATOM     16  C   UNL     1      -0.036  10.705  20.201  0.00  0.00    +0.000 A 
ENDROOT
BRANCH  14  17
ATOM     17  C   UNL     1       2.094   8.132  18.593  0.00  0.00    +0.000 C 
ATOM     18  O   UNL     1       2.286   8.577  17.450  0.00  0.00    +0.000 OA
ATOM     19  N   UNL     1       2.412   6.872  19.022  0.00  0.00    +0.000 N 
ATOM     20  H   UNL     1       2.456   6.689  20.019  0.00  0.00    +0.000 HD
BRANCH  19  21
ATOM     21  C   UNL     1       2.901   5.803  18.192  0.00  0.00    +0.000 C 
BRANCH  21  22
ATOM     22  C   UNL     1       4.387   5.873  18.235  0.00  0.00    +0.000 A 
ATOM     23  C   UNL     1       5.346   6.401  17.394  0.00  0.00    +0.000 A 
ATOM     24  C   UNL     1       6.601   6.109  17.983  0.00  0.00    +0.000 A 
ATOM     25  C   UNL     1       6.332   5.396  19.126  0.00  0.00    +0.000 A 
ATOM     26  O   UNL     1       4.992   5.240  19.284  0.00  0.00    +0.000 OA
ENDBRANCH  21  22
ENDBRANCH  19  21
ENDBRANCH  14  17
BRANCH   1  27
ATOM     27  C   UNL     1      -2.131  11.703  19.590  0.00  0.00    +0.000 C 
BRANCH  27  32
ATOM     28  C   UNL     1      -3.719  10.110  14.149  0.00  0.00    +0.000 C 
ATOM     29  C   UNL     1      -3.433  10.378  15.606  0.00  0.00    +0.000 A 
ATOM     30  C   UNL     1      -4.231  11.212  16.376  0.00  0.00    +0.000 A 
ATOM     31  C   UNL     1      -3.854  11.554  17.698  0.00  0.00    +0.000 A 
ATOM     32  C   UNL     1      -2.655  11.069  18.283  0.00  0.00    +0.000 A 
ATOM     33  C   UNL     1      -1.913  10.155  17.527  0.00  0.00    +0.000 A 
ATOM     34  C   UNL     1      -2.287   9.825  16.200  0.00  0.00    +0.000 A 
ENDBRANCH  27  32
ENDBRANCH   1  27
TORSDOF 5
ENDMDL
MODEL 5
REMARK VINA RESULT:      -8.3      2.474      4.489
REMARK  Name = 
REMARK  6 active torsions:
REMARK  status: ('A' for Active; 'I' for Inactive)
REMARK    1  A    between atoms: C_1  and  C_2
REMARK    2  A    between atoms: C_5  and  C_6
REMARK    3  A    between atoms: C_6  and  N_7
REMARK    4  A    between atoms: C_20  and  C_21
REMARK    5  A    between atoms: N_23  and  C_24
REMARK    6  A    between atoms: C_24  and  C_25
REMARK                            x       y       z     vdW  Elec       q    Type
REMARK                         _______ _______ _______ _____ _____    ______ ____
ROOT
ATOM      1  N   UNL     1      -0.016  12.542  21.607  0.00  0.00    +0.000 N 
ATOM      2  C   UNL     1      -0.864  11.995  22.598  0.00  0.00    +0.000 C 
ATOM      3  O   UNL     1      -0.578  10.930  23.155  0.00  0.00    +0.000 OA
ATOM      4  C   UNL     1      -2.243  12.510  22.812  0.00  0.00    +0.000 A 
ATOM      5  C   UNL     1      -3.021  12.001  23.867  0.00  0.00    +0.000 A 
ATOM      6  C   UNL     1      -4.181  12.659  24.272  0.00  0.00    +0.000 A 
ATOM      7  C   UNL     1      -4.524  13.856  23.656  0.00  0.00    +0.000 A 
ATOM      8  C   UNL     1      -3.879  14.217  22.468  0.00  0.00    +0.000 A 
ATOM      9  C   UNL     1      -2.839  13.422  21.955  0.00  0.00    +0.000 A 
ATOM     10  S   UNL     1      -2.721  13.271  20.153  0.00  0.00    +0.000 S 
ATOM     11  C   UNL     1      -1.584  11.905  19.820  0.00  0.00    +0.000 A 
ATOM     12  C   UNL     1      -1.882  10.937  18.851  0.00  0.00    +0.000 A 
ATOM     13  C   UNL     1      -0.898  10.017  18.438  0.00  0.00    +0.000 A 
ATOM     14  C   UNL     1       0.394  10.076  18.978  0.00  0.00    +0.000 A 
ATOM     15  C   UNL     1       0.660  10.948  20.027  0.00  0.00    +0.000 A 
ATOM     16  C   UNL     1      -0.305  11.846  20.419  0.00  0.00    +0.000 A 
ENDROOT
BRANCH  14  17
ATOM     17  C   UNL     1       1.533   9.287  18.465  0.00  0.00    +0.000 C 
ATOM     18  O   UNL     1       2.157   9.617  17.445  0.00  0.00    +0.000 OA
ATOM     19  N   UNL     1       1.808   8.200  19.252  0.00  0.00    +0.000 N 
ATOM     20  H   UNL     1       1.418   8.160  20.187  0.00  0.00    +0.000 HD
BRANCH  19  21
ATOM     21  C   UNL     1       2.780   7.181  18.960  0.00  0.00    +0.000 C 
BRANCH  21  22
ATOM     22  C   UNL     1       2.193   5.889  19.406  0.00  0.00    +0.000 A 
ATOM     23  C   UNL     1       1.844   5.368  20.637  0.00  0.00    +0.000 A 
ATOM     24  C   UNL     1       1.362   4.057  20.397  0.00  0.00    +0.000 A 
ATOM     25  C   UNL     1       1.477   3.849  19.043  0.00  0.00    +0.000 A 
ATOM     26  O   UNL     1       1.986   4.950  18.434  0.00  0.00    +0.000 OA
ENDBRANCH  21  22
ENDBRANCH  19  21
ENDBRANCH  14  17
BRANCH   1  27
ATOM     27  C   UNL     1       0.335  13.972  21.330  0.00  0.00    +0.000 C 
BRANCH  27  32
ATOM     28  C   UNL     1       5.077  15.951  18.457  0.00  0.00    +0.000 C 
ATOM     29  C   UNL     1       3.862  15.295  19.066  0.00  0.00    +0.000 A 
ATOM     30  C   UNL     1       2.581  15.515  18.582  0.00  0.00    +0.000 A 
ATOM     31  C   UNL     1       1.453  14.997  19.264  0.00  0.00    +0.000 A 
ATOM     32  C   UNL     1       1.581  14.247  20.462  0.00  0.00    +0.000 A 
ATOM     33  C   UNL     1       2.884  13.956  20.882  0.00  0.00    +0.000 A 
ATOM     34  C   UNL     1       4.010  14.485  20.203  0.00  0.00    +0.000 A 
ENDBRANCH  27  32
ENDBRANCH   1  27
TORSDOF 5
ENDMDL
MODEL 6
REMARK VINA RESULT:      -8.3      2.465      4.515
REMARK  Name = 
REMARK  6 active torsions:
REMARK  status: ('A' for Active; 'I' for Inactive)
REMARK    1  A    between atoms: C_1  and  C_2
REMARK    2  A    between atoms: C_5  and  C_6
REMARK    3  A    between atoms: C_6  and  N_7
REMARK    4  A    between atoms: C_20  and  C_21
REMARK    5  A    between atoms: N_23  and  C_24
REMARK    6  A    between atoms: C_24  and  C_25
REMARK                            x       y       z     vdW  Elec       q    Type
REMARK                         _______ _______ _______ _____ _____    ______ ____
ROOT
ATOM      1  N   UNL     1      -0.125  12.761  21.512  0.00  0.00    +0.000 N 
ATOM      2  C   UNL     1      -0.887  12.151  22.535  0.00  0.00    +0.000 C 
ATOM      3  O   UNL     1      -0.493  11.116  23.084  0.00  0.00    +0.000 OA
ATOM      4  C   UNL     1      -2.295  12.551  22.800  0.00  0.00    +0.000 A 
ATOM      5  C   UNL     1      -2.988  11.985  23.885  0.00  0.00    +0.000 A 
ATOM      6  C   UNL     1      -4.184  12.547  24.332  0.00  0.00    +0.000 A 
ATOM      7  C   UNL     1      -4.647  13.708  23.725  0.00  0.00    +0.000 A 
ATOM      8  C   UNL     1      -4.079  14.115  22.513  0.00  0.00    +0.000 A 
ATOM      9  C   UNL     1      -2.996  13.406  21.964  0.00  0.00    +0.000 A 
ATOM     10  S   UNL     1      -2.933  13.256  20.159  0.00  0.00    +0.000 S 
ATOM     11  C   UNL     1      -1.700  11.986  19.787  0.00  0.00    +0.000 A 
ATOM     12  C   UNL     1      -1.952  10.992  18.832  0.00  0.00    +0.000 A 
ATOM     13  C   UNL     1      -0.912  10.155  18.385  0.00  0.00    +0.000 A 
ATOM     14  C   UNL     1       0.390  10.323  18.875  0.00  0.00    +0.000 A 
ATOM     15  C   UNL     1       0.622  11.220  19.912  0.00  0.00    +0.000 A 
ATOM     16  C   UNL     1      -0.399  12.037  20.338  0.00  0.00    +0.000 A 
ENDROOT
BRANCH  14  17
ATOM     17  C   UNL     1       1.571   9.628  18.322  0.00  0.00    +0.000 C 
ATOM     18  O   UNL     1       2.322  10.165  17.492  0.00  0.00    +0.000 OA
ATOM     19  N   UNL     1       1.729   8.374  18.847  0.00  0.00    +0.000 N 
ATOM     20  H   UNL     1       1.225   8.128  19.692  0.00  0.00    +0.000 HD
BRANCH  19  21
ATOM     21  C   UNL     1       2.713   7.410  18.431  0.00  0.00    +0.000 C 
BRANCH  21  22
ATOM     22  C   UNL     1       2.569   6.235  19.332  0.00  0.00    +0.000 A 
ATOM     23  C   UNL     1       1.830   5.986  20.472  0.00  0.00    +0.000 A 
ATOM     24  C   UNL     1       2.162   4.672  20.886  0.00  0.00    +0.000 A 
ATOM     25  C   UNL     1       3.102   4.215  19.996  0.00  0.00    +0.000 A 
ATOM     26  O   UNL     1       3.363   5.157  19.053  0.00  0.00    +0.000 OA
ENDBRANCH  21  22
ENDBRANCH  19  21
ENDBRANCH  14  17
BRANCH   1  27
ATOM     27  C   UNL     1       0.096  14.213  21.219  0.00  0.00    +0.000 C 
BRANCH  27  32
ATOM     28  C   UNL     1       5.038  14.691  18.055  0.00  0.00    +0.000 C 
ATOM     29  C   UNL     1       3.807  14.751  18.927  0.00  0.00    +0.000 A 
ATOM     30  C   UNL     1       3.844  14.449  20.280  0.00  0.00    +0.000 A 
ATOM     31  C   UNL     1       2.648  14.377  21.036  0.00  0.00    +0.000 A 
ATOM     32  C   UNL     1       1.376  14.601  20.448  0.00  0.00    +0.000 A 
ATOM     33  C   UNL     1       1.367  14.998  19.106  0.00  0.00    +0.000 A 
ATOM     34  C   UNL     1       2.565  15.058  18.350  0.00  0.00    +0.000 A 
ENDBRANCH  27  32
ENDBRANCH   1  27
TORSDOF 5
ENDMDL
MODEL 7
REMARK VINA RESULT:      -8.2      1.760      2.464
REMARK  Name = 
REMARK  6 active torsions:
REMARK  status: ('A' for Active; 'I' for Inactive)
REMARK    1  A    between atoms: C_1  and  C_2
REMARK    2  A    between atoms: C_5  and  C_6
REMARK    3  A    between atoms: C_6  and  N_7
REMARK    4  A    between atoms: C_20  and  C_21
REMARK    5  A    between atoms: N_23  and  C_24
REMARK    6  A    between atoms: C_24  and  C_25
REMARK                            x       y       z     vdW  Elec       q    Type
REMARK                         _______ _______ _______ _____ _____    ______ ____
ROOT
ATOM      1  N   UNL     1      -0.227  11.123  19.217  0.00  0.00    +0.000 N 
ATOM      2  C   UNL     1       0.711  12.181  19.179  0.00  0.00    +0.000 C 
ATOM      3  O   UNL     1       1.777  12.058  18.568  0.00  0.00    +0.000 OA
ATOM      4  C   UNL     1       0.592  13.358  20.083  0.00  0.00    +0.000 A 
ATOM      5  C   UNL     1       1.492  14.430  19.952  0.00  0.00    +0.000 A 
ATOM      6  C   UNL     1       1.230  15.652  20.569  0.00  0.00    +0.000 A 
ATOM      7  C   UNL     1       0.038  15.810  21.267  0.00  0.00    +0.000 A 
ATOM      8  C   UNL     1      -0.720  14.678  21.582  0.00  0.00    +0.000 A 
ATOM      9  C   UNL     1      -0.324  13.409  21.122  0.00  0.00    +0.000 A 
ATOM     10  S   UNL     1      -0.614  12.000  22.224  0.00  0.00    +0.000 S 
ATOM     11  C   UNL     1       0.340  10.616  21.557  0.00  0.00    +0.000 A 
ATOM     12  C   UNL     1       1.108   9.797  22.396  0.00  0.00    +0.000 A 
ATOM     13  C   UNL     1       1.657   8.594  21.909  0.00  0.00    +0.000 A 
ATOM     14  C   UNL     1       1.421   8.196  20.587  0.00  0.00    +0.000 A 
ATOM     15  C   UNL     1       0.770   9.061  19.716  0.00  0.00    +0.000 A 
ATOM     16  C   UNL     1       0.233  10.230  20.201  0.00  0.00    +0.000 A 
ENDROOT
BRANCH  14  17
ATOM     17  C   UNL     1       1.788   6.868  20.053  0.00  0.00    +0.000 C 
ATOM     18  O   UNL     1       1.628   5.827  20.710  0.00  0.00    +0.000 OA
ATOM     19  N   UNL     1       2.286   6.939  18.780  0.00  0.00    +0.000 N 
ATOM     20  H   UNL     1       2.140   7.787  18.242  0.00  0.00    +0.000 HD
BRANCH  19  21
ATOM     21  C   UNL     1       2.834   5.838  18.032  0.00  0.00    +0.000 C 
BRANCH  21  22
ATOM     22  C   UNL     1       4.310   5.895  18.206  0.00  0.00    +0.000 A 
ATOM     23  C   UNL     1       5.342   6.440  17.467  0.00  0.00    +0.000 A 
ATOM     24  C   UNL     1       6.540   6.121  18.154  0.00  0.00    +0.000 A 
ATOM     25  C   UNL     1       6.168   5.376  19.247  0.00  0.00    +0.000 A 
ATOM     26  O   UNL     1       4.819   5.226  19.284  0.00  0.00    +0.000 OA
ENDBRANCH  21  22
ENDBRANCH  19  21
ENDBRANCH  14  17
BRANCH   1  27
ATOM     27  C   UNL     1      -1.723  11.168  19.175  0.00  0.00    +0.000 C 
BRANCH  27  32
ATOM     28  C   UNL     1      -3.937  10.125  13.820  0.00  0.00    +0.000 C 
ATOM     29  C   UNL     1      -3.496  10.258  15.258  0.00  0.00    +0.000 A 
ATOM     30  C   UNL     1      -4.144  11.093  16.156  0.00  0.00    +0.000 A 
ATOM     31  C   UNL     1      -3.619  11.302  17.455  0.00  0.00    +0.000 A 
ATOM     32  C   UNL     1      -2.419  10.680  17.886  0.00  0.00    +0.000 A 
ATOM     33  C   UNL     1      -1.831   9.769  17.001  0.00  0.00    +0.000 A 
ATOM     34  C   UNL     1      -2.354   9.571  15.698  0.00  0.00    +0.000 A 
ENDBRANCH  27  32
ENDBRANCH   1  27
TORSDOF 5
ENDMDL
MODEL 8
REMARK VINA RESULT:      -8.1      3.250      9.103
REMARK  Name = 
REMARK  6 active torsions:
REMARK  status: ('A' for Active; 'I' for Inactive)
REMARK    1  A    between atoms: C_1  and  C_2
REMARK    2  A    between atoms: C_5  and  C_6
REMARK    3  A    between atoms: C_6  and  N_7
REMARK    4  A    between atoms: C_20  and  C_21
REMARK    5  A    between atoms: N_23  and  C_24
REMARK    6  A    between atoms: C_24  and  C_25
REMARK                            x       y       z     vdW  Elec       q    Type
REMARK                         _______ _______ _______ _____ _____    ______ ____
ROOT
ATOM      1  N   UNL     1       2.843   6.323  17.922  0.00  0.00    +0.000 N 
ATOM      2  C   UNL     1       1.883   5.294  17.776  0.00  0.00    +0.000 C 
ATOM      3  O   UNL     1       0.875   5.465  17.083  0.00  0.00    +0.000 OA
ATOM      4  C   UNL     1       1.895   4.090  18.650  0.00  0.00    +0.000 A 
ATOM      5  C   UNL     1       0.981   3.048  18.413  0.00  0.00    +0.000 A 
ATOM      6  C   UNL     1       1.158   1.802  19.013  0.00  0.00    +0.000 A 
ATOM      7  C   UNL     1       2.283   1.590  19.800  0.00  0.00    +0.000 A 
ATOM      8  C   UNL     1       3.043   2.690  20.210  0.00  0.00    +0.000 A 
ATOM      9  C   UNL     1       2.721   3.983  19.758  0.00  0.00    +0.000 A 
ATOM     10  S   UNL     1       2.956   5.351  20.922  0.00  0.00    +0.000 S 
ATOM     11  C   UNL     1       2.098   6.781  20.222  0.00  0.00    +0.000 A 
ATOM     12  C   UNL     1       1.285   7.598  21.020  0.00  0.00    +0.000 A 
ATOM     13  C   UNL     1       0.811   8.829  20.527  0.00  0.00    +0.000 A 
ATOM     14  C   UNL     1       1.166   9.257  19.241  0.00  0.00    +0.000 A 
ATOM     15  C   UNL     1       1.864   8.398  18.400  0.00  0.00    +0.000 A 
ATOM     16  C   UNL     1       2.327   7.201  18.892  0.00  0.00    +0.000 A 
ENDROOT
BRANCH  14  17
ATOM     17  C   UNL     1       0.880  10.610  18.719  0.00  0.00    +0.000 C 
ATOM     18  O   UNL     1       1.766  11.471  18.602  0.00  0.00    +0.000 OA
ATOM     19  N   UNL     1      -0.436  10.768  18.375  0.00  0.00    +0.000 N 
ATOM     20  H   UNL     1      -1.017   9.943  18.266  0.00  0.00    +0.000 HD
BRANCH  19  21
ATOM     21  C   UNL     1      -1.047  11.997  17.945  0.00  0.00    +0.000 C 
BRANCH  21  22
ATOM     22  C   UNL     1      -2.385  11.642  17.399  0.00  0.00    +0.000 A 
ATOM     23  C   UNL     1      -3.658  11.603  17.933  0.00  0.00    +0.000 A 
ATOM     24  C   UNL     1      -4.512  11.142  16.900  0.00  0.00    +0.000 A 
ATOM     25  C   UNL     1      -3.705  10.898  15.815  0.00  0.00    +0.000 A 
ATOM     26  O   UNL     1      -2.411  11.190  16.109  0.00  0.00    +0.000 OA
ENDBRANCH  21  22
ENDBRANCH  19  21
ENDBRANCH  14  17
BRANCH   1  27
ATOM     27  C   UNL     1       4.336   6.236  18.001  0.00  0.00    +0.000 C 
BRANCH  27  32
ATOM     28  C   UNL     1       6.253   3.547  13.127  0.00  0.00    +0.000 C 
ATOM     29  C   UNL     1       5.950   4.249  14.428  0.00  0.00    +0.000 A 
ATOM     30  C   UNL     1       5.817   3.563  15.626  0.00  0.00    +0.000 A 
ATOM     31  C   UNL     1       5.392   4.233  16.800  0.00  0.00    +0.000 A 
ATOM     32  C   UNL     1       5.082   5.618  16.799  0.00  0.00    +0.000 A 
ATOM     33  C   UNL     1       5.313   6.312  15.607  0.00  0.00    +0.000 A 
ATOM     34  C   UNL     1       5.727   5.636  14.432  0.00  0.00    +0.000 A 
ENDBRANCH  27  32
ENDBRANCH   1  27
TORSDOF 5
ENDMDL
MODEL 9
REMARK VINA RESULT:      -8.0      2.766      7.551
REMARK  Name = 
REMARK  6 active torsions:
REMARK  status: ('A' for Active; 'I' for Inactive)
REMARK    1  A    between atoms: C_1  and  C_2
REMARK    2  A    between atoms: C_5  and  C_6
REMARK    3  A    between atoms: C_6  and  N_7
REMARK    4  A    between atoms: C_20  and  C_21
REMARK    5  A    between atoms: N_23  and  C_24
REMARK    6  A    between atoms: C_24  and  C_25
REMARK                            x       y       z     vdW  Elec       q    Type
REMARK                         _______ _______ _______ _____ _____    ______ ____
ROOT
ATOM      1  N   UNL     1      -0.763  10.874  19.804  0.00  0.00    +0.000 N 
ATOM      2  C   UNL     1      -0.097   9.773  20.392  0.00  0.00    +0.000 C 
ATOM      3  O   UNL     1      -0.273   9.492  21.582  0.00  0.00    +0.000 OA
ATOM      4  C   UNL     1       1.030   9.088  19.705  0.00  0.00    +0.000 A 
ATOM      5  C   UNL     1       1.605   7.941  20.281  0.00  0.00    +0.000 A 
ATOM      6  C   UNL     1       2.446   7.119  19.533  0.00  0.00    +0.000 A 
ATOM      7  C   UNL     1       2.660   7.419  18.193  0.00  0.00    +0.000 A 
ATOM      8  C   UNL     1       2.278   8.675  17.709  0.00  0.00    +0.000 A 
ATOM      9  C   UNL     1       1.608   9.584  18.547  0.00  0.00    +0.000 A 
ATOM     10  S   UNL     1       1.992  11.343  18.337  0.00  0.00    +0.000 S 
ATOM     11  C   UNL     1       1.312  12.197  19.779  0.00  0.00    +0.000 A 
ATOM     12  C   UNL     1       2.056  13.172  20.459  0.00  0.00    +0.000 A 
ATOM     13  C   UNL     1       1.441  13.989  21.427  0.00  0.00    +0.000 A 
ATOM     14  C   UNL     1       0.074  13.849  21.703  0.00  0.00    +0.000 A 
ATOM     15  C   UNL     1      -0.639  12.805  21.127  0.00  0.00    +0.000 A 
ATOM     16  C   UNL     1      -0.032  12.016  20.179  0.00  0.00    +0.000 A 
ENDROOT
BRANCH  14  17
ATOM     17  C   UNL     1      -0.691  14.787  22.552  0.00  0.00    +0.000 C 
ATOM     18  O   UNL     1      -0.178  15.364  23.523  0.00  0.00    +0.000 OA
ATOM     19  N   UNL     1      -1.982  14.940  22.123  0.00  0.00    +0.000 N 
ATOM     20  H   UNL     1      -2.229  14.633  21.188  0.00  0.00    +0.000 HD
BRANCH  19  21
ATOM     21  C   UNL     1      -3.005  15.693  22.800  0.00  0.00    +0.000 C 
BRANCH  21  22
ATOM     22  C   UNL     1      -4.129  14.754  23.056  0.00  0.00    +0.000 A 
ATOM     23  C   UNL     1      -4.293  13.391  22.904  0.00  0.00    +0.000 A 
ATOM     24  C   UNL     1      -5.625  13.101  23.294  0.00  0.00    +0.000 A 
ATOM     25  C   UNL     1      -6.198  14.304  23.627  0.00  0.00    +0.000 A 
ATOM     26  O   UNL     1      -5.302  15.315  23.479  0.00  0.00    +0.000 OA
ENDBRANCH  21  22
ENDBRANCH  19  21
ENDBRANCH  14  17
BRANCH   1  27
ATOM     27  C   UNL     1      -1.340  11.021  18.430  0.00  0.00    +0.000 C 
BRANCH  27  32
ATOM     28  C   UNL     1      -7.120  12.096  18.115  0.00  0.00    +0.000 C 
ATOM     29  C   UNL     1      -5.614  12.002  18.128  0.00  0.00    +0.000 A 
ATOM     30  C   UNL     1      -4.885  11.641  17.005  0.00  0.00    +0.000 A 
ATOM     31  C   UNL     1      -3.487  11.424  17.089  0.00  0.00    +0.000 A 
ATOM     32  C   UNL     1      -2.782  11.560  18.314  0.00  0.00    +0.000 A 
ATOM     33  C   UNL     1      -3.517  12.017  19.413  0.00  0.00    +0.000 A 
ATOM     34  C   UNL     1      -4.917  12.221  19.327  0.00  0.00    +0.000 A 
ENDBRANCH  27  32
ENDBRANCH   1  27
TORSDOF 5
ENDMDL
