MODEL 1
REMARK VINA RESULT:      -7.4      0.000      0.000
REMARK  Name = 
REMARK  6 active torsions:
REMARK  status: ('A' for Active; 'I' for Inactive)
REMARK    1  A    between atoms: C_1  and  N_2
REMARK    2  A    between atoms: C_8  and  C_9
REMARK    3  A    between atoms: C_9  and  C_10
REMARK    4  A    between atoms: C_10  and  N_11
REMARK    5  A    between atoms: N_14  and  C_15
REMARK    6  A    between atoms: C_15  and  C_16
REMARK                            x       y       z     vdW  Elec       q    Type
REMARK                         _______ _______ _______ _____ _____    ______ ____
ROOT
ATOM      1  N   UNL     1       0.995  10.123  19.086  0.00  0.00    +0.000 NA
ATOM      2  C   UNL     1       1.434  11.531  18.980  0.00  0.00    +0.000 C 
ATOM      3  C   UNL     1       0.411  12.514  18.367  0.00  0.00    +0.000 C 
ATOM      4  N   UNL     1      -0.916  12.454  19.016  0.00  0.00    +0.000 NA
ATOM      5  C   UNL     1      -1.385  11.057  18.875  0.00  0.00    +0.000 C 
ATOM      6  C   UNL     1      -0.426   9.997  19.465  0.00  0.00    +0.000 C 
ENDROOT
BRANCH   1   7
ATOM      7  C   UNL     1       1.333   9.338  17.894  0.00  0.00    +0.000 C 
BRANCH   7   8
ATOM      8  C   UNL     1       2.715   8.690  18.076  0.00  0.00    +0.000 C 
BRANCH   8  16
ATOM      9  C   UNL     1       2.465   2.750  21.053  0.00  0.00    +0.000 C 
ATOM     10  N   UNL     1       2.886   3.294  19.787  0.00  0.00    +0.000 N 
ATOM     11  C   UNL     1       3.504   2.522  18.816  0.00  0.00    +0.000 A 
ATOM     12  O   UNL     1       3.760   1.328  18.872  0.00  0.00    +0.000 OA
ATOM     13  S   UNL     1       3.898   3.530  17.410  0.00  0.00    +0.000 S 
ATOM     14  C   UNL     1       3.225   4.962  18.197  0.00  0.00    +0.000 A 
ATOM     15  C   UNL     1       3.187   6.253  17.706  0.00  0.00    +0.000 A 
ATOM     16  C   UNL     1       2.652   7.260  18.527  0.00  0.00    +0.000 A 
ATOM     17  C   UNL     1       2.119   6.943  19.787  0.00  0.00    +0.000 A 
ATOM     18  C   UNL     1       2.158   5.632  20.263  0.00  0.00    +0.000 A 
ATOM     19  C   UNL     1       2.725   4.652  19.461  0.00  0.00    +0.000 A 
ENDBRANCH   8  16
ENDBRANCH   7   8
ENDBRANCH   1   7
BRANCH   4  20
ATOM     20  C   UNL     1      -0.768  12.870  20.432  0.00  0.00    +0.000 C 
BRANCH  20  21
ATOM     21  C   UNL     1      -2.032  12.884  21.261  0.00  0.00    +0.000 A 
ATOM     22  C   UNL     1      -3.089  13.737  20.906  0.00  0.00    +0.000 A 
ATOM     23  C   UNL     1      -4.222  13.840  21.709  0.00  0.00    +0.000 A 
ATOM     24  C   UNL     1      -4.296  13.105  22.890  0.00  0.00    +0.000 A 
ATOM     25 CL   UNL     1      -5.672  13.270  23.908  0.00  0.00    +0.000 Cl
ATOM     26  C   UNL     1      -3.268  12.245  23.260  0.00  0.00    +0.000 A 
ATOM     27  C   UNL     1      -2.138  12.136  22.451  0.00  0.00    +0.000 A 
ATOM     28 CL   UNL     1      -0.890  11.067  22.993  0.00  0.00    +0.000 Cl
ENDBRANCH  20  21
ENDBRANCH   4  20
TORSDOF 5
ENDMDL
MODEL 2
REMARK VINA RESULT:      -7.3      8.069     10.465
REMARK  Name = 
REMARK  6 active torsions:
REMARK  status: ('A' for Active; 'I' for Inactive)
REMARK    1  A    between atoms: C_1  and  N_2
REMARK    2  A    between atoms: C_8  and  C_9
REMARK    3  A    between atoms: C_9  and  C_10
REMARK    4  A    between atoms: C_10  and  N_11
REMARK    5  A    between atoms: N_14  and  C_15
REMARK    6  A    between atoms: C_15  and  C_16
REMARK                            x       y       z     vdW  Elec       q    Type
REMARK                         _______ _______ _______ _____ _____    ______ ____
ROOT
ATOM      1  N   UNL     1       7.023   6.412  17.632  0.00  0.00    +0.000 NA
ATOM      2  C   UNL     1       5.851   6.254  18.520  0.00  0.00    +0.000 C 
ATOM      3  C   UNL     1       4.470   6.258  17.826  0.00  0.00    +0.000 C 
ATOM      4  N   UNL     1       4.378   5.299  16.705  0.00  0.00    +0.000 NA
ATOM      5  C   UNL     1       5.445   5.672  15.750  0.00  0.00    +0.000 C 
ATOM      6  C   UNL     1       6.869   5.691  16.353  0.00  0.00    +0.000 C 
ENDROOT
BRANCH   1   7
ATOM      7  C   UNL     1       7.400   7.817  17.447  0.00  0.00    +0.000 C 
BRANCH   7   8
ATOM      8  C   UNL     1       8.492   8.197  18.460  0.00  0.00    +0.000 C 
BRANCH   8  16
ATOM      9  C   UNL     1       9.388  14.771  18.018  0.00  0.00    +0.000 C 
ATOM     10  N   UNL     1       9.653  13.718  18.965  0.00  0.00    +0.000 N 
ATOM     11  C   UNL     1      10.348  13.936  20.143  0.00  0.00    +0.000 A 
ATOM     12  O   UNL     1      10.805  14.996  20.547  0.00  0.00    +0.000 OA
ATOM     13  S   UNL     1      10.502  12.413  21.040  0.00  0.00    +0.000 S 
ATOM     14  C   UNL     1       9.632  11.534  19.778  0.00  0.00    +0.000 A 
ATOM     15  C   UNL     1       9.354  10.182  19.731  0.00  0.00    +0.000 A 
ATOM     16  C   UNL     1       8.693   9.678  18.599  0.00  0.00    +0.000 A 
ATOM     17  C   UNL     1       8.279  10.543  17.572  0.00  0.00    +0.000 A 
ATOM     18  C   UNL     1       8.561  11.908  17.640  0.00  0.00    +0.000 A 
ATOM     19  C   UNL     1       9.249  12.389  18.745  0.00  0.00    +0.000 A 
ENDBRANCH   8  16
ENDBRANCH   7   8
ENDBRANCH   1   7
BRANCH   4  20
ATOM     20  C   UNL     1       4.545   3.927  17.243  0.00  0.00    +0.000 C 
BRANCH  20  21
ATOM     21  C   UNL     1       3.762   3.599  18.494  0.00  0.00    +0.000 A 
ATOM     22  C   UNL     1       4.414   3.019  19.593  0.00  0.00    +0.000 A 
ATOM     23  C   UNL     1       3.697   2.617  20.717  0.00  0.00    +0.000 A 
ATOM     24  C   UNL     1       2.313   2.771  20.739  0.00  0.00    +0.000 A 
ATOM     25 CL   UNL     1       1.420   2.228  22.106  0.00  0.00    +0.000 Cl
ATOM     26  C   UNL     1       1.643   3.351  19.668  0.00  0.00    +0.000 A 
ATOM     27  C   UNL     1       2.362   3.761  18.547  0.00  0.00    +0.000 A 
ATOM     28 CL   UNL     1       1.454   4.448  17.245  0.00  0.00    +0.000 Cl
ENDBRANCH  20  21
ENDBRANCH   4  20
TORSDOF 5
ENDMDL
MODEL 3
REMARK VINA RESULT:      -7.3      1.119      1.600
REMARK  Name = 
REMARK  6 active torsions:
REMARK  status: ('A' for Active; 'I' for Inactive)
REMARK    1  A    between atoms: C_1  and  N_2
REMARK    2  A    between atoms: C_8  and  C_9
REMARK    3  A    between atoms: C_9  and  C_10
REMARK    4  A    between atoms: C_10  and  N_11
REMARK    5  A    between atoms: N_14  and  C_15
REMARK    6  A    between atoms: C_15  and  C_16
REMARK                            x       y       z     vdW  Elec       q    Type
REMARK                         _______ _______ _______ _____ _____    ______ ____
ROOT
ATOM      1  N   UNL     1       0.592  10.434  19.118  0.00  0.00    +0.000 NA
ATOM      2  C   UNL     1       0.962  11.857  18.960  0.00  0.00    +0.000 C 
ATOM      3  C   UNL     1      -0.123  12.775  18.353  0.00  0.00    +0.000 C 
ATOM      4  N   UNL     1      -1.425  12.674  19.044  0.00  0.00    +0.000 NA
ATOM      5  C   UNL     1      -1.834  11.254  18.956  0.00  0.00    +0.000 C 
ATOM      6  C   UNL     1      -0.811  10.255  19.544  0.00  0.00    +0.000 C 
ENDROOT
BRANCH   1   7
ATOM      7  C   UNL     1       0.929   9.632  17.937  0.00  0.00    +0.000 C 
BRANCH   7   8
ATOM      8  C   UNL     1       2.441   9.358  17.914  0.00  0.00    +0.000 C 
BRANCH   8  16
ATOM      9  C   UNL     1       4.144   2.937  18.196  0.00  0.00    +0.000 C 
ATOM     10  N   UNL     1       3.395   3.878  18.987  0.00  0.00    +0.000 N 
ATOM     11  C   UNL     1       2.702   3.505  20.127  0.00  0.00    +0.000 A 
ATOM     12  O   UNL     1       2.634   2.388  20.619  0.00  0.00    +0.000 OA
ATOM     13  S   UNL     1       1.883   4.918  20.821  0.00  0.00    +0.000 S 
ATOM     14  C   UNL     1       2.497   5.958  19.532  0.00  0.00    +0.000 A 
ATOM     15  C   UNL     1       2.249   7.305  19.345  0.00  0.00    +0.000 A 
ATOM     16  C   UNL     1       2.797   7.931  18.214  0.00  0.00    +0.000 A 
ATOM     17  C   UNL     1       3.623   7.213  17.333  0.00  0.00    +0.000 A 
ATOM     18  C   UNL     1       3.870   5.856  17.541  0.00  0.00    +0.000 A 
ATOM     19  C   UNL     1       3.290   5.237  18.641  0.00  0.00    +0.000 A 
ENDBRANCH   8  16
ENDBRANCH   7   8
ENDBRANCH   1   7
BRANCH   4  20
ATOM     20  C   UNL     1      -1.255  13.136  20.443  0.00  0.00    +0.000 C 
BRANCH  20  21
ATOM     21  C   UNL     1      -2.477  13.052  21.330  0.00  0.00    +0.000 A 
ATOM     22  C   UNL     1      -3.624  13.793  21.007  0.00  0.00    +0.000 A 
ATOM     23  C   UNL     1      -4.725  13.809  21.859  0.00  0.00    +0.000 A 
ATOM     24  C   UNL     1      -4.676  13.101  23.058  0.00  0.00    +0.000 A 
ATOM     25 CL   UNL     1      -6.015  13.162  24.135  0.00  0.00    +0.000 Cl
ATOM     26  C   UNL     1      -3.555  12.351  23.397  0.00  0.00    +0.000 A 
ATOM     27  C   UNL     1      -2.457  12.329  22.540  0.00  0.00    +0.000 A 
ATOM     28 CL   UNL     1      -1.091  11.397  23.045  0.00  0.00    +0.000 Cl
ENDBRANCH  20  21
ENDBRANCH   4  20
TORSDOF 5
ENDMDL
MODEL 4
REMARK VINA RESULT:      -7.2      7.669     10.181
REMARK  Name = 
REMARK  6 active torsions:
REMARK  status: ('A' for Active; 'I' for Inactive)
REMARK    1  A    between atoms: C_1  and  N_2
REMARK    2  A    between atoms: C_8  and  C_9
REMARK    3  A    between atoms: C_9  and  C_10
REMARK    4  A    between atoms: C_10  and  N_11
REMARK    5  A    between atoms: N_14  and  C_15
REMARK    6  A    between atoms: C_15  and  C_16
REMARK                            x       y       z     vdW  Elec       q    Type
REMARK                         _______ _______ _______ _____ _____    ______ ____
ROOT
ATOM      1  N   UNL     1       6.150   7.217  17.348  0.00  0.00    +0.000 NA
ATOM      2  C   UNL     1       5.463   6.723  16.135  0.00  0.00    +0.000 C 
ATOM      3  C   UNL     1       5.429   5.189  15.953  0.00  0.00    +0.000 C 
ATOM      4  N   UNL     1       4.918   4.473  17.140  0.00  0.00    +0.000 NA
ATOM      5  C   UNL     1       5.804   4.846  18.265  0.00  0.00    +0.000 C 
ATOM      6  C   UNL     1       5.899   6.367  18.529  0.00  0.00    +0.000 C 
ENDROOT
BRANCH   1   7
ATOM      7  C   UNL     1       7.578   7.464  17.123  0.00  0.00    +0.000 C 
BRANCH   7   8
ATOM      8  C   UNL     1       8.244   7.884  18.442  0.00  0.00    +0.000 C 
BRANCH   8  16
ATOM      9  C   UNL     1       9.396  14.397  17.765  0.00  0.00    +0.000 C 
ATOM     10  N   UNL     1       9.743  13.341  18.680  0.00  0.00    +0.000 N 
ATOM     11  C   UNL     1      10.613  13.533  19.741  0.00  0.00    +0.000 A 
ATOM     12  O   UNL     1      11.177  14.571  20.057  0.00  0.00    +0.000 OA
ATOM     13  S   UNL     1      10.819  12.013  20.632  0.00  0.00    +0.000 S 
ATOM     14  C   UNL     1       9.731  11.169  19.524  0.00  0.00    +0.000 A 
ATOM     15  C   UNL     1       9.381   9.832  19.542  0.00  0.00    +0.000 A 
ATOM     16  C   UNL     1       8.538   9.353  18.525  0.00  0.00    +0.000 A 
ATOM     17  C   UNL     1       8.023  10.229  17.556  0.00  0.00    +0.000 A 
ATOM     18  C   UNL     1       8.380  11.578  17.558  0.00  0.00    +0.000 A 
ATOM     19  C   UNL     1       9.246  12.033  18.543  0.00  0.00    +0.000 A 
ENDBRANCH   8  16
ENDBRANCH   7   8
ENDBRANCH   1   7
BRANCH   4  20
ATOM     20  C   UNL     1       3.507   4.875  17.363  0.00  0.00    +0.000 C 
BRANCH  20  21
ATOM     21  C   UNL     1       2.821   4.271  18.567  0.00  0.00    +0.000 A 
ATOM     22  C   UNL     1       2.447   5.093  19.642  0.00  0.00    +0.000 A 
ATOM     23  C   UNL     1       1.904   4.546  20.802  0.00  0.00    +0.000 A 
ATOM     24  C   UNL     1       1.754   3.166  20.905  0.00  0.00    +0.000 A 
ATOM     25 CL   UNL     1       1.132   2.485  22.357  0.00  0.00    +0.000 Cl
ATOM     26  C   UNL     1       2.108   2.329  19.852  0.00  0.00    +0.000 A 
ATOM     27  C   UNL     1       2.643   2.878  18.688  0.00  0.00    +0.000 A 
ATOM     28 CL   UNL     1       3.084   1.771  17.434  0.00  0.00    +0.000 Cl
ENDBRANCH  20  21
ENDBRANCH   4  20
TORSDOF 5
ENDMDL
MODEL 5
REMARK VINA RESULT:      -7.1      7.698     10.294
REMARK  Name = 
REMARK  6 active torsions:
REMARK  status: ('A' for Active; 'I' for Inactive)
REMARK    1  A    between atoms: C_1  and  N_2
REMARK    2  A    between atoms: C_8  and  C_9
REMARK    3  A    between atoms: C_9  and  C_10
REMARK    4  A    between atoms: C_10  and  N_11
REMARK    5  A    between atoms: N_14  and  C_15
REMARK    6  A    between atoms: C_15  and  C_16
REMARK                            x       y       z     vdW  Elec       q    Type
REMARK                         _______ _______ _______ _____ _____    ______ ____
ROOT
ATOM      1  N   UNL     1       6.409   7.141  17.144  0.00  0.00    +0.000 NA
ATOM      2  C   UNL     1       5.975   6.568  15.852  0.00  0.00    +0.000 C 
ATOM      3  C   UNL     1       6.247   5.060  15.655  0.00  0.00    +0.000 C 
ATOM      4  N   UNL     1       5.739   4.226  16.764  0.00  0.00    +0.000 NA
ATOM      5  C   UNL     1       6.400   4.720  17.992  0.00  0.00    +0.000 C 
ATOM      6  C   UNL     1       6.180   6.223  18.279  0.00  0.00    +0.000 C 
ENDROOT
BRANCH   1   7
ATOM      7  C   UNL     1       7.783   7.651  17.099  0.00  0.00    +0.000 C 
BRANCH   7   8
ATOM      8  C   UNL     1       8.227   8.067  18.511  0.00  0.00    +0.000 C 
BRANCH   8  16
ATOM      9  C   UNL     1      10.420  14.181  19.931  0.00  0.00    +0.000 C 
ATOM     10  N   UNL     1       9.506  13.562  19.005  0.00  0.00    +0.000 N 
ATOM     11  C   UNL     1       8.717  14.298  18.136  0.00  0.00    +0.000 A 
ATOM     12  O   UNL     1       8.687  15.515  18.015  0.00  0.00    +0.000 OA
ATOM     13  S   UNL     1       7.707  13.206  17.171  0.00  0.00    +0.000 S 
ATOM     14  C   UNL     1       8.379  11.793  17.992  0.00  0.00    +0.000 A 
ATOM     15  C   UNL     1       8.042  10.466  17.800  0.00  0.00    +0.000 A 
ATOM     16  C   UNL     1       8.664   9.499  18.606  0.00  0.00    +0.000 A 
ATOM     17  C   UNL     1       9.645   9.874  19.539  0.00  0.00    +0.000 A 
ATOM     18  C   UNL     1       9.980  11.217  19.714  0.00  0.00    +0.000 A 
ATOM     19  C   UNL     1       9.329  12.169  18.941  0.00  0.00    +0.000 A 
ENDBRANCH   8  16
ENDBRANCH   7   8
ENDBRANCH   1   7
BRANCH   4  20
ATOM     20  C   UNL     1       4.262   4.357  16.814  0.00  0.00    +0.000 C 
BRANCH  20  21
ATOM     21  C   UNL     1       3.599   3.961  18.114  0.00  0.00    +0.000 A 
ATOM     22  C   UNL     1       3.733   2.649  18.594  0.00  0.00    +0.000 A 
ATOM     23  C   UNL     1       3.052   2.235  19.735  0.00  0.00    +0.000 A 
ATOM     24  C   UNL     1       2.209   3.127  20.393  0.00  0.00    +0.000 A 
ATOM     25 CL   UNL     1       1.327   2.601  21.773  0.00  0.00    +0.000 Cl
ATOM     26  C   UNL     1       2.066   4.435  19.945  0.00  0.00    +0.000 A 
ATOM     27  C   UNL     1       2.754   4.852  18.808  0.00  0.00    +0.000 A 
ATOM     28 CL   UNL     1       2.503   6.485  18.297  0.00  0.00    +0.000 Cl
ENDBRANCH  20  21
ENDBRANCH   4  20
TORSDOF 5
ENDMDL
MODEL 6
REMARK VINA RESULT:      -7.0      1.600      1.816
REMARK  Name = 
REMARK  6 active torsions:
REMARK  status: ('A' for Active; 'I' for Inactive)
REMARK    1  A    between atoms: C_1  and  N_2
REMARK    2  A    between atoms: C_8  and  C_9
REMARK    3  A    between atoms: C_9  and  C_10
REMARK    4  A    between atoms: C_10  and  N_11
REMARK    5  A    between atoms: N_14  and  C_15
REMARK    6  A    between atoms: C_15  and  C_16
REMARK                            x       y       z     vdW  Elec       q    Type
REMARK                         _______ _______ _______ _____ _____    ______ ____
ROOT
ATOM      1  N   UNL     1       1.562  10.821  19.153  0.00  0.00    +0.000 NA
ATOM      2  C   UNL     1       1.639  12.295  19.067  0.00  0.00    +0.000 C 
ATOM      3  C   UNL     1       0.386  13.007  18.511  0.00  0.00    +0.000 C 
ATOM      4  N   UNL     1      -0.862  12.614  19.198  0.00  0.00    +0.000 NA
ATOM      5  C   UNL     1      -0.980  11.147  19.039  0.00  0.00    +0.000 C 
ATOM      6  C   UNL     1       0.229  10.344  19.573  0.00  0.00    +0.000 C 
ENDROOT
BRANCH   1   7
ATOM      7  C   UNL     1       2.038  10.162  17.932  0.00  0.00    +0.000 C 
BRANCH   7   8
ATOM      8  C   UNL     1       1.356   8.793  17.784  0.00  0.00    +0.000 C 
BRANCH   8  16
ATOM      9  C   UNL     1       4.956   3.425  19.340  0.00  0.00    +0.000 C 
ATOM     10  N   UNL     1       5.132   4.653  18.609  0.00  0.00    +0.000 N 
ATOM     11  C   UNL     1       6.350   5.026  18.065  0.00  0.00    +0.000 A 
ATOM     12  O   UNL     1       7.401   4.402  18.106  0.00  0.00    +0.000 OA
ATOM     13  S   UNL     1       6.192   6.600  17.261  0.00  0.00    +0.000 S 
ATOM     14  C   UNL     1       4.484   6.701  17.705  0.00  0.00    +0.000 A 
ATOM     15  C   UNL     1       3.605   7.734  17.443  0.00  0.00    +0.000 A 
ATOM     16  C   UNL     1       2.295   7.633  17.940  0.00  0.00    +0.000 A 
ATOM     17  C   UNL     1       1.883   6.483  18.632  0.00  0.00    +0.000 A 
ATOM     18  C   UNL     1       2.781   5.445  18.880  0.00  0.00    +0.000 A 
ATOM     19  C   UNL     1       4.085   5.573  18.420  0.00  0.00    +0.000 A 
ENDBRANCH   8  16
ENDBRANCH   7   8
ENDBRANCH   1   7
BRANCH   4  20
ATOM     20  C   UNL     1      -0.769  13.031  20.619  0.00  0.00    +0.000 C 
BRANCH  20  21
ATOM     21  C   UNL     1      -2.050  12.965  21.420  0.00  0.00    +0.000 A 
ATOM     22  C   UNL     1      -3.122  13.808  21.091  0.00  0.00    +0.000 A 
ATOM     23  C   UNL     1      -4.273  13.836  21.874  0.00  0.00    +0.000 A 
ATOM     24  C   UNL     1      -4.350  13.036  23.011  0.00  0.00    +0.000 A 
ATOM     25 CL   UNL     1      -5.750  13.108  24.008  0.00  0.00    +0.000 Cl
ATOM     26  C   UNL     1      -3.306  12.185  23.355  0.00  0.00    +0.000 A 
ATOM     27  C   UNL     1      -2.157  12.151  22.566  0.00  0.00    +0.000 A 
ATOM     28 CL   UNL     1      -0.891  11.088  23.075  0.00  0.00    +0.000 Cl
ENDBRANCH  20  21
ENDBRANCH   4  20
TORSDOF 5
ENDMDL
MODEL 7
REMARK VINA RESULT:      -7.0      1.141      1.424
REMARK  Name = 
REMARK  6 active torsions:
REMARK  status: ('A' for Active; 'I' for Inactive)
REMARK    1  A    between atoms: C_1  and  N_2
REMARK    2  A    between atoms: C_8  and  C_9
REMARK    3  A    between atoms: C_9  and  C_10
REMARK    4  A    between atoms: C_10  and  N_11
REMARK    5  A    between atoms: N_14  and  C_15
REMARK    6  A    between atoms: C_15  and  C_16
REMARK                            x       y       z     vdW  Elec       q    Type
REMARK                         _______ _______ _______ _____ _____    ______ ____
ROOT
ATOM      1  N   UNL     1       0.949  10.169  19.265  0.00  0.00    +0.000 NA
ATOM      2  C   UNL     1       1.343  11.589  19.137  0.00  0.00    +0.000 C 
ATOM      3  C   UNL     1       0.243  12.554  18.641  0.00  0.00    +0.000 C 
ATOM      4  N   UNL     1      -1.012  12.455  19.413  0.00  0.00    +0.000 NA
ATOM      5  C   UNL     1      -1.461  11.049  19.299  0.00  0.00    +0.000 C 
ATOM      6  C   UNL     1      -0.426  10.005  19.778  0.00  0.00    +0.000 C 
ENDROOT
BRANCH   1   7
ATOM      7  C   UNL     1       1.187   9.407  18.035  0.00  0.00    +0.000 C 
BRANCH   7   8
ATOM      8  C   UNL     1       2.578   8.758  18.090  0.00  0.00    +0.000 C 
BRANCH   8  16
ATOM      9  C   UNL     1       2.573   2.806  21.053  0.00  0.00    +0.000 C 
ATOM     10  N   UNL     1       2.899   3.356  19.763  0.00  0.00    +0.000 N 
ATOM     11  C   UNL     1       3.449   2.591  18.747  0.00  0.00    +0.000 A 
ATOM     12  O   UNL     1       3.715   1.398  18.779  0.00  0.00    +0.000 OA
ATOM     13  S   UNL     1       3.737   3.606  17.320  0.00  0.00    +0.000 S 
ATOM     14  C   UNL     1       3.115   5.032  18.159  0.00  0.00    +0.000 A 
ATOM     15  C   UNL     1       3.036   6.325  17.677  0.00  0.00    +0.000 A 
ATOM     16  C   UNL     1       2.556   7.326  18.538  0.00  0.00    +0.000 A 
ATOM     17  C   UNL     1       2.116   7.001  19.832  0.00  0.00    +0.000 A 
ATOM     18  C   UNL     1       2.195   5.689  20.299  0.00  0.00    +0.000 A 
ATOM     19  C   UNL     1       2.708   4.715  19.454  0.00  0.00    +0.000 A 
ENDBRANCH   8  16
ENDBRANCH   7   8
ENDBRANCH   1   7
BRANCH   4  20
ATOM     20  C   UNL     1      -0.737  12.857  20.815  0.00  0.00    +0.000 C 
BRANCH  20  21
ATOM     21  C   UNL     1      -1.932  13.287  21.634  0.00  0.00    +0.000 A 
ATOM     22  C   UNL     1      -2.543  12.373  22.508  0.00  0.00    +0.000 A 
ATOM     23  C   UNL     1      -3.703  12.714  23.199  0.00  0.00    +0.000 A 
ATOM     24  C   UNL     1      -4.277  13.968  23.001  0.00  0.00    +0.000 A 
ATOM     25 CL   UNL     1      -5.738  14.371  23.814  0.00  0.00    +0.000 Cl
ATOM     26  C   UNL     1      -3.687  14.895  22.148  0.00  0.00    +0.000 A 
ATOM     27  C   UNL     1      -2.522  14.556  21.464  0.00  0.00    +0.000 A 
ATOM     28 CL   UNL     1      -1.865  15.752  20.401  0.00  0.00    +0.000 Cl
ENDBRANCH  20  21
ENDBRANCH   4  20
TORSDOF 5
ENDMDL
MODEL 8
REMARK VINA RESULT:      -7.0      1.993      2.736
REMARK  Name = 
REMARK  6 active torsions:
REMARK  status: ('A' for Active; 'I' for Inactive)
REMARK    1  A    between atoms: C_1  and  N_2
REMARK    2  A    between atoms: C_8  and  C_9
REMARK    3  A    between atoms: C_9  and  C_10
REMARK    4  A    between atoms: C_10  and  N_11
REMARK    5  A    between atoms: N_14  and  C_15
REMARK    6  A    between atoms: C_15  and  C_16
REMARK                            x       y       z     vdW  Elec       q    Type
REMARK                         _______ _______ _______ _____ _____    ______ ____
ROOT
ATOM      1  N   UNL     1       0.214  10.420  19.318  0.00  0.00    +0.000 NA
ATOM      2  C   UNL     1       0.052   9.708  20.604  0.00  0.00    +0.000 C 
ATOM      3  C   UNL     1       0.533  10.465  21.862  0.00  0.00    +0.000 C 
ATOM      4  N   UNL     1      -0.030  11.827  21.974  0.00  0.00    +0.000 NA
ATOM      5  C   UNL     1       0.374  12.546  20.745  0.00  0.00    +0.000 C 
ATOM      6  C   UNL     1      -0.068  11.866  19.429  0.00  0.00    +0.000 C 
ENDROOT
BRANCH   1   7
ATOM      7  C   UNL     1       1.507  10.145  18.683  0.00  0.00    +0.000 C 
BRANCH   7   8
ATOM      8  C   UNL     1       1.378   8.927  17.754  0.00  0.00    +0.000 C 
BRANCH   8  16
ATOM      9  C   UNL     1       6.269   4.425  17.839  0.00  0.00    +0.000 C 
ATOM     10  N   UNL     1       5.031   4.670  18.533  0.00  0.00    +0.000 N 
ATOM     11  C   UNL     1       4.517   3.787  19.468  0.00  0.00    +0.000 A 
ATOM     12  O   UNL     1       5.010   2.731  19.839  0.00  0.00    +0.000 OA
ATOM     13  S   UNL     1       2.976   4.406  20.094  0.00  0.00    +0.000 S 
ATOM     14  C   UNL     1       3.080   5.831  19.054  0.00  0.00    +0.000 A 
ATOM     15  C   UNL     1       2.160   6.856  18.935  0.00  0.00    +0.000 A 
ATOM     16  C   UNL     1       2.416   7.871  17.999  0.00  0.00    +0.000 A 
ATOM     17  C   UNL     1       3.605   7.868  17.252  0.00  0.00    +0.000 A 
ATOM     18  C   UNL     1       4.526   6.830  17.391  0.00  0.00    +0.000 A 
ATOM     19  C   UNL     1       4.245   5.810  18.289  0.00  0.00    +0.000 A 
ENDBRANCH   8  16
ENDBRANCH   7   8
ENDBRANCH   1   7
BRANCH   4  20
ATOM     20  C   UNL     1      -1.503  11.719  22.117  0.00  0.00    +0.000 C 
BRANCH  20  21
ATOM     21  C   UNL     1      -2.210  12.927  22.686  0.00  0.00    +0.000 A 
ATOM     22  C   UNL     1      -1.678  13.584  23.807  0.00  0.00    +0.000 A 
ATOM     23  C   UNL     1      -2.362  14.637  24.407  0.00  0.00    +0.000 A 
ATOM     24  C   UNL     1      -3.602  15.026  23.905  0.00  0.00    +0.000 A 
ATOM     25 CL   UNL     1      -4.472  16.293  24.678  0.00  0.00    +0.000 Cl
ATOM     26  C   UNL     1      -4.147  14.400  22.790  0.00  0.00    +0.000 A 
ATOM     27  C   UNL     1      -3.458  13.351  22.184  0.00  0.00    +0.000 A 
ATOM     28 CL   UNL     1      -4.214  12.604  20.819  0.00  0.00    +0.000 Cl
ENDBRANCH  20  21
ENDBRANCH   4  20
TORSDOF 5
ENDMDL
MODEL 9
REMARK VINA RESULT:      -6.9      1.520      2.130
REMARK  Name = 
REMARK  6 active torsions:
REMARK  status: ('A' for Active; 'I' for Inactive)
REMARK    1  A    between atoms: C_1  and  N_2
REMARK    2  A    between atoms: C_8  and  C_9
REMARK    3  A    between atoms: C_9  and  C_10
REMARK    4  A    between atoms: C_10  and  N_11
REMARK    5  A    between atoms: N_14  and  C_15
REMARK    6  A    between atoms: C_15  and  C_16
REMARK                            x       y       z     vdW  Elec       q    Type
REMARK                         _______ _______ _______ _____ _____    ______ ____
ROOT
ATOM      1  N   UNL     1       0.670  10.392  19.338  0.00  0.00    +0.000 NA
ATOM      2  C   UNL     1       1.283  11.732  19.216  0.00  0.00    +0.000 C 
ATOM      3  C   UNL     1       0.355  12.856  18.703  0.00  0.00    +0.000 C 
ATOM      4  N   UNL     1      -0.912  12.956  19.456  0.00  0.00    +0.000 NA
ATOM      5  C   UNL     1      -1.573  11.637  19.334  0.00  0.00    +0.000 C 
ATOM      6  C   UNL     1      -0.721  10.445  19.829  0.00  0.00    +0.000 C 
ENDROOT
BRANCH   1   7
ATOM      7  C   UNL     1       0.806   9.600  18.111  0.00  0.00    +0.000 C 
BRANCH   7   8
ATOM      8  C   UNL     1       2.293   9.334  17.829  0.00  0.00    +0.000 C 
BRANCH   8  16
ATOM      9  C   UNL     1       4.506   3.099  18.488  0.00  0.00    +0.000 C 
ATOM     10  N   UNL     1       3.603   3.989  19.171  0.00  0.00    +0.000 N 
ATOM     11  C   UNL     1       2.835   3.584  20.250  0.00  0.00    +0.000 A 
ATOM     12  O   UNL     1       2.815   2.478  20.771  0.00  0.00    +0.000 OA
ATOM     13  S   UNL     1       1.832   4.935  20.814  0.00  0.00    +0.000 S 
ATOM     14  C   UNL     1       2.480   5.994  19.557  0.00  0.00    +0.000 A 
ATOM     15  C   UNL     1       2.137   7.308  19.302  0.00  0.00    +0.000 A 
ATOM     16  C   UNL     1       2.739   7.952  18.209  0.00  0.00    +0.000 A 
ATOM     17  C   UNL     1       3.706   7.289  17.436  0.00  0.00    +0.000 A 
ATOM     18  C   UNL     1       4.048   5.965  17.713  0.00  0.00    +0.000 A 
ATOM     19  C   UNL     1       3.417   5.325  18.771  0.00  0.00    +0.000 A 
ENDBRANCH   8  16
ENDBRANCH   7   8
ENDBRANCH   1   7
BRANCH   4  20
ATOM     20  C   UNL     1      -0.600  13.313  20.861  0.00  0.00    +0.000 C 
BRANCH  20  21
ATOM     21  C   UNL     1      -1.731  13.174  21.855  0.00  0.00    +0.000 A 
ATOM     22  C   UNL     1      -1.750  12.085  22.740  0.00  0.00    +0.000 A 
ATOM     23  C   UNL     1      -2.830  11.882  23.596  0.00  0.00    +0.000 A 
ATOM     24  C   UNL     1      -3.913  12.756  23.554  0.00  0.00    +0.000 A 
ATOM     25 CL   UNL     1      -5.270  12.476  24.573  0.00  0.00    +0.000 Cl
ATOM     26  C   UNL     1      -3.915  13.848  22.693  0.00  0.00    +0.000 A 
ATOM     27  C   UNL     1      -2.831  14.056  21.843  0.00  0.00    +0.000 A 
ATOM     28 CL   UNL     1      -2.920  15.419  20.783  0.00  0.00    +0.000 Cl
ENDBRANCH  20  21
ENDBRANCH   4  20
TORSDOF 5
ENDMDL
