MODEL 1
REMARK VINA RESULT:      -7.7      0.000      0.000
REMARK  Name = 
REMARK  5 active torsions:
REMARK  status: ('A' for Active; 'I' for Inactive)
REMARK    1  A    between atoms: C_1  and  C_2
REMARK    2  A    between atoms: C_5  and  C_6
REMARK    3  A    between atoms: N_10  and  N_11
REMARK    4  A    between atoms: C_12  and  C_13
REMARK    5  A    between atoms: C_16  and  N_17
REMARK                            x       y       z     vdW  Elec       q    Type
REMARK                         _______ _______ _______ _____ _____    ______ ____
ROOT
ATOM      1  C   UNL     1       2.803   7.025  18.566  0.00  0.00    +0.000 A 
ATOM      2  C   UNL     1       2.418   6.635  19.832  0.00  0.00    +0.000 A 
ATOM      3  S   UNL     1       1.455   7.844  20.551  0.00  0.00    +0.000 S 
ATOM      4  C   UNL     1       1.626   8.825  19.134  0.00  0.00    +0.000 A 
ATOM      5  N   UNL     1       1.035  10.049  19.028  0.00  0.00    +0.000 N 
ATOM      6  N   UNL     1       2.363   8.288  18.184  0.00  0.00    +0.000 NA
ATOM      7  H   UNL     1       1.174  10.538  18.147  0.00  0.00    +0.000 HD
ENDROOT
BRANCH   1  12
ATOM      8  C   UNL     1       6.059   3.836  15.014  0.00  0.00    +0.000 C 
ATOM      9  C   UNL     1       5.218   4.648  15.953  0.00  0.00    +0.000 A 
ATOM     10  C   UNL     1       4.263   4.040  16.771  0.00  0.00    +0.000 A 
ATOM     11  C   UNL     1       3.472   4.810  17.629  0.00  0.00    +0.000 A 
ATOM     12  C   UNL     1       3.624   6.203  17.686  0.00  0.00    +0.000 A 
ATOM     13  C   UNL     1       4.582   6.808  16.864  0.00  0.00    +0.000 A 
ATOM     14  C   UNL     1       5.375   6.038  16.009  0.00  0.00    +0.000 A 
ENDBRANCH   1  12
BRANCH   5  15
ATOM     15  N   UNL     1       0.253  10.562  20.008  0.00  0.00    +0.000 NA
ATOM     16  C   UNL     1      -0.757  11.293  19.671  0.00  0.00    +0.000 C 
BRANCH  16  17
ATOM     17  C   UNL     1      -1.625  11.853  20.728  0.00  0.00    +0.000 A 
ATOM     18  C   UNL     1      -2.760  12.588  20.376  0.00  0.00    +0.000 A 
ATOM     19  C   UNL     1      -3.591  13.124  21.364  0.00  0.00    +0.000 A 
ATOM     20  C   UNL     1      -3.310  12.952  22.724  0.00  0.00    +0.000 A 
ATOM     21  C   UNL     1      -2.160  12.205  23.050  0.00  0.00    +0.000 A 
ATOM     22  C   UNL     1      -1.322  11.654  22.070  0.00  0.00    +0.000 A 
BRANCH  20  23
ATOM     23  N   UNL     1      -4.128  13.443  23.727  0.00  0.00    +0.000 N 
ATOM     24  C   UNL     1      -5.128  12.600  24.406  0.00  0.00    +0.000 C 
ATOM     25  C   UNL     1      -6.553  12.944  23.952  0.00  0.00    +0.000 C 
ATOM     26  O   UNL     1      -6.829  14.346  24.105  0.00  0.00    +0.000 OA
ATOM     27  C   UNL     1      -5.910  15.117  23.315  0.00  0.00    +0.000 C 
ATOM     28  C   UNL     1      -4.451  14.882  23.743  0.00  0.00    +0.000 C 
ENDBRANCH  20  23
ENDBRANCH  16  17
ENDBRANCH   5  15
TORSDOF 4
ENDMDL
MODEL 2
REMARK VINA RESULT:      -7.7      4.053     11.817
REMARK  Name = 
REMARK  5 active torsions:
REMARK  status: ('A' for Active; 'I' for Inactive)
REMARK    1  A    between atoms: C_1  and  C_2
REMARK    2  A    between atoms: C_5  and  C_6
REMARK    3  A    between atoms: N_10  and  N_11
REMARK    4  A    between atoms: C_12  and  C_13
REMARK    5  A    between atoms: C_16  and  N_17
REMARK                            x       y       z     vdW  Elec       q    Type
REMARK                         _______ _______ _______ _____ _____    ______ ____
ROOT
ATOM      1  C   UNL     1      -1.859  11.975  22.267  0.00  0.00    +0.000 A 
ATOM      2  C   UNL     1      -1.340  11.054  23.154  0.00  0.00    +0.000 A 
ATOM      3  S   UNL     1      -0.234  10.031  22.358  0.00  0.00    +0.000 S 
ATOM      4  C   UNL     1      -0.528  10.867  20.871  0.00  0.00    +0.000 A 
ATOM      5  N   UNL     1       0.108  10.528  19.714  0.00  0.00    +0.000 N 
ATOM      6  N   UNL     1      -1.404  11.846  20.959  0.00  0.00    +0.000 NA
ATOM      7  H   UNL     1      -0.113  11.094  18.899  0.00  0.00    +0.000 HD
ENDROOT
BRANCH   1  12
ATOM      8  C   UNL     1      -5.674  16.016  23.852  0.00  0.00    +0.000 C 
ATOM      9  C   UNL     1      -4.683  14.976  23.419  0.00  0.00    +0.000 A 
ATOM     10  C   UNL     1      -4.841  14.293  22.211  0.00  0.00    +0.000 A 
ATOM     11  C   UNL     1      -3.921  13.312  21.827  0.00  0.00    +0.000 A 
ATOM     12  C   UNL     1      -2.824  13.000  22.643  0.00  0.00    +0.000 A 
ATOM     13  C   UNL     1      -2.671  13.687  23.853  0.00  0.00    +0.000 A 
ATOM     14  C   UNL     1      -3.589  14.670  24.236  0.00  0.00    +0.000 A 
ENDBRANCH   1  12
BRANCH   5  15
ATOM     15  N   UNL     1       1.032   9.537  19.660  0.00  0.00    +0.000 NA
ATOM     16  C   UNL     1       1.316   9.023  18.510  0.00  0.00    +0.000 C 
BRANCH  16  17
ATOM     17  C   UNL     1       2.328   7.948  18.434  0.00  0.00    +0.000 A 
ATOM     18  C   UNL     1       3.263   7.948  17.395  0.00  0.00    +0.000 A 
ATOM     19  C   UNL     1       4.226   6.938  17.309  0.00  0.00    +0.000 A 
ATOM     20  C   UNL     1       4.277   5.900  18.245  0.00  0.00    +0.000 A 
ATOM     21  C   UNL     1       3.322   5.924  19.282  0.00  0.00    +0.000 A 
ATOM     22  C   UNL     1       2.357   6.936  19.386  0.00  0.00    +0.000 A 
BRANCH  20  23
ATOM     23  N   UNL     1       5.236   4.902  18.206  0.00  0.00    +0.000 N 
ATOM     24  C   UNL     1       6.462   4.960  19.021  0.00  0.00    +0.000 C 
ATOM     25  C   UNL     1       7.690   5.294  18.162  0.00  0.00    +0.000 C 
ATOM     26  O   UNL     1       7.817   4.388  17.054  0.00  0.00    +0.000 OA
ATOM     27  C   UNL     1       6.652   4.469  16.217  0.00  0.00    +0.000 C 
ATOM     28  C   UNL     1       5.371   4.090  16.982  0.00  0.00    +0.000 C 
ENDBRANCH  20  23
ENDBRANCH  16  17
ENDBRANCH   5  15
TORSDOF 4
ENDMDL
MODEL 3
REMARK VINA RESULT:      -7.6      0.444      1.397
REMARK  Name = 
REMARK  5 active torsions:
REMARK  status: ('A' for Active; 'I' for Inactive)
REMARK    1  A    between atoms: C_1  and  C_2
REMARK    2  A    between atoms: C_5  and  C_6
REMARK    3  A    between atoms: N_10  and  N_11
REMARK    4  A    between atoms: C_12  and  C_13
REMARK    5  A    between atoms: C_16  and  N_17
REMARK                            x       y       z     vdW  Elec       q    Type
REMARK                         _______ _______ _______ _____ _____    ______ ____
ROOT
ATOM      1  C   UNL     1       2.815   7.111  18.539  0.00  0.00    +0.000 A 
ATOM      2  C   UNL     1       2.432   6.716  19.804  0.00  0.00    +0.000 A 
ATOM      3  S   UNL     1       1.471   7.922  20.529  0.00  0.00    +0.000 S 
ATOM      4  C   UNL     1       1.640   8.909  19.116  0.00  0.00    +0.000 A 
ATOM      5  N   UNL     1       1.051  10.134  19.016  0.00  0.00    +0.000 N 
ATOM      6  N   UNL     1       2.376   8.375  18.163  0.00  0.00    +0.000 NA
ATOM      7  H   UNL     1       1.189  10.626  18.138  0.00  0.00    +0.000 HD
ENDROOT
BRANCH   1  12
ATOM      8  C   UNL     1       6.058   3.792  15.095  0.00  0.00    +0.000 C 
ATOM      9  C   UNL     1       5.214   4.668  15.971  0.00  0.00    +0.000 A 
ATOM     10  C   UNL     1       5.413   6.051  16.011  0.00  0.00    +0.000 A 
ATOM     11  C   UNL     1       4.633   6.855  16.846  0.00  0.00    +0.000 A 
ATOM     12  C   UNL     1       3.635   6.292  17.654  0.00  0.00    +0.000 A 
ATOM     13  C   UNL     1       3.439   4.907  17.612  0.00  0.00    +0.000 A 
ATOM     14  C   UNL     1       4.217   4.102  16.775  0.00  0.00    +0.000 A 
ENDBRANCH   1  12
BRANCH   5  15
ATOM     15  N   UNL     1       0.270  10.643  20.000  0.00  0.00    +0.000 NA
ATOM     16  C   UNL     1      -0.812  11.265  19.668  0.00  0.00    +0.000 C 
BRANCH  16  17
ATOM     17  C   UNL     1      -1.679  11.818  20.729  0.00  0.00    +0.000 A 
ATOM     18  C   UNL     1      -1.403  11.532  22.069  0.00  0.00    +0.000 A 
ATOM     19  C   UNL     1      -2.213  12.048  23.085  0.00  0.00    +0.000 A 
ATOM     20  C   UNL     1      -3.321  12.851  22.794  0.00  0.00    +0.000 A 
ATOM     21  C   UNL     1      -3.576  13.124  21.435  0.00  0.00    +0.000 A 
ATOM     22  C   UNL     1      -2.766  12.621  20.407  0.00  0.00    +0.000 A 
BRANCH  20  23
ATOM     23  N   UNL     1      -4.125  13.402  23.777  0.00  0.00    +0.000 N 
ATOM     24  C   UNL     1      -5.540  13.023  23.939  0.00  0.00    +0.000 C 
ATOM     25  C   UNL     1      -6.478  14.132  23.443  0.00  0.00    +0.000 C 
ATOM     26  O   UNL     1      -6.179  15.391  24.068  0.00  0.00    +0.000 OA
ATOM     27  C   UNL     1      -4.829  15.780  23.767  0.00  0.00    +0.000 C 
ATOM     28  C   UNL     1      -3.808  14.751  24.284  0.00  0.00    +0.000 C 
ENDBRANCH  20  23
ENDBRANCH  16  17
ENDBRANCH   5  15
TORSDOF 4
ENDMDL
MODEL 4
REMARK VINA RESULT:      -7.6      0.888      1.094
REMARK  Name = 
REMARK  5 active torsions:
REMARK  status: ('A' for Active; 'I' for Inactive)
REMARK    1  A    between atoms: C_1  and  C_2
REMARK    2  A    between atoms: C_5  and  C_6
REMARK    3  A    between atoms: N_10  and  N_11
REMARK    4  A    between atoms: C_12  and  C_13
REMARK    5  A    between atoms: C_16  and  N_17
REMARK                            x       y       z     vdW  Elec       q    Type
REMARK                         _______ _______ _______ _____ _____    ______ ____
ROOT
ATOM      1  C   UNL     1       2.854   7.250  18.185  0.00  0.00    +0.000 A 
ATOM      2  C   UNL     1       2.459   7.012  19.486  0.00  0.00    +0.000 A 
ATOM      3  S   UNL     1       1.446   8.270  20.030  0.00  0.00    +0.000 S 
ATOM      4  C   UNL     1       1.610   9.066  18.501  0.00  0.00    +0.000 A 
ATOM      5  N   UNL     1       0.983  10.246  18.231  0.00  0.00    +0.000 N 
ATOM      6  N   UNL     1       2.381   8.437  17.639  0.00  0.00    +0.000 NA
ATOM      7  H   UNL     1       1.122  10.622  17.297  0.00  0.00    +0.000 HD
ENDROOT
BRANCH   1  12
ATOM      8  C   UNL     1       6.276   3.746  15.119  0.00  0.00    +0.000 C 
ATOM      9  C   UNL     1       5.391   4.641  15.933  0.00  0.00    +0.000 A 
ATOM     10  C   UNL     1       4.402   4.111  16.765  0.00  0.00    +0.000 A 
ATOM     11  C   UNL     1       3.570   4.956  17.504  0.00  0.00    +0.000 A 
ATOM     12  C   UNL     1       3.716   6.349  17.430  0.00  0.00    +0.000 A 
ATOM     13  C   UNL     1       4.708   6.876  16.595  0.00  0.00    +0.000 A 
ATOM     14  C   UNL     1       5.542   6.031  15.857  0.00  0.00    +0.000 A 
ENDBRANCH   1  12
BRANCH   5  15
ATOM     15  N   UNL     1       0.168  10.853  19.127  0.00  0.00    +0.000 NA
ATOM     16  C   UNL     1      -1.002  11.235  18.734  0.00  0.00    +0.000 C 
BRANCH  16  17
ATOM     17  C   UNL     1      -1.907  11.891  19.702  0.00  0.00    +0.000 A 
ATOM     18  C   UNL     1      -3.239  12.130  19.353  0.00  0.00    +0.000 A 
ATOM     19  C   UNL     1      -4.107  12.750  20.257  0.00  0.00    +0.000 A 
ATOM     20  C   UNL     1      -3.671  13.156  21.523  0.00  0.00    +0.000 A 
ATOM     21  C   UNL     1      -2.324  12.901  21.848  0.00  0.00    +0.000 A 
ATOM     22  C   UNL     1      -1.444  12.272  20.955  0.00  0.00    +0.000 A 
BRANCH  20  23
ATOM     23  N   UNL     1      -4.512  13.744  22.452  0.00  0.00    +0.000 N 
ATOM     24  C   UNL     1      -4.325  13.567  23.903  0.00  0.00    +0.000 C 
ATOM     25  C   UNL     1      -5.379  12.620  24.493  0.00  0.00    +0.000 C 
ATOM     26  O   UNL     1      -6.711  13.049  24.165  0.00  0.00    +0.000 OA
ATOM     27  C   UNL     1      -6.883  13.075  22.739  0.00  0.00    +0.000 C 
ATOM     28  C   UNL     1      -5.902  14.050  22.063  0.00  0.00    +0.000 C 
ENDBRANCH  20  23
ENDBRANCH  16  17
ENDBRANCH   5  15
TORSDOF 4
ENDMDL
MODEL 5
REMARK VINA RESULT:      -7.5      0.511      1.026
REMARK  Name = 
REMARK  5 active torsions:
REMARK  status: ('A' for Active; 'I' for Inactive)
REMARK    1  A    between atoms: C_1  and  C_2
REMARK    2  A    between atoms: C_5  and  C_6
REMARK    3  A    between atoms: N_10  and  N_11
REMARK    4  A    between atoms: C_12  and  C_13
REMARK    5  A    between atoms: C_16  and  N_17
REMARK                            x       y       z     vdW  Elec       q    Type
REMARK                         _______ _______ _______ _____ _____    ______ ____
ROOT
ATOM      1  C   UNL     1       2.987   6.826  18.330  0.00  0.00    +0.000 A 
ATOM      2  C   UNL     1       2.664   6.449  19.617  0.00  0.00    +0.000 A 
ATOM      3  S   UNL     1       1.614   7.594  20.317  0.00  0.00    +0.000 S 
ATOM      4  C   UNL     1       1.669   8.536  18.865  0.00  0.00    +0.000 A 
ATOM      5  N   UNL     1       0.971   9.699  18.733  0.00  0.00    +0.000 N 
ATOM      6  N   UNL     1       2.431   8.032  17.917  0.00  0.00    +0.000 NA
ATOM      7  H   UNL     1       1.049  10.167  17.834  0.00  0.00    +0.000 HD
ENDROOT
BRANCH   1  12
ATOM      8  C   UNL     1       6.435   3.809  14.808  0.00  0.00    +0.000 C 
ATOM      9  C   UNL     1       5.547   4.578  15.740  0.00  0.00    +0.000 A 
ATOM     10  C   UNL     1       4.685   3.918  16.619  0.00  0.00    +0.000 A 
ATOM     11  C   UNL     1       3.847   4.646  17.469  0.00  0.00    +0.000 A 
ATOM     12  C   UNL     1       3.859   6.048  17.458  0.00  0.00    +0.000 A 
ATOM     13  C   UNL     1       4.724   6.705  16.576  0.00  0.00    +0.000 A 
ATOM     14  C   UNL     1       5.564   5.978  15.727  0.00  0.00    +0.000 A 
ENDBRANCH   1  12
BRANCH   5  15
ATOM     15  N   UNL     1       0.167  10.176  19.714  0.00  0.00    +0.000 NA
ATOM     16  C   UNL     1      -0.201  11.413  19.661  0.00  0.00    +0.000 C 
BRANCH  16  17
ATOM     17  C   UNL     1      -1.085  11.946  20.719  0.00  0.00    +0.000 A 
ATOM     18  C   UNL     1      -1.071  11.367  21.991  0.00  0.00    +0.000 A 
ATOM     19  C   UNL     1      -1.901  11.860  23.002  0.00  0.00    +0.000 A 
ATOM     20  C   UNL     1      -2.772  12.930  22.772  0.00  0.00    +0.000 A 
ATOM     21  C   UNL     1      -2.765  13.495  21.481  0.00  0.00    +0.000 A 
ATOM     22  C   UNL     1      -1.931  13.018  20.460  0.00  0.00    +0.000 A 
BRANCH  20  23
ATOM     23  N   UNL     1      -3.584  13.462  23.760  0.00  0.00    +0.000 N 
ATOM     24  C   UNL     1      -4.506  12.628  24.550  0.00  0.00    +0.000 C 
ATOM     25  C   UNL     1      -5.964  12.845  24.124  0.00  0.00    +0.000 C 
ATOM     26  O   UNL     1      -6.320  14.237  24.164  0.00  0.00    +0.000 OA
ATOM     27  C   UNL     1      -5.478  14.985  23.273  0.00  0.00    +0.000 C 
ATOM     28  C   UNL     1      -3.993  14.876  23.662  0.00  0.00    +0.000 C 
ENDBRANCH  20  23
ENDBRANCH  16  17
ENDBRANCH   5  15
TORSDOF 4
ENDMDL
MODEL 6
REMARK VINA RESULT:      -7.5      0.614      1.178
REMARK  Name = 
REMARK  5 active torsions:
REMARK  status: ('A' for Active; 'I' for Inactive)
REMARK    1  A    between atoms: C_1  and  C_2
REMARK    2  A    between atoms: C_5  and  C_6
REMARK    3  A    between atoms: N_10  and  N_11
REMARK    4  A    between atoms: C_12  and  C_13
REMARK    5  A    between atoms: C_16  and  N_17
REMARK                            x       y       z     vdW  Elec       q    Type
REMARK                         _______ _______ _______ _____ _____    ______ ____
ROOT
ATOM      1  C   UNL     1       2.938   6.926  18.383  0.00  0.00    +0.000 A 
ATOM      2  C   UNL     1       2.569   6.504  19.644  0.00  0.00    +0.000 A 
ATOM      3  S   UNL     1       1.560   7.665  20.379  0.00  0.00    +0.000 S 
ATOM      4  C   UNL     1       1.692   8.671  18.975  0.00  0.00    +0.000 A 
ATOM      5  N   UNL     1       1.055   9.872  18.886  0.00  0.00    +0.000 N 
ATOM      6  N   UNL     1       2.450   8.175  18.018  0.00  0.00    +0.000 NA
ATOM      7  H   UNL     1       1.174  10.378  18.013  0.00  0.00    +0.000 HD
ENDROOT
BRANCH   1  12
ATOM      8  C   UNL     1       6.317   3.772  14.915  0.00  0.00    +0.000 C 
ATOM      9  C   UNL     1       5.435   4.604  15.797  0.00  0.00    +0.000 A 
ATOM     10  C   UNL     1       5.516   5.999  15.783  0.00  0.00    +0.000 A 
ATOM     11  C   UNL     1       4.702   6.764  16.624  0.00  0.00    +0.000 A 
ATOM     12  C   UNL     1       3.789   6.147  17.492  0.00  0.00    +0.000 A 
ATOM     13  C   UNL     1       3.712   4.750  17.503  0.00  0.00    +0.000 A 
ATOM     14  C   UNL     1       4.524   3.985  16.660  0.00  0.00    +0.000 A 
ENDBRANCH   1  12
BRANCH   5  15
ATOM     15  N   UNL     1       0.254  10.341  19.874  0.00  0.00    +0.000 NA
ATOM     16  C   UNL     1      -0.267  11.515  19.738  0.00  0.00    +0.000 C 
BRANCH  16  17
ATOM     17  C   UNL     1      -1.150  12.037  20.802  0.00  0.00    +0.000 A 
ATOM     18  C   UNL     1      -2.388  12.592  20.466  0.00  0.00    +0.000 A 
ATOM     19  C   UNL     1      -3.234  13.091  21.461  0.00  0.00    +0.000 A 
ATOM     20  C   UNL     1      -2.867  13.059  22.811  0.00  0.00    +0.000 A 
ATOM     21  C   UNL     1      -1.614  12.493  23.122  0.00  0.00    +0.000 A 
ATOM     22  C   UNL     1      -0.759  11.981  22.135  0.00  0.00    +0.000 A 
BRANCH  20  23
ATOM     23  N   UNL     1      -3.695  13.516  23.823  0.00  0.00    +0.000 N 
ATOM     24  C   UNL     1      -5.125  13.168  23.884  0.00  0.00    +0.000 C 
ATOM     25  C   UNL     1      -6.009  14.360  23.493  0.00  0.00    +0.000 C 
ATOM     26  O   UNL     1      -5.699  15.523  24.277  0.00  0.00    +0.000 OA
ATOM     27  C   UNL     1      -4.327  15.900  24.076  0.00  0.00    +0.000 C 
ATOM     28  C   UNL     1      -3.359  14.782  24.502  0.00  0.00    +0.000 C 
ENDBRANCH  20  23
ENDBRANCH  16  17
ENDBRANCH   5  15
TORSDOF 4
ENDMDL
MODEL 7
REMARK VINA RESULT:      -7.5      0.783      1.536
REMARK  Name = 
REMARK  5 active torsions:
REMARK  status: ('A' for Active; 'I' for Inactive)
REMARK    1  A    between atoms: C_1  and  C_2
REMARK    2  A    between atoms: C_5  and  C_6
REMARK    3  A    between atoms: N_10  and  N_11
REMARK    4  A    between atoms: C_12  and  C_13
REMARK    5  A    between atoms: C_16  and  N_17
REMARK                            x       y       z     vdW  Elec       q    Type
REMARK                         _______ _______ _______ _____ _____    ______ ____
ROOT
ATOM      1  C   UNL     1       2.824   7.438  18.198  0.00  0.00    +0.000 A 
ATOM      2  C   UNL     1       2.406   7.224  19.495  0.00  0.00    +0.000 A 
ATOM      3  S   UNL     1       1.455   8.533  20.029  0.00  0.00    +0.000 S 
ATOM      4  C   UNL     1       1.674   9.318  18.501  0.00  0.00    +0.000 A 
ATOM      5  N   UNL     1       1.112  10.528  18.224  0.00  0.00    +0.000 N 
ATOM      6  N   UNL     1       2.419   8.648  17.646  0.00  0.00    +0.000 NA
ATOM      7  H   UNL     1       1.279  10.896  17.291  0.00  0.00    +0.000 HD
ENDROOT
BRANCH   1  12
ATOM      8  C   UNL     1       6.074   3.631  15.309  0.00  0.00    +0.000 C 
ATOM      9  C   UNL     1       5.227   4.631  16.039  0.00  0.00    +0.000 A 
ATOM     10  C   UNL     1       5.409   6.003  15.847  0.00  0.00    +0.000 A 
ATOM     11  C   UNL     1       4.626   6.926  16.547  0.00  0.00    +0.000 A 
ATOM     12  C   UNL     1       3.645   6.493  17.451  0.00  0.00    +0.000 A 
ATOM     13  C   UNL     1       3.467   5.118  17.640  0.00  0.00    +0.000 A 
ATOM     14  C   UNL     1       4.247   4.195  16.938  0.00  0.00    +0.000 A 
ENDBRANCH   1  12
BRANCH   5  15
ATOM     15  N   UNL     1       0.322  11.179  19.112  0.00  0.00    +0.000 NA
ATOM     16  C   UNL     1      -0.955  10.992  19.052  0.00  0.00    +0.000 C 
BRANCH  16  17
ATOM     17  C   UNL     1      -1.830  11.687  20.019  0.00  0.00    +0.000 A 
ATOM     18  C   UNL     1      -1.450  11.772  21.362  0.00  0.00    +0.000 A 
ATOM     19  C   UNL     1      -2.266  12.426  22.289  0.00  0.00    +0.000 A 
ATOM     20  C   UNL     1      -3.483  13.002  21.908  0.00  0.00    +0.000 A 
ATOM     21  C   UNL     1      -3.841  12.904  20.548  0.00  0.00    +0.000 A 
ATOM     22  C   UNL     1      -3.027  12.259  19.605  0.00  0.00    +0.000 A 
BRANCH  20  23
ATOM     23  N   UNL     1      -4.300  13.684  22.794  0.00  0.00    +0.000 N 
ATOM     24  C   UNL     1      -4.619  13.156  24.132  0.00  0.00    +0.000 C 
ATOM     25  C   UNL     1      -6.059  12.631  24.199  0.00  0.00    +0.000 C 
ATOM     26  O   UNL     1      -7.001  13.628  23.770  0.00  0.00    +0.000 OA
ATOM     27  C   UNL     1      -6.728  14.010  22.412  0.00  0.00    +0.000 C 
ATOM     28  C   UNL     1      -5.318  14.608  22.259  0.00  0.00    +0.000 C 
ENDBRANCH  20  23
ENDBRANCH  16  17
ENDBRANCH   5  15
TORSDOF 4
ENDMDL
MODEL 8
REMARK VINA RESULT:      -7.4      1.508      1.923
REMARK  Name = 
REMARK  5 active torsions:
REMARK  status: ('A' for Active; 'I' for Inactive)
REMARK    1  A    between atoms: C_1  and  C_2
REMARK    2  A    between atoms: C_5  and  C_6
REMARK    3  A    between atoms: N_10  and  N_11
REMARK    4  A    between atoms: C_12  and  C_13
REMARK    5  A    between atoms: C_16  and  N_17
REMARK                            x       y       z     vdW  Elec       q    Type
REMARK                         _______ _______ _______ _____ _____    ______ ____
ROOT
ATOM      1  C   UNL     1       2.696   7.207  18.719  0.00  0.00    +0.000 A 
ATOM      2  C   UNL     1       2.315   6.879  20.004  0.00  0.00    +0.000 A 
ATOM      3  S   UNL     1       1.348   8.119  20.662  0.00  0.00    +0.000 S 
ATOM      4  C   UNL     1       1.513   9.028  19.198  0.00  0.00    +0.000 A 
ATOM      5  N   UNL     1       0.918  10.243  19.031  0.00  0.00    +0.000 N 
ATOM      6  N   UNL     1       2.252   8.447  18.275  0.00  0.00    +0.000 NA
ATOM      7  H   UNL     1       1.053  10.688  18.128  0.00  0.00    +0.000 HD
ENDROOT
BRANCH   1  12
ATOM      8  C   UNL     1       5.960   3.856  15.326  0.00  0.00    +0.000 C 
ATOM      9  C   UNL     1       5.118   4.711  16.224  0.00  0.00    +0.000 A 
ATOM     10  C   UNL     1       4.167   4.141  17.075  0.00  0.00    +0.000 A 
ATOM     11  C   UNL     1       3.374   4.949  17.894  0.00  0.00    +0.000 A 
ATOM     12  C   UNL     1       3.520   6.345  17.880  0.00  0.00    +0.000 A 
ATOM     13  C   UNL     1       4.472   6.911  17.026  0.00  0.00    +0.000 A 
ATOM     14  C   UNL     1       5.268   6.103  16.209  0.00  0.00    +0.000 A 
ENDBRANCH   1  12
BRANCH   5  15
ATOM     15  N   UNL     1       0.135  10.801  19.986  0.00  0.00    +0.000 NA
ATOM     16  C   UNL     1       0.543  11.883  20.562  0.00  0.00    +0.000 C 
BRANCH  16  17
ATOM     17  C   UNL     1      -0.304  12.509  21.599  0.00  0.00    +0.000 A 
ATOM     18  C   UNL     1      -0.009  13.800  22.048  0.00  0.00    +0.000 A 
ATOM     19  C   UNL     1      -0.800  14.406  23.029  0.00  0.00    +0.000 A 
ATOM     20  C   UNL     1      -1.895  13.742  23.594  0.00  0.00    +0.000 A 
ATOM     21  C   UNL     1      -2.169  12.443  23.122  0.00  0.00    +0.000 A 
ATOM     22  C   UNL     1      -1.390  11.826  22.132  0.00  0.00    +0.000 A 
BRANCH  20  23
ATOM     23  N   UNL     1      -2.716  14.325  24.544  0.00  0.00    +0.000 N 
ATOM     24  C   UNL     1      -4.146  14.578  24.296  0.00  0.00    +0.000 C 
ATOM     25  C   UNL     1      -4.421  16.071  24.068  0.00  0.00    +0.000 C 
ATOM     26  O   UNL     1      -3.907  16.869  25.147  0.00  0.00    +0.000 OA
ATOM     27  C   UNL     1      -2.486  16.688  25.259  0.00  0.00    +0.000 C 
ATOM     28  C   UNL     1      -2.118  15.222  25.550  0.00  0.00    +0.000 C 
ENDBRANCH  20  23
ENDBRANCH  16  17
ENDBRANCH   5  15
TORSDOF 4
ENDMDL
MODEL 9
REMARK VINA RESULT:      -7.3      1.287      1.573
REMARK  Name = 
REMARK  5 active torsions:
REMARK  status: ('A' for Active; 'I' for Inactive)
REMARK    1  A    between atoms: C_1  and  C_2
REMARK    2  A    between atoms: C_5  and  C_6
REMARK    3  A    between atoms: N_10  and  N_11
REMARK    4  A    between atoms: C_12  and  C_13
REMARK    5  A    between atoms: C_16  and  N_17
REMARK                            x       y       z     vdW  Elec       q    Type
REMARK                         _______ _______ _______ _____ _____    ______ ____
ROOT
ATOM      1  C   UNL     1       2.921   7.016  18.395  0.00  0.00    +0.000 A 
ATOM      2  C   UNL     1       2.586   6.693  19.694  0.00  0.00    +0.000 A 
ATOM      3  S   UNL     1       1.606   7.915  20.366  0.00  0.00    +0.000 S 
ATOM      4  C   UNL     1       1.703   8.810  18.887  0.00  0.00    +0.000 A 
ATOM      5  N   UNL     1       1.070  10.006  18.725  0.00  0.00    +0.000 N 
ATOM      6  N   UNL     1       2.430   8.237  17.950  0.00  0.00    +0.000 NA
ATOM      7  H   UNL     1       1.167  10.443  17.812  0.00  0.00    +0.000 HD
ENDROOT
BRANCH   1  12
ATOM      8  C   UNL     1       6.182   3.715  14.949  0.00  0.00    +0.000 C 
ATOM      9  C   UNL     1       5.339   4.557  15.861  0.00  0.00    +0.000 A 
ATOM     10  C   UNL     1       4.362   3.977  16.675  0.00  0.00    +0.000 A 
ATOM     11  C   UNL     1       3.570   4.774  17.506  0.00  0.00    +0.000 A 
ATOM     12  C   UNL     1       3.743   6.165  17.542  0.00  0.00    +0.000 A 
ATOM     13  C   UNL     1       4.722   6.741  16.725  0.00  0.00    +0.000 A 
ATOM     14  C   UNL     1       5.517   5.944  15.895  0.00  0.00    +0.000 A 
ENDBRANCH   1  12
BRANCH   5  15
ATOM     15  N   UNL     1       0.300  10.555  19.695  0.00  0.00    +0.000 NA
ATOM     16  C   UNL     1       0.613  11.727  20.140  0.00  0.00    +0.000 C 
BRANCH  16  17
ATOM     17  C   UNL     1      -0.222  12.343  21.192  0.00  0.00    +0.000 A 
ATOM     18  C   UNL     1      -1.418  11.729  21.577  0.00  0.00    +0.000 A 
ATOM     19  C   UNL     1      -2.218  12.299  22.571  0.00  0.00    +0.000 A 
ATOM     20  C   UNL     1      -1.857  13.496  23.199  0.00  0.00    +0.000 A 
ATOM     21  C   UNL     1      -0.647  14.093  22.793  0.00  0.00    +0.000 A 
ATOM     22  C   UNL     1       0.171  13.527  21.804  0.00  0.00    +0.000 A 
BRANCH  20  23
ATOM     23  N   UNL     1      -2.611  14.070  24.208  0.00  0.00    +0.000 N 
ATOM     24  C   UNL     1      -4.053  13.808  24.357  0.00  0.00    +0.000 C 
ATOM     25  C   UNL     1      -4.892  15.014  23.914  0.00  0.00    +0.000 C 
ATOM     26  O   UNL     1      -4.485  16.213  24.594  0.00  0.00    +0.000 OA
ATOM     27  C   UNL     1      -3.107  16.498  24.306  0.00  0.00    +0.000 C 
ATOM     28  C   UNL     1      -2.179  15.362  24.774  0.00  0.00    +0.000 C 
ENDBRANCH  20  23
ENDBRANCH  16  17
ENDBRANCH   5  15
TORSDOF 4
ENDMDL
