MODEL 1
REMARK VINA RESULT:      -9.0      0.000      0.000
REMARK  Name = 
REMARK  8 active torsions:
REMARK  status: ('A' for Active; 'I' for Inactive)
REMARK    1  A    between atoms: C_2  and  O_3
REMARK    2  A    between atoms: C_2  and  C_4
REMARK    3  A    between atoms: C_6  and  N_7
REMARK    4  A    between atoms: C_8  and  C_10
REMARK    5  A    between atoms: C_15  and  C_16
REMARK    6  A    between atoms: C_16  and  O_18
REMARK    7  A    between atoms: C_24  and  C_25
REMARK    8  A    between atoms: C_25  and  O_27
REMARK                            x       y       z     vdW  Elec       q    Type
REMARK                         _______ _______ _______ _____ _____    ______ ____
ROOT
ATOM      1  N   UNL     1       1.608   8.542  19.394  0.00  0.00    +0.000 N 
ATOM      2  C   UNL     1       2.213   8.477  18.146  0.00  0.00    +0.000 C 
ATOM      3  O   UNL     1       2.147   9.331  17.267  0.00  0.00    +0.000 OA
ATOM      4  H   UNL     1       1.867   7.841  20.082  0.00  0.00    +0.000 HD
ENDROOT
BRANCH   2   5
ATOM      5  C   UNL     1       3.074   7.317  17.849  0.00  0.00    +0.000 A 
ATOM      6  C   UNL     1       2.469   6.055  17.891  0.00  0.00    +0.000 A 
ATOM      7  C   UNL     1       3.204   4.919  17.560  0.00  0.00    +0.000 A 
ATOM      8  C   UNL     1       4.553   5.042  17.226  0.00  0.00    +0.000 A 
ATOM      9  C   UNL     1       5.240   3.987  16.622  0.00  0.00    +0.000 A 
ATOM     10  C   UNL     1       6.541   4.219  16.178  0.00  0.00    +0.000 A 
ATOM     11  C   UNL     1       7.298   5.196  16.816  0.00  0.00    +0.000 A 
ATOM     12  C   UNL     1       6.620   6.291  17.342  0.00  0.00    +0.000 A 
ATOM     13  C   UNL     1       5.214   6.277  17.410  0.00  0.00    +0.000 A 
ATOM     14  C   UNL     1       4.451   7.433  17.646  0.00  0.00    +0.000 A 
BRANCH  10  15
ATOM     15  C   UNL     1       6.631   4.333  14.690  0.00  0.00    +0.000 C 
ATOM     16  O   UNL     1       5.858   3.823  13.898  0.00  0.00    +0.000 OA
BRANCH  15  17
ATOM     17  O   UNL     1       7.566   5.205  14.288  0.00  0.00    +0.000 OA
ATOM     18  H   UNL     1       8.067   5.370  15.118  0.00  0.00    +0.000 HD
ENDBRANCH  15  17
ENDBRANCH  10  15
ENDBRANCH   2   5
BRANCH   1  21
ATOM     19  C   UNL     1      -0.423  11.699  19.449  0.00  0.00    +0.000 A 
ATOM     20  C   UNL     1       0.415  10.674  19.001  0.00  0.00    +0.000 A 
ATOM     21  C   UNL     1       0.776   9.609  19.836  0.00  0.00    +0.000 A 
ATOM     22  C   UNL     1       0.300   9.611  21.155  0.00  0.00    +0.000 A 
ATOM     23  C   UNL     1      -0.511  10.668  21.626  0.00  0.00    +0.000 A 
ATOM     24  C   UNL     1      -0.885  11.702  20.767  0.00  0.00    +0.000 A 
BRANCH  19  26
ATOM     25  O   UNL     1      -0.641  13.987  18.907  0.00  0.00    +0.000 OA
ATOM     26  C   UNL     1      -0.809  12.828  18.570  0.00  0.00    +0.000 C 
BRANCH  26  27
ATOM     27  O   UNL     1      -1.408  12.467  17.419  0.00  0.00    +0.000 OA
ATOM     28  H   UNL     1      -2.320  12.126  17.490  0.00  0.00    +0.000 HD
ENDBRANCH  26  27
ENDBRANCH  19  26
BRANCH  23  29
ATOM     29  C   UNL     1      -0.996  10.606  23.024  0.00  0.00    +0.000 C 
ATOM     30  O   UNL     1      -1.963  11.257  23.415  0.00  0.00    +0.000 OA
BRANCH  29  31
ATOM     31  O   UNL     1      -0.331   9.747  23.830  0.00  0.00    +0.000 OA
ATOM     32  H   UNL     1       0.154   9.016  23.400  0.00  0.00    +0.000 HD
ENDBRANCH  29  31
ENDBRANCH  23  29
ENDBRANCH   1  21
TORSDOF 8
ENDMDL
MODEL 2
REMARK VINA RESULT:      -9.0      0.630      2.825
REMARK  Name = 
REMARK  8 active torsions:
REMARK  status: ('A' for Active; 'I' for Inactive)
REMARK    1  A    between atoms: C_2  and  O_3
REMARK    2  A    between atoms: C_2  and  C_4
REMARK    3  A    between atoms: C_6  and  N_7
REMARK    4  A    between atoms: C_8  and  C_10
REMARK    5  A    between atoms: C_15  and  C_16
REMARK    6  A    between atoms: C_16  and  O_18
REMARK    7  A    between atoms: C_24  and  C_25
REMARK    8  A    between atoms: C_25  and  O_27
REMARK                            x       y       z     vdW  Elec       q    Type
REMARK                         _______ _______ _______ _____ _____    ______ ____
ROOT
ATOM      1  N   UNL     1       1.402   8.385  19.238  0.00  0.00    +0.000 N 
ATOM      2  C   UNL     1       2.215   8.462  18.116  0.00  0.00    +0.000 C 
ATOM      3  O   UNL     1       2.319   9.425  17.364  0.00  0.00    +0.000 OA
ATOM      4  H   UNL     1       1.525   7.590  19.858  0.00  0.00    +0.000 HD
ENDROOT
BRANCH   2   5
ATOM      5  C   UNL     1       3.097   7.317  17.815  0.00  0.00    +0.000 A 
ATOM      6  C   UNL     1       2.521   6.043  17.878  0.00  0.00    +0.000 A 
ATOM      7  C   UNL     1       3.276   4.921  17.546  0.00  0.00    +0.000 A 
ATOM      8  C   UNL     1       4.617   5.070  17.190  0.00  0.00    +0.000 A 
ATOM      9  C   UNL     1       5.318   4.025  16.584  0.00  0.00    +0.000 A 
ATOM     10  C   UNL     1       6.606   4.281  16.119  0.00  0.00    +0.000 A 
ATOM     11  C   UNL     1       7.351   5.281  16.736  0.00  0.00    +0.000 A 
ATOM     12  C   UNL     1       6.657   6.365  17.262  0.00  0.00    +0.000 A 
ATOM     13  C   UNL     1       5.253   6.321  17.352  0.00  0.00    +0.000 A 
ATOM     14  C   UNL     1       4.468   7.462  17.590  0.00  0.00    +0.000 A 
BRANCH  10  15
ATOM     15  C   UNL     1       6.670   4.383  14.629  0.00  0.00    +0.000 C 
ATOM     16  O   UNL     1       5.899   3.847  13.852  0.00  0.00    +0.000 OA
BRANCH  15  17
ATOM     17  O   UNL     1       7.577   5.275  14.204  0.00  0.00    +0.000 OA
ATOM     18  H   UNL     1       8.295   4.696  13.864  0.00  0.00    +0.000 HD
ENDBRANCH  15  17
ENDBRANCH  10  15
ENDBRANCH   2   5
BRANCH   1  21
ATOM     19  C   UNL     1      -0.496  10.775  21.425  0.00  0.00    +0.000 A 
ATOM     20  C   UNL     1       0.356   9.742  21.023  0.00  0.00    +0.000 A 
ATOM     21  C   UNL     1       0.522   9.416  19.672  0.00  0.00    +0.000 A 
ATOM     22  C   UNL     1      -0.217  10.136  18.721  0.00  0.00    +0.000 A 
ATOM     23  C   UNL     1      -1.112  11.152  19.125  0.00  0.00    +0.000 A 
ATOM     24  C   UNL     1      -1.238  11.481  20.475  0.00  0.00    +0.000 A 
BRANCH  19  26
ATOM     25  O   UNL     1      -1.143  12.197  23.195  0.00  0.00    +0.000 OA
ATOM     26  C   UNL     1      -0.676  11.124  22.854  0.00  0.00    +0.000 C 
BRANCH  26  27
ATOM     27  O   UNL     1      -0.228  10.197  23.721  0.00  0.00    +0.000 OA
ATOM     28  H   UNL     1      -0.675  10.158  24.588  0.00  0.00    +0.000 HD
ENDBRANCH  26  27
ENDBRANCH  19  26
BRANCH  23  29
ATOM     29  C   UNL     1      -1.853  11.888  18.075  0.00  0.00    +0.000 C 
ATOM     30  O   UNL     1      -3.061  11.744  17.896  0.00  0.00    +0.000 OA
BRANCH  29  31
ATOM     31  O   UNL     1      -1.117  12.766  17.355  0.00  0.00    +0.000 OA
ATOM     32  H   UNL     1      -1.303  12.825  16.397  0.00  0.00    +0.000 HD
ENDBRANCH  29  31
ENDBRANCH  23  29
ENDBRANCH   1  21
TORSDOF 8
ENDMDL
MODEL 3
REMARK VINA RESULT:      -8.8      1.227      1.462
REMARK  Name = 
REMARK  8 active torsions:
REMARK  status: ('A' for Active; 'I' for Inactive)
REMARK    1  A    between atoms: C_2  and  O_3
REMARK    2  A    between atoms: C_2  and  C_4
REMARK    3  A    between atoms: C_6  and  N_7
REMARK    4  A    between atoms: C_8  and  C_10
REMARK    5  A    between atoms: C_15  and  C_16
REMARK    6  A    between atoms: C_16  and  O_18
REMARK    7  A    between atoms: C_24  and  C_25
REMARK    8  A    between atoms: C_25  and  O_27
REMARK                            x       y       z     vdW  Elec       q    Type
REMARK                         _______ _______ _______ _____ _____    ______ ____
ROOT
ATOM      1  N   UNL     1       1.800   8.294  18.691  0.00  0.00    +0.000 N 
ATOM      2  C   UNL     1       2.152   7.109  19.323  0.00  0.00    +0.000 C 
ATOM      3  O   UNL     1       1.729   6.715  20.405  0.00  0.00    +0.000 OA
ATOM      4  H   UNL     1       2.105   8.426  17.731  0.00  0.00    +0.000 HD
ENDROOT
BRANCH   2   5
ATOM      5  C   UNL     1       3.065   6.188  18.619  0.00  0.00    +0.000 A 
ATOM      6  C   UNL     1       2.499   5.027  18.079  0.00  0.00    +0.000 A 
ATOM      7  C   UNL     1       3.287   4.144  17.347  0.00  0.00    +0.000 A 
ATOM      8  C   UNL     1       4.650   4.401  17.189  0.00  0.00    +0.000 A 
ATOM      9  C   UNL     1       5.404   3.706  16.241  0.00  0.00    +0.000 A 
ATOM     10  C   UNL     1       6.721   4.108  16.028  0.00  0.00    +0.000 A 
ATOM     11  C   UNL     1       7.408   4.722  17.070  0.00  0.00    +0.000 A 
ATOM     12  C   UNL     1       6.665   5.486  17.964  0.00  0.00    +0.000 A 
ATOM     13  C   UNL     1       5.259   5.441  17.925  0.00  0.00    +0.000 A 
ATOM     14  C   UNL     1       4.447   6.384  18.579  0.00  0.00    +0.000 A 
BRANCH  10  15
ATOM     15  C   UNL     1       6.896   4.846  14.739  0.00  0.00    +0.000 C 
ATOM     16  O   UNL     1       7.809   5.612  14.485  0.00  0.00    +0.000 OA
BRANCH  15  17
ATOM     17  O   UNL     1       6.029   4.459  13.793  0.00  0.00    +0.000 OA
ATOM     18  H   UNL     1       6.625   4.223  13.048  0.00  0.00    +0.000 HD
ENDBRANCH  15  17
ENDBRANCH  10  15
ENDBRANCH   2   5
BRANCH   1  21
ATOM     19  C   UNL     1      -0.750  11.035  18.970  0.00  0.00    +0.000 A 
ATOM     20  C   UNL     1       0.135  10.104  18.419  0.00  0.00    +0.000 A 
ATOM     21  C   UNL     1       0.910   9.266  19.229  0.00  0.00    +0.000 A 
ATOM     22  C   UNL     1       0.801   9.403  20.621  0.00  0.00    +0.000 A 
ATOM     23  C   UNL     1      -0.060  10.373  21.183  0.00  0.00    +0.000 A 
ATOM     24  C   UNL     1      -0.847  11.176  20.356  0.00  0.00    +0.000 A 
BRANCH  19  26
ATOM     25  O   UNL     1      -2.754  11.700  17.913  0.00  0.00    +0.000 OA
ATOM     26  C   UNL     1      -1.573  11.925  18.117  0.00  0.00    +0.000 C 
BRANCH  26  27
ATOM     27  O   UNL     1      -0.900  12.943  17.550  0.00  0.00    +0.000 OA
ATOM     28  H   UNL     1      -0.675  13.695  18.130  0.00  0.00    +0.000 HD
ENDBRANCH  26  27
ENDBRANCH  19  26
BRANCH  23  29
ATOM     29  C   UNL     1      -0.144  10.460  22.658  0.00  0.00    +0.000 C 
ATOM     30  O   UNL     1      -0.998  11.135  23.231  0.00  0.00    +0.000 OA
BRANCH  29  31
ATOM     31  O   UNL     1       0.754   9.708  23.336  0.00  0.00    +0.000 OA
ATOM     32  H   UNL     1       1.617   9.548  22.905  0.00  0.00    +0.000 HD
ENDBRANCH  29  31
ENDBRANCH  23  29
ENDBRANCH   1  21
TORSDOF 8
ENDMDL
MODEL 4
REMARK VINA RESULT:      -8.8      1.987      2.453
REMARK  Name = 
REMARK  8 active torsions:
REMARK  status: ('A' for Active; 'I' for Inactive)
REMARK    1  A    between atoms: C_2  and  O_3
REMARK    2  A    between atoms: C_2  and  C_4
REMARK    3  A    between atoms: C_6  and  N_7
REMARK    4  A    between atoms: C_8  and  C_10
REMARK    5  A    between atoms: C_15  and  C_16
REMARK    6  A    between atoms: C_16  and  O_18
REMARK    7  A    between atoms: C_24  and  C_25
REMARK    8  A    between atoms: C_25  and  O_27
REMARK                            x       y       z     vdW  Elec       q    Type
REMARK                         _______ _______ _______ _____ _____    ______ ____
ROOT
ATOM      1  N   UNL     1       1.788   8.685  17.748  0.00  0.00    +0.000 N 
ATOM      2  C   UNL     1       2.256   7.721  18.631  0.00  0.00    +0.000 C 
ATOM      3  O   UNL     1       1.955   7.620  19.816  0.00  0.00    +0.000 OA
ATOM      4  H   UNL     1       1.996   8.563  16.762  0.00  0.00    +0.000 HD
ENDROOT
BRANCH   2   5
ATOM      5  C   UNL     1       3.148   6.670  18.105  0.00  0.00    +0.000 A 
ATOM      6  C   UNL     1       2.600   5.390  17.962  0.00  0.00    +0.000 A 
ATOM      7  C   UNL     1       3.362   4.363  17.414  0.00  0.00    +0.000 A 
ATOM      8  C   UNL     1       4.686   4.605  17.045  0.00  0.00    +0.000 A 
ATOM      9  C   UNL     1       5.384   3.700  16.243  0.00  0.00    +0.000 A 
ATOM     10  C   UNL     1       6.649   4.067  15.787  0.00  0.00    +0.000 A 
ATOM     11  C   UNL     1       7.398   4.961  16.545  0.00  0.00    +0.000 A 
ATOM     12  C   UNL     1       6.702   5.919  17.277  0.00  0.00    +0.000 A 
ATOM     13  C   UNL     1       5.304   5.824  17.404  0.00  0.00    +0.000 A 
ATOM     14  C   UNL     1       4.507   6.886  17.864  0.00  0.00    +0.000 A 
BRANCH  10  15
ATOM     15  C   UNL     1       6.657   4.429  14.337  0.00  0.00    +0.000 C 
ATOM     16  O   UNL     1       7.258   5.370  13.849  0.00  0.00    +0.000 OA
BRANCH  15  17
ATOM     17  O   UNL     1       6.061   3.509  13.565  0.00  0.00    +0.000 OA
ATOM     18  H   UNL     1       6.573   2.696  13.777  0.00  0.00    +0.000 HD
ENDBRANCH  15  17
ENDBRANCH  10  15
ENDBRANCH   2   5
BRANCH   1  21
ATOM     19  C   UNL     1      -1.313  10.767  18.127  0.00  0.00    +0.000 A 
ATOM     20  C   UNL     1      -0.455   9.729  17.751  0.00  0.00    +0.000 A 
ATOM     21  C   UNL     1       0.901   9.741  18.099  0.00  0.00    +0.000 A 
ATOM     22  C   UNL     1       1.392  10.843  18.814  0.00  0.00    +0.000 A 
ATOM     23  C   UNL     1       0.539  11.916  19.158  0.00  0.00    +0.000 A 
ATOM     24  C   UNL     1      -0.817  11.868  18.829  0.00  0.00    +0.000 A 
BRANCH  19  26
ATOM     25  O   UNL     1      -3.407   9.734  17.778  0.00  0.00    +0.000 OA
ATOM     26  C   UNL     1      -2.749  10.760  17.762  0.00  0.00    +0.000 C 
BRANCH  26  27
ATOM     27  O   UNL     1      -3.234  11.950  17.358  0.00  0.00    +0.000 OA
ATOM     28  H   UNL     1      -3.106  12.703  17.966  0.00  0.00    +0.000 HD
ENDBRANCH  26  27
ENDBRANCH  19  26
BRANCH  23  29
ATOM     29  C   UNL     1       1.111  13.045  19.927  0.00  0.00    +0.000 C 
ATOM     30  O   UNL     1       0.981  14.215  19.575  0.00  0.00    +0.000 OA
BRANCH  29  31
ATOM     31  O   UNL     1       1.748  12.703  21.071  0.00  0.00    +0.000 OA
ATOM     32  H   UNL     1       2.657  13.041  21.194  0.00  0.00    +0.000 HD
ENDBRANCH  29  31
ENDBRANCH  23  29
ENDBRANCH   1  21
TORSDOF 8
ENDMDL
MODEL 5
REMARK VINA RESULT:      -8.8      1.206      3.105
REMARK  Name = 
REMARK  8 active torsions:
REMARK  status: ('A' for Active; 'I' for Inactive)
REMARK    1  A    between atoms: C_2  and  O_3
REMARK    2  A    between atoms: C_2  and  C_4
REMARK    3  A    between atoms: C_6  and  N_7
REMARK    4  A    between atoms: C_8  and  C_10
REMARK    5  A    between atoms: C_15  and  C_16
REMARK    6  A    between atoms: C_16  and  O_18
REMARK    7  A    between atoms: C_24  and  C_25
REMARK    8  A    between atoms: C_25  and  O_27
REMARK                            x       y       z     vdW  Elec       q    Type
REMARK                         _______ _______ _______ _____ _____    ______ ____
ROOT
ATOM      1  N   UNL     1       1.818   8.276  18.734  0.00  0.00    +0.000 N 
ATOM      2  C   UNL     1       2.163   7.082  19.353  0.00  0.00    +0.000 C 
ATOM      3  O   UNL     1       1.738   6.679  20.431  0.00  0.00    +0.000 OA
ATOM      4  H   UNL     1       2.124   8.417  17.776  0.00  0.00    +0.000 HD
ENDROOT
BRANCH   2   5
ATOM      5  C   UNL     1       3.071   6.164  18.639  0.00  0.00    +0.000 A 
ATOM      6  C   UNL     1       2.505   4.994  18.118  0.00  0.00    +0.000 A 
ATOM      7  C   UNL     1       3.287   4.112  17.378  0.00  0.00    +0.000 A 
ATOM      8  C   UNL     1       4.644   4.379  17.192  0.00  0.00    +0.000 A 
ATOM      9  C   UNL     1       5.386   3.684  16.235  0.00  0.00    +0.000 A 
ATOM     10  C   UNL     1       6.696   4.096  15.994  0.00  0.00    +0.000 A 
ATOM     11  C   UNL     1       7.397   4.723  17.019  0.00  0.00    +0.000 A 
ATOM     12  C   UNL     1       6.664   5.488  17.921  0.00  0.00    +0.000 A 
ATOM     13  C   UNL     1       5.258   5.430  17.909  0.00  0.00    +0.000 A 
ATOM     14  C   UNL     1       4.450   6.371  18.571  0.00  0.00    +0.000 A 
BRANCH  10  15
ATOM     15  C   UNL     1       6.840   4.825  14.697  0.00  0.00    +0.000 C 
ATOM     16  O   UNL     1       7.748   5.588  14.416  0.00  0.00    +0.000 OA
BRANCH  15  17
ATOM     17  O   UNL     1       5.949   4.434  13.776  0.00  0.00    +0.000 OA
ATOM     18  H   UNL     1       6.512   3.941  13.137  0.00  0.00    +0.000 HD
ENDBRANCH  15  17
ENDBRANCH  10  15
ENDBRANCH   2   5
BRANCH   1  21
ATOM     19  C   UNL     1      -0.102  10.378  21.181  0.00  0.00    +0.000 A 
ATOM     20  C   UNL     1       0.755   9.401  20.663  0.00  0.00    +0.000 A 
ATOM     21  C   UNL     1       0.934   9.246  19.284  0.00  0.00    +0.000 A 
ATOM     22  C   UNL     1       0.205  10.079  18.423  0.00  0.00    +0.000 A 
ATOM     23  C   UNL     1      -0.695  11.038  18.940  0.00  0.00    +0.000 A 
ATOM     24  C   UNL     1      -0.835  11.197  20.320  0.00  0.00    +0.000 A 
BRANCH  19  26
ATOM     25  O   UNL     1       0.373   9.928  23.450  0.00  0.00    +0.000 OA
ATOM     26  C   UNL     1      -0.296  10.547  22.641  0.00  0.00    +0.000 C 
BRANCH  26  27
ATOM     27  O   UNL     1      -1.299  11.377  22.984  0.00  0.00    +0.000 OA
ATOM     28  H   UNL     1      -2.076  10.970  23.411  0.00  0.00    +0.000 HD
ENDBRANCH  26  27
ENDBRANCH  19  26
BRANCH  23  29
ATOM     29  C   UNL     1      -1.425  11.900  17.982  0.00  0.00    +0.000 C 
ATOM     30  O   UNL     1      -2.530  11.599  17.535  0.00  0.00    +0.000 OA
BRANCH  29  31
ATOM     31  O   UNL     1      -0.813  13.065  17.669  0.00  0.00    +0.000 OA
ATOM     32  H   UNL     1       0.152  13.035  17.514  0.00  0.00    +0.000 HD
ENDBRANCH  29  31
ENDBRANCH  23  29
ENDBRANCH   1  21
TORSDOF 8
ENDMDL
MODEL 6
REMARK VINA RESULT:      -8.8      1.962      2.746
REMARK  Name = 
REMARK  8 active torsions:
REMARK  status: ('A' for Active; 'I' for Inactive)
REMARK    1  A    between atoms: C_2  and  O_3
REMARK    2  A    between atoms: C_2  and  C_4
REMARK    3  A    between atoms: C_6  and  N_7
REMARK    4  A    between atoms: C_8  and  C_10
REMARK    5  A    between atoms: C_15  and  C_16
REMARK    6  A    between atoms: C_16  and  O_18
REMARK    7  A    between atoms: C_24  and  C_25
REMARK    8  A    between atoms: C_25  and  O_27
REMARK                            x       y       z     vdW  Elec       q    Type
REMARK                         _______ _______ _______ _____ _____    ______ ____
ROOT
ATOM      1  N   UNL     1       1.779   8.733  17.835  0.00  0.00    +0.000 N 
ATOM      2  C   UNL     1       2.241   7.759  18.711  0.00  0.00    +0.000 C 
ATOM      3  O   UNL     1       1.960   7.668  19.902  0.00  0.00    +0.000 OA
ATOM      4  H   UNL     1       1.965   8.604  16.845  0.00  0.00    +0.000 HD
ENDROOT
BRANCH   2   5
ATOM      5  C   UNL     1       3.095   6.684  18.170  0.00  0.00    +0.000 A 
ATOM      6  C   UNL     1       2.486   5.442  17.955  0.00  0.00    +0.000 A 
ATOM      7  C   UNL     1       3.213   4.399  17.389  0.00  0.00    +0.000 A 
ATOM      8  C   UNL     1       4.560   4.586  17.073  0.00  0.00    +0.000 A 
ATOM      9  C   UNL     1       5.237   3.678  16.256  0.00  0.00    +0.000 A 
ATOM     10  C   UNL     1       6.534   3.995  15.857  0.00  0.00    +0.000 A 
ATOM     11  C   UNL     1       7.301   4.818  16.675  0.00  0.00    +0.000 A 
ATOM     12  C   UNL     1       6.632   5.781  17.424  0.00  0.00    +0.000 A 
ATOM     13  C   UNL     1       5.227   5.755  17.502  0.00  0.00    +0.000 A 
ATOM     14  C   UNL     1       4.470   6.838  17.982  0.00  0.00    +0.000 A 
BRANCH  10  15
ATOM     15  C   UNL     1       6.609   4.415  14.424  0.00  0.00    +0.000 C 
ATOM     16  O   UNL     1       7.127   5.441  14.017  0.00  0.00    +0.000 OA
BRANCH  15  17
ATOM     17  O   UNL     1       6.192   3.463  13.578  0.00  0.00    +0.000 OA
ATOM     18  H   UNL     1       6.959   2.847  13.562  0.00  0.00    +0.000 HD
ENDBRANCH  15  17
ENDBRANCH  10  15
ENDBRANCH   2   5
BRANCH   1  21
ATOM     19  C   UNL     1       0.530  11.962  19.286  0.00  0.00    +0.000 A 
ATOM     20  C   UNL     1       1.379  10.901  18.957  0.00  0.00    +0.000 A 
ATOM     21  C   UNL     1       0.928   9.812  18.201  0.00  0.00    +0.000 A 
ATOM     22  C   UNL     1      -0.417   9.795  17.802  0.00  0.00    +0.000 A 
ATOM     23  C   UNL     1      -1.290  10.844  18.169  0.00  0.00    +0.000 A 
ATOM     24  C   UNL     1      -0.811  11.934  18.896  0.00  0.00    +0.000 A 
BRANCH  19  26
ATOM     25  O   UNL     1       1.607  12.964  21.133  0.00  0.00    +0.000 OA
ATOM     26  C   UNL     1       1.002  13.117  20.085  0.00  0.00    +0.000 C 
BRANCH  26  27
ATOM     27  O   UNL     1       0.654  14.322  19.596  0.00  0.00    +0.000 OA
ATOM     28  H   UNL     1       0.013  14.838  20.120  0.00  0.00    +0.000 HD
ENDBRANCH  26  27
ENDBRANCH  19  26
BRANCH  23  29
ATOM     29  C   UNL     1      -2.695  10.777  17.705  0.00  0.00    +0.000 C 
ATOM     30  O   UNL     1      -3.305   9.715  17.600  0.00  0.00    +0.000 OA
BRANCH  29  31
ATOM     31  O   UNL     1      -3.277  11.972  17.449  0.00  0.00    +0.000 OA
ATOM     32  H   UNL     1      -3.643  12.462  18.211  0.00  0.00    +0.000 HD
ENDBRANCH  29  31
ENDBRANCH  23  29
ENDBRANCH   1  21
TORSDOF 8
ENDMDL
MODEL 7
REMARK VINA RESULT:      -8.7      2.734      3.522
REMARK  Name = 
REMARK  8 active torsions:
REMARK  status: ('A' for Active; 'I' for Inactive)
REMARK    1  A    between atoms: C_2  and  O_3
REMARK    2  A    between atoms: C_2  and  C_4
REMARK    3  A    between atoms: C_6  and  N_7
REMARK    4  A    between atoms: C_8  and  C_10
REMARK    5  A    between atoms: C_15  and  C_16
REMARK    6  A    between atoms: C_16  and  O_18
REMARK    7  A    between atoms: C_24  and  C_25
REMARK    8  A    between atoms: C_25  and  O_27
REMARK                            x       y       z     vdW  Elec       q    Type
REMARK                         _______ _______ _______ _____ _____    ______ ____
ROOT
ATOM      1  N   UNL     1       1.049   8.932  19.200  0.00  0.00    +0.000 N 
ATOM      2  C   UNL     1       1.917   8.725  18.137  0.00  0.00    +0.000 C 
ATOM      3  O   UNL     1       2.276   9.570  17.323  0.00  0.00    +0.000 OA
ATOM      4  H   UNL     1       0.956   8.188  19.886  0.00  0.00    +0.000 HD
ENDROOT
BRANCH   2   5
ATOM      5  C   UNL     1       2.532   7.392  17.989  0.00  0.00    +0.000 A 
ATOM      6  C   UNL     1       3.860   7.354  17.548  0.00  0.00    +0.000 A 
ATOM      7  C   UNL     1       4.525   6.136  17.445  0.00  0.00    +0.000 A 
ATOM      8  C   UNL     1       3.850   4.951  17.745  0.00  0.00    +0.000 A 
ATOM      9  C   UNL     1       4.547   3.756  17.928  0.00  0.00    +0.000 A 
ATOM     10  C   UNL     1       3.835   2.642  18.369  0.00  0.00    +0.000 A 
ATOM     11  C   UNL     1       2.480   2.554  18.068  0.00  0.00    +0.000 A 
ATOM     12  C   UNL     1       1.767   3.745  17.971  0.00  0.00    +0.000 A 
ATOM     13  C   UNL     1       2.454   4.973  17.961  0.00  0.00    +0.000 A 
ATOM     14  C   UNL     1       1.812   6.208  18.161  0.00  0.00    +0.000 A 
BRANCH  10  15
ATOM     15  C   UNL     1       4.106   2.316  19.803  0.00  0.00    +0.000 C 
ATOM     16  O   UNL     1       3.367   2.579  20.736  0.00  0.00    +0.000 OA
BRANCH  15  17
ATOM     17  O   UNL     1       5.186   1.540  19.967  0.00  0.00    +0.000 OA
ATOM     18  H   UNL     1       5.922   2.164  19.783  0.00  0.00    +0.000 HD
ENDBRANCH  15  17
ENDBRANCH  10  15
ENDBRANCH   2   5
BRANCH   1  21
ATOM     19  C   UNL     1      -1.501  11.684  19.329  0.00  0.00    +0.000 A 
ATOM     20  C   UNL     1      -0.877  10.474  19.012  0.00  0.00    +0.000 A 
ATOM     21  C   UNL     1       0.403  10.167  19.490  0.00  0.00    +0.000 A 
ATOM     22  C   UNL     1       1.065  11.122  20.275  0.00  0.00    +0.000 A 
ATOM     23  C   UNL     1       0.456  12.365  20.561  0.00  0.00    +0.000 A 
ATOM     24  C   UNL     1      -0.834  12.637  20.101  0.00  0.00    +0.000 A 
BRANCH  19  26
ATOM     25  O   UNL     1      -3.780  12.246  19.588  0.00  0.00    +0.000 OA
ATOM     26  C   UNL     1      -2.856  12.015  18.827  0.00  0.00    +0.000 C 
BRANCH  26  27
ATOM     27  O   UNL     1      -2.986  11.975  17.488  0.00  0.00    +0.000 OA
ATOM     28  H   UNL     1      -3.516  11.241  17.122  0.00  0.00    +0.000 HD
ENDBRANCH  26  27
ENDBRANCH  19  26
BRANCH  23  29
ATOM     29  C   UNL     1       1.197  13.327  21.408  0.00  0.00    +0.000 C 
ATOM     30  O   UNL     1       2.387  13.580  21.232  0.00  0.00    +0.000 OA
BRANCH  29  31
ATOM     31  O   UNL     1       0.462  13.946  22.361  0.00  0.00    +0.000 OA
ATOM     32  H   UNL     1      -0.264  13.433  22.768  0.00  0.00    +0.000 HD
ENDBRANCH  29  31
ENDBRANCH  23  29
ENDBRANCH   1  21
TORSDOF 8
ENDMDL
MODEL 8
REMARK VINA RESULT:      -8.7      1.118      3.084
REMARK  Name = 
REMARK  8 active torsions:
REMARK  status: ('A' for Active; 'I' for Inactive)
REMARK    1  A    between atoms: C_2  and  O_3
REMARK    2  A    between atoms: C_2  and  C_4
REMARK    3  A    between atoms: C_6  and  N_7
REMARK    4  A    between atoms: C_8  and  C_10
REMARK    5  A    between atoms: C_15  and  C_16
REMARK    6  A    between atoms: C_16  and  O_18
REMARK    7  A    between atoms: C_24  and  C_25
REMARK    8  A    between atoms: C_25  and  O_27
REMARK                            x       y       z     vdW  Elec       q    Type
REMARK                         _______ _______ _______ _____ _____    ______ ____
ROOT
ATOM      1  N   UNL     1       1.821   8.429  18.959  0.00  0.00    +0.000 N 
ATOM      2  C   UNL     1       2.098   7.205  19.553  0.00  0.00    +0.000 C 
ATOM      3  O   UNL     1       1.654   6.805  20.624  0.00  0.00    +0.000 OA
ATOM      4  H   UNL     1       2.131   8.571  18.002  0.00  0.00    +0.000 HD
ENDROOT
BRANCH   2   5
ATOM      5  C   UNL     1       2.950   6.251  18.816  0.00  0.00    +0.000 A 
ATOM      6  C   UNL     1       2.323   5.108  18.306  0.00  0.00    +0.000 A 
ATOM      7  C   UNL     1       3.049   4.195  17.547  0.00  0.00    +0.000 A 
ATOM      8  C   UNL     1       4.412   4.405  17.332  0.00  0.00    +0.000 A 
ATOM      9  C   UNL     1       5.103   3.681  16.358  0.00  0.00    +0.000 A 
ATOM     10  C   UNL     1       6.424   4.037  16.089  0.00  0.00    +0.000 A 
ATOM     11  C   UNL     1       7.173   4.631  17.099  0.00  0.00    +0.000 A 
ATOM     12  C   UNL     1       6.494   5.423  18.019  0.00  0.00    +0.000 A 
ATOM     13  C   UNL     1       5.087   5.426  18.037  0.00  0.00    +0.000 A 
ATOM     14  C   UNL     1       4.335   6.399  18.719  0.00  0.00    +0.000 A 
BRANCH  10  15
ATOM     15  C   UNL     1       6.571   4.764  14.791  0.00  0.00    +0.000 C 
ATOM     16  O   UNL     1       5.693   4.899  13.956  0.00  0.00    +0.000 OA
BRANCH  15  17
ATOM     17  O   UNL     1       7.736   5.418  14.687  0.00  0.00    +0.000 OA
ATOM     18  H   UNL     1       7.572   6.224  15.226  0.00  0.00    +0.000 HD
ENDBRANCH  15  17
ENDBRANCH  10  15
ENDBRANCH   2   5
BRANCH   1  21
ATOM     19  C   UNL     1      -0.175  10.436  21.425  0.00  0.00    +0.000 A 
ATOM     20  C   UNL     1       0.618   9.422  20.879  0.00  0.00    +0.000 A 
ATOM     21  C   UNL     1       0.995   9.437  19.531  0.00  0.00    +0.000 A 
ATOM     22  C   UNL     1       0.530  10.486  18.724  0.00  0.00    +0.000 A 
ATOM     23  C   UNL     1      -0.307  11.490  19.261  0.00  0.00    +0.000 A 
ATOM     24  C   UNL     1      -0.645  11.472  20.616  0.00  0.00    +0.000 A 
BRANCH  19  26
ATOM     25  O   UNL     1      -1.574  11.012  23.239  0.00  0.00    +0.000 OA
ATOM     26  C   UNL     1      -0.577  10.426  22.852  0.00  0.00    +0.000 C 
BRANCH  26  27
ATOM     27  O   UNL     1       0.273   9.781  23.672  0.00  0.00    +0.000 OA
ATOM     28  H   UNL     1       1.029  10.297  24.013  0.00  0.00    +0.000 HD
ENDBRANCH  26  27
ENDBRANCH  19  26
BRANCH  23  29
ATOM     29  C   UNL     1      -0.754  12.581  18.365  0.00  0.00    +0.000 C 
ATOM     30  O   UNL     1      -0.495  13.762  18.584  0.00  0.00    +0.000 OA
BRANCH  29  31
ATOM     31  O   UNL     1      -1.427  12.183  17.260  0.00  0.00    +0.000 OA
ATOM     32  H   UNL     1      -1.368  12.756  16.471  0.00  0.00    +0.000 HD
ENDBRANCH  29  31
ENDBRANCH  23  29
ENDBRANCH   1  21
TORSDOF 8
ENDMDL
MODEL 9
REMARK VINA RESULT:      -8.6      2.748      3.856
REMARK  Name = 
REMARK  8 active torsions:
REMARK  status: ('A' for Active; 'I' for Inactive)
REMARK    1  A    between atoms: C_2  and  O_3
REMARK    2  A    between atoms: C_2  and  C_4
REMARK    3  A    between atoms: C_6  and  N_7
REMARK    4  A    between atoms: C_8  and  C_10
REMARK    5  A    between atoms: C_15  and  C_16
REMARK    6  A    between atoms: C_16  and  O_18
REMARK    7  A    between atoms: C_24  and  C_25
REMARK    8  A    between atoms: C_25  and  O_27
REMARK                            x       y       z     vdW  Elec       q    Type
REMARK                         _______ _______ _______ _____ _____    ______ ____
ROOT
ATOM      1  N   UNL     1       1.024   9.011  19.148  0.00  0.00    +0.000 N 
ATOM      2  C   UNL     1       1.909   8.802  18.099  0.00  0.00    +0.000 C 
ATOM      3  O   UNL     1       2.288   9.647  17.294  0.00  0.00    +0.000 OA
ATOM      4  H   UNL     1       0.914   8.266  19.829  0.00  0.00    +0.000 HD
ENDROOT
BRANCH   2   5
ATOM      5  C   UNL     1       2.517   7.465  17.957  0.00  0.00    +0.000 A 
ATOM      6  C   UNL     1       3.849   7.419  17.529  0.00  0.00    +0.000 A 
ATOM      7  C   UNL     1       4.508   6.197  17.432  0.00  0.00    +0.000 A 
ATOM      8  C   UNL     1       3.823   5.017  17.726  0.00  0.00    +0.000 A 
ATOM      9  C   UNL     1       4.512   3.817  17.917  0.00  0.00    +0.000 A 
ATOM     10  C   UNL     1       3.790   2.707  18.352  0.00  0.00    +0.000 A 
ATOM     11  C   UNL     1       2.437   2.628  18.039  0.00  0.00    +0.000 A 
ATOM     12  C   UNL     1       1.732   3.822  17.935  0.00  0.00    +0.000 A 
ATOM     13  C   UNL     1       2.426   5.047  17.930  0.00  0.00    +0.000 A 
ATOM     14  C   UNL     1       1.789   6.285  18.124  0.00  0.00    +0.000 A 
BRANCH  10  15
ATOM     15  C   UNL     1       4.046   2.381  19.788  0.00  0.00    +0.000 C 
ATOM     16  O   UNL     1       3.274   2.594  20.707  0.00  0.00    +0.000 OA
BRANCH  15  17
ATOM     17  O   UNL     1       5.162   1.662  19.970  0.00  0.00    +0.000 OA
ATOM     18  H   UNL     1       5.454   1.952  20.863  0.00  0.00    +0.000 HD
ENDBRANCH  15  17
ENDBRANCH  10  15
ENDBRANCH   2   5
BRANCH   1  21
ATOM     19  C   UNL     1       0.373  12.496  20.382  0.00  0.00    +0.000 A 
ATOM     20  C   UNL     1       1.016  11.279  20.137  0.00  0.00    +0.000 A 
ATOM     21  C   UNL     1       0.382  10.249  19.430  0.00  0.00    +0.000 A 
ATOM     22  C   UNL     1      -0.935  10.457  18.996  0.00  0.00    +0.000 A 
ATOM     23  C   UNL     1      -1.604  11.669  19.279  0.00  0.00    +0.000 A 
ATOM     24  C   UNL     1      -0.942  12.694  19.958  0.00  0.00    +0.000 A 
BRANCH  19  26
ATOM     25  O   UNL     1       1.997  14.187  20.669  0.00  0.00    +0.000 OA
ATOM     26  C   UNL     1       1.039  13.590  21.129  0.00  0.00    +0.000 C 
BRANCH  26  27
ATOM     27  O   UNL     1       0.542  13.815  22.360  0.00  0.00    +0.000 OA
ATOM     28  H   UNL     1       0.447  13.037  22.942  0.00  0.00    +0.000 HD
ENDBRANCH  26  27
ENDBRANCH  19  26
BRANCH  23  29
ATOM     29  C   UNL     1      -2.989  11.835  18.782  0.00  0.00    +0.000 C 
ATOM     30  O   UNL     1      -3.457  11.133  17.888  0.00  0.00    +0.000 OA
BRANCH  29  31
ATOM     31  O   UNL     1      -3.720  12.784  19.412  0.00  0.00    +0.000 OA
ATOM     32  H   UNL     1      -4.173  12.523  20.238  0.00  0.00    +0.000 HD
ENDBRANCH  29  31
ENDBRANCH  23  29
ENDBRANCH   1  21
TORSDOF 8
ENDMDL
