MODEL 1
REMARK VINA RESULT:      -7.3      0.000      0.000
REMARK  Name = 
REMARK  6 active torsions:
REMARK  status: ('A' for Active; 'I' for Inactive)
REMARK    1  A    between atoms: C_1  and  C_2
REMARK    2  A    between atoms: N_4  and  C_5
REMARK    3  A    between atoms: C_5  and  C_6
REMARK    4  A    between atoms: C_6  and  O_7
REMARK    5  A    between atoms: C_15  and  C_16
REMARK    6  A    between atoms: C_18  and  C_19
REMARK                            x       y       z     vdW  Elec       q    Type
REMARK                         _______ _______ _______ _____ _____    ______ ____
ROOT
ATOM      1  C   UNL     1       4.940   6.954  15.535  0.00  0.00    +0.000 C 
ATOM      2  C   UNL     1       5.114   5.974  16.677  0.00  0.00    +0.000 A 
ATOM      3  N   UNL     1       4.211   5.054  16.801  0.00  0.00    +0.000 NA
ATOM      4  N   UNL     1       4.296   4.188  17.865  0.00  0.00    +0.000 N 
ATOM      5  C   UNL     1       5.282   4.267  18.840  0.00  0.00    +0.000 A 
ATOM      6  O   UNL     1       5.297   3.576  19.856  0.00  0.00    +0.000 OA
ATOM      7  C   UNL     1       6.355   5.262  18.593  0.00  0.00    +0.000 A 
ATOM      8  C   UNL     1       6.287   6.139  17.580  0.00  0.00    +0.000 A 
ATOM      9  C   UNL     1       7.261   7.250  17.320  0.00  0.00    +0.000 C 
ENDROOT
BRANCH   7  10
ATOM     10  C   UNL     1       7.465   5.329  19.629  0.00  0.00    +0.000 C 
ATOM     11  N   UNL     1       8.386   5.385  20.488  0.00  0.00    +0.000 NA
ENDBRANCH   7  10
BRANCH   4  12
ATOM     12  C   UNL     1       3.265   3.144  17.951  0.00  0.00    +0.000 C 
BRANCH  12  13
ATOM     13  C   UNL     1       1.840   3.681  18.261  0.00  0.00    +0.000 C 
ATOM     14  C   UNL     1       0.949   2.565  18.837  0.00  0.00    +0.000 C 
ATOM     15  C   UNL     1       1.322   2.167  20.262  0.00  0.00    +0.000 C 
ATOM     16  C   UNL     1       1.350   3.373  21.194  0.00  0.00    +0.000 C 
ATOM     17  C   UNL     1       2.225   4.502  20.652  0.00  0.00    +0.000 C 
ATOM     18  C   UNL     1       1.841   4.882  19.223  0.00  0.00    +0.000 C 
BRANCH  13  19
ATOM     19  O   UNL     1       1.218   4.094  17.032  0.00  0.00    +0.000 OA
ATOM     20  H   UNL     1       0.315   4.390  17.275  0.00  0.00    +0.000 HD
ENDBRANCH  13  19
ENDBRANCH  12  13
ENDBRANCH   4  12
TORSDOF 4
ENDMDL
MODEL 2
REMARK VINA RESULT:      -6.9      1.681      1.780
REMARK  Name = 
REMARK  6 active torsions:
REMARK  status: ('A' for Active; 'I' for Inactive)
REMARK    1  A    between atoms: C_1  and  C_2
REMARK    2  A    between atoms: N_4  and  C_5
REMARK    3  A    between atoms: C_5  and  C_6
REMARK    4  A    between atoms: C_6  and  O_7
REMARK    5  A    between atoms: C_15  and  C_16
REMARK    6  A    between atoms: C_18  and  C_19
REMARK                            x       y       z     vdW  Elec       q    Type
REMARK                         _______ _______ _______ _____ _____    ______ ____
ROOT
ATOM      1  C   UNL     1       5.809   3.659  14.095  0.00  0.00    +0.000 C 
ATOM      2  C   UNL     1       5.800   4.064  15.554  0.00  0.00    +0.000 A 
ATOM      3  N   UNL     1       4.960   3.450  16.326  0.00  0.00    +0.000 NA
ATOM      4  N   UNL     1       4.873   3.835  17.642  0.00  0.00    +0.000 N 
ATOM      5  C   UNL     1       5.613   4.878  18.185  0.00  0.00    +0.000 A 
ATOM      6  O   UNL     1       5.455   5.307  19.326  0.00  0.00    +0.000 OA
ATOM      7  C   UNL     1       6.639   5.473  17.294  0.00  0.00    +0.000 A 
ATOM      8  C   UNL     1       6.731   5.138  15.998  0.00  0.00    +0.000 A 
ATOM      9  C   UNL     1       7.656   5.766  14.997  0.00  0.00    +0.000 C 
ENDROOT
BRANCH   7  10
ATOM     10  C   UNL     1       7.487   6.585  17.889  0.00  0.00    +0.000 C 
ATOM     11  N   UNL     1       8.190   7.508  18.383  0.00  0.00    +0.000 NA
ENDBRANCH   7  10
BRANCH   4  12
ATOM     12  C   UNL     1       3.927   3.093  18.488  0.00  0.00    +0.000 C 
BRANCH  12  13
ATOM     13  C   UNL     1       2.432   3.371  18.164  0.00  0.00    +0.000 C 
ATOM     14  C   UNL     1       1.518   2.393  18.925  0.00  0.00    +0.000 C 
ATOM     15  C   UNL     1       1.450   2.669  20.424  0.00  0.00    +0.000 C 
ATOM     16  C   UNL     1       1.056   4.114  20.711  0.00  0.00    +0.000 C 
ATOM     17  C   UNL     1       1.943   5.114  19.970  0.00  0.00    +0.000 C 
ATOM     18  C   UNL     1       2.004   4.816  18.473  0.00  0.00    +0.000 C 
BRANCH  13  19
ATOM     19  O   UNL     1       2.202   3.127  16.766  0.00  0.00    +0.000 OA
ATOM     20  H   UNL     1       1.577   2.372  16.725  0.00  0.00    +0.000 HD
ENDBRANCH  13  19
ENDBRANCH  12  13
ENDBRANCH   4  12
TORSDOF 4
ENDMDL
MODEL 3
REMARK VINA RESULT:      -6.8      1.617      1.859
REMARK  Name = 
REMARK  6 active torsions:
REMARK  status: ('A' for Active; 'I' for Inactive)
REMARK    1  A    between atoms: C_1  and  C_2
REMARK    2  A    between atoms: N_4  and  C_5
REMARK    3  A    between atoms: C_5  and  C_6
REMARK    4  A    between atoms: C_6  and  O_7
REMARK    5  A    between atoms: C_15  and  C_16
REMARK    6  A    between atoms: C_18  and  C_19
REMARK                            x       y       z     vdW  Elec       q    Type
REMARK                         _______ _______ _______ _____ _____    ______ ____
ROOT
ATOM      1  C   UNL     1       5.302   3.950  14.285  0.00  0.00    +0.000 C 
ATOM      2  C   UNL     1       5.168   4.295  15.754  0.00  0.00    +0.000 A 
ATOM      3  N   UNL     1       3.997   4.143  16.285  0.00  0.00    +0.000 NA
ATOM      4  N   UNL     1       3.817   4.509  17.598  0.00  0.00    +0.000 N 
ATOM      5  C   UNL     1       4.819   5.071  18.379  0.00  0.00    +0.000 A 
ATOM      6  O   UNL     1       4.636   5.511  19.512  0.00  0.00    +0.000 OA
ATOM      7  C   UNL     1       6.167   5.120  17.763  0.00  0.00    +0.000 A 
ATOM      8  C   UNL     1       6.369   4.796  16.477  0.00  0.00    +0.000 A 
ATOM      9  C   UNL     1       7.669   4.922  15.738  0.00  0.00    +0.000 C 
ENDROOT
BRANCH   7  10
ATOM     10  C   UNL     1       7.282   5.691  18.623  0.00  0.00    +0.000 C 
ATOM     11  N   UNL     1       8.207   6.166  19.337  0.00  0.00    +0.000 NA
ENDBRANCH   7  10
BRANCH   4  12
ATOM     12  C   UNL     1       2.480   4.293  18.168  0.00  0.00    +0.000 C 
BRANCH  12  13
ATOM     13  C   UNL     1       2.160   2.809  18.497  0.00  0.00    +0.000 C 
ATOM     14  C   UNL     1       3.218   2.220  19.449  0.00  0.00    +0.000 C 
ATOM     15  C   UNL     1       3.120   2.763  20.872  0.00  0.00    +0.000 C 
ATOM     16  C   UNL     1       1.718   2.588  21.445  0.00  0.00    +0.000 C 
ATOM     17  C   UNL     1       0.642   3.160  20.524  0.00  0.00    +0.000 C 
ATOM     18  C   UNL     1       0.760   2.610  19.104  0.00  0.00    +0.000 C 
BRANCH  13  19
ATOM     19  O   UNL     1       2.236   2.033  17.288  0.00  0.00    +0.000 OA
ATOM     20  H   UNL     1       1.564   1.325  17.381  0.00  0.00    +0.000 HD
ENDBRANCH  13  19
ENDBRANCH  12  13
ENDBRANCH   4  12
TORSDOF 4
ENDMDL
MODEL 4
REMARK VINA RESULT:      -6.5      1.925      2.418
REMARK  Name = 
REMARK  6 active torsions:
REMARK  status: ('A' for Active; 'I' for Inactive)
REMARK    1  A    between atoms: C_1  and  C_2
REMARK    2  A    between atoms: N_4  and  C_5
REMARK    3  A    between atoms: C_5  and  C_6
REMARK    4  A    between atoms: C_6  and  O_7
REMARK    5  A    between atoms: C_15  and  C_16
REMARK    6  A    between atoms: C_18  and  C_19
REMARK                            x       y       z     vdW  Elec       q    Type
REMARK                         _______ _______ _______ _____ _____    ______ ____
ROOT
ATOM      1  C   UNL     1       5.685   3.717  13.837  0.00  0.00    +0.000 C 
ATOM      2  C   UNL     1       5.499   4.324  15.212  0.00  0.00    +0.000 A 
ATOM      3  N   UNL     1       4.411   4.016  15.844  0.00  0.00    +0.000 NA
ATOM      4  N   UNL     1       4.173   4.599  17.065  0.00  0.00    +0.000 N 
ATOM      5  C   UNL     1       5.021   5.533  17.646  0.00  0.00    +0.000 A 
ATOM      6  O   UNL     1       4.757   6.148  18.677  0.00  0.00    +0.000 OA
ATOM      7  C   UNL     1       6.304   5.767  16.940  0.00  0.00    +0.000 A 
ATOM      8  C   UNL     1       6.555   5.235  15.734  0.00  0.00    +0.000 A 
ATOM      9  C   UNL     1       7.770   5.504  14.895  0.00  0.00    +0.000 C 
ENDROOT
BRANCH   7  10
ATOM     10  C   UNL     1       7.261   6.754  17.587  0.00  0.00    +0.000 C 
ATOM     11  N   UNL     1       8.055   7.573  18.124  0.00  0.00    +0.000 NA
ENDBRANCH   7  10
BRANCH   4  12
ATOM     12  C   UNL     1       2.939   4.201  17.759  0.00  0.00    +0.000 C 
BRANCH  12  13
ATOM     13  C   UNL     1       3.051   2.858  18.534  0.00  0.00    +0.000 C 
ATOM     14  C   UNL     1       3.553   3.096  19.970  0.00  0.00    +0.000 C 
ATOM     15  C   UNL     1       2.516   3.759  20.872  0.00  0.00    +0.000 C 
ATOM     16  C   UNL     1       1.201   2.985  20.879  0.00  0.00    +0.000 C 
ATOM     17  C   UNL     1       0.674   2.729  19.468  0.00  0.00    +0.000 C 
ATOM     18  C   UNL     1       1.728   2.073  18.579  0.00  0.00    +0.000 C 
BRANCH  13  19
ATOM     19  O   UNL     1       4.040   2.030  17.898  0.00  0.00    +0.000 OA
ATOM     20  H   UNL     1       3.543   1.305  17.463  0.00  0.00    +0.000 HD
ENDBRANCH  13  19
ENDBRANCH  12  13
ENDBRANCH   4  12
TORSDOF 4
ENDMDL
MODEL 5
REMARK VINA RESULT:      -6.5      1.793      3.164
REMARK  Name = 
REMARK  6 active torsions:
REMARK  status: ('A' for Active; 'I' for Inactive)
REMARK    1  A    between atoms: C_1  and  C_2
REMARK    2  A    between atoms: N_4  and  C_5
REMARK    3  A    between atoms: C_5  and  C_6
REMARK    4  A    between atoms: C_6  and  O_7
REMARK    5  A    between atoms: C_15  and  C_16
REMARK    6  A    between atoms: C_18  and  C_19
REMARK                            x       y       z     vdW  Elec       q    Type
REMARK                         _______ _______ _______ _____ _____    ______ ____
ROOT
ATOM      1  C   UNL     1       7.901   6.375  18.905  0.00  0.00    +0.000 C 
ATOM      2  C   UNL     1       6.792   5.519  18.330  0.00  0.00    +0.000 A 
ATOM      3  N   UNL     1       5.987   4.959  19.176  0.00  0.00    +0.000 NA
ATOM      4  N   UNL     1       5.009   4.121  18.697  0.00  0.00    +0.000 N 
ATOM      5  C   UNL     1       4.858   3.810  17.352  0.00  0.00    +0.000 A 
ATOM      6  O   UNL     1       4.067   2.970  16.929  0.00  0.00    +0.000 OA
ATOM      7  C   UNL     1       5.728   4.561  16.415  0.00  0.00    +0.000 A 
ATOM      8  C   UNL     1       6.710   5.365  16.851  0.00  0.00    +0.000 A 
ATOM      9  C   UNL     1       7.709   6.074  15.984  0.00  0.00    +0.000 C 
ENDROOT
BRANCH   7  10
ATOM     10  C   UNL     1       5.544   4.263  14.936  0.00  0.00    +0.000 C 
ATOM     11  N   UNL     1       5.391   4.017  13.709  0.00  0.00    +0.000 NA
ENDBRANCH   7  10
BRANCH   4  12
ATOM     12  C   UNL     1       4.101   3.529  19.690  0.00  0.00    +0.000 C 
BRANCH  12  13
ATOM     13  C   UNL     1       2.904   4.440  20.082  0.00  0.00    +0.000 C 
ATOM     14  C   UNL     1       1.867   4.496  18.945  0.00  0.00    +0.000 C 
ATOM     15  C   UNL     1       1.080   3.199  18.779  0.00  0.00    +0.000 C 
ATOM     16  C   UNL     1       0.428   2.765  20.087  0.00  0.00    +0.000 C 
ATOM     17  C   UNL     1       1.430   2.700  21.239  0.00  0.00    +0.000 C 
ATOM     18  C   UNL     1       2.212   4.004  21.385  0.00  0.00    +0.000 C 
BRANCH  13  19
ATOM     19  O   UNL     1       3.378   5.787  20.256  0.00  0.00    +0.000 OA
ATOM     20  H   UNL     1       4.344   5.755  20.089  0.00  0.00    +0.000 HD
ENDBRANCH  13  19
ENDBRANCH  12  13
ENDBRANCH   4  12
TORSDOF 4
ENDMDL
MODEL 6
REMARK VINA RESULT:      -6.4      2.176      5.545
REMARK  Name = 
REMARK  6 active torsions:
REMARK  status: ('A' for Active; 'I' for Inactive)
REMARK    1  A    between atoms: C_1  and  C_2
REMARK    2  A    between atoms: N_4  and  C_5
REMARK    3  A    between atoms: C_5  and  C_6
REMARK    4  A    between atoms: C_6  and  O_7
REMARK    5  A    between atoms: C_15  and  C_16
REMARK    6  A    between atoms: C_18  and  C_19
REMARK                            x       y       z     vdW  Elec       q    Type
REMARK                         _______ _______ _______ _____ _____    ______ ____
ROOT
ATOM      1  C   UNL     1       2.476   1.772  18.949  0.00  0.00    +0.000 C 
ATOM      2  C   UNL     1       2.687   3.266  18.810  0.00  0.00    +0.000 A 
ATOM      3  N   UNL     1       3.510   3.657  17.889  0.00  0.00    +0.000 NA
ATOM      4  N   UNL     1       3.780   5.000  17.776  0.00  0.00    +0.000 N 
ATOM      5  C   UNL     1       3.244   5.962  18.622  0.00  0.00    +0.000 A 
ATOM      6  O   UNL     1       3.572   7.147  18.605  0.00  0.00    +0.000 OA
ATOM      7  C   UNL     1       2.223   5.480  19.583  0.00  0.00    +0.000 A 
ATOM      8  C   UNL     1       1.957   4.174  19.737  0.00  0.00    +0.000 A 
ATOM      9  C   UNL     1       1.029   3.585  20.759  0.00  0.00    +0.000 C 
ENDROOT
BRANCH   7  10
ATOM     10  C   UNL     1       1.595   6.530  20.486  0.00  0.00    +0.000 C 
ATOM     11  N   UNL     1       1.074   7.400  21.234  0.00  0.00    +0.000 NA
ENDBRANCH   7  10
BRANCH   4  12
ATOM     12  C   UNL     1       4.698   5.401  16.701  0.00  0.00    +0.000 C 
BRANCH  12  13
ATOM     13  C   UNL     1       6.114   4.768  16.805  0.00  0.00    +0.000 C 
ATOM     14  C   UNL     1       7.176   5.703  16.198  0.00  0.00    +0.000 C 
ATOM     15  C   UNL     1       7.451   6.940  17.049  0.00  0.00    +0.000 C 
ATOM     16  C   UNL     1       7.813   6.567  18.482  0.00  0.00    +0.000 C 
ATOM     17  C   UNL     1       6.779   5.637  19.116  0.00  0.00    +0.000 C 
ATOM     18  C   UNL     1       6.513   4.410  18.247  0.00  0.00    +0.000 C 
BRANCH  13  19
ATOM     19  O   UNL     1       6.148   3.563  16.020  0.00  0.00    +0.000 OA
ATOM     20  H   UNL     1       5.567   2.925  16.484  0.00  0.00    +0.000 HD
ENDBRANCH  13  19
ENDBRANCH  12  13
ENDBRANCH   4  12
TORSDOF 4
ENDMDL
MODEL 7
REMARK VINA RESULT:      -6.3      2.042      3.359
REMARK  Name = 
REMARK  6 active torsions:
REMARK  status: ('A' for Active; 'I' for Inactive)
REMARK    1  A    between atoms: C_1  and  C_2
REMARK    2  A    between atoms: N_4  and  C_5
REMARK    3  A    between atoms: C_5  and  C_6
REMARK    4  A    between atoms: C_6  and  O_7
REMARK    5  A    between atoms: C_15  and  C_16
REMARK    6  A    between atoms: C_18  and  C_19
REMARK                            x       y       z     vdW  Elec       q    Type
REMARK                         _______ _______ _______ _____ _____    ______ ____
ROOT
ATOM      1  C   UNL     1       6.308   4.367  15.849  0.00  0.00    +0.000 C 
ATOM      2  C   UNL     1       5.430   4.955  16.934  0.00  0.00    +0.000 A 
ATOM      3  N   UNL     1       5.333   4.281  18.036  0.00  0.00    +0.000 NA
ATOM      4  N   UNL     1       4.493   4.746  19.019  0.00  0.00    +0.000 N 
ATOM      5  C   UNL     1       3.711   5.885  18.882  0.00  0.00    +0.000 A 
ATOM      6  O   UNL     1       2.870   6.241  19.705  0.00  0.00    +0.000 OA
ATOM      7  C   UNL     1       3.941   6.682  17.652  0.00  0.00    +0.000 A 
ATOM      8  C   UNL     1       4.733   6.242  16.663  0.00  0.00    +0.000 A 
ATOM      9  C   UNL     1       4.938   6.921  15.340  0.00  0.00    +0.000 C 
ENDROOT
BRANCH   7  10
ATOM     10  C   UNL     1       3.124   7.956  17.509  0.00  0.00    +0.000 C 
ATOM     11  N   UNL     1       2.447   9.012  17.390  0.00  0.00    +0.000 NA
ENDBRANCH   7  10
BRANCH   4  12
ATOM     12  C   UNL     1       4.433   3.964  20.263  0.00  0.00    +0.000 C 
BRANCH  12  13
ATOM     13  C   UNL     1       3.843   2.537  20.089  0.00  0.00    +0.000 C 
ATOM     14  C   UNL     1       3.061   2.113  21.346  0.00  0.00    +0.000 C 
ATOM     15  C   UNL     1       1.738   2.854  21.515  0.00  0.00    +0.000 C 
ATOM     16  C   UNL     1       0.866   2.737  20.269  0.00  0.00    +0.000 C 
ATOM     17  C   UNL     1       1.612   3.149  19.001  0.00  0.00    +0.000 C 
ATOM     18  C   UNL     1       2.936   2.403  18.854  0.00  0.00    +0.000 C 
BRANCH  13  19
ATOM     19  O   UNL     1       4.923   1.596  19.955  0.00  0.00    +0.000 OA
ATOM     20  H   UNL     1       4.632   0.786  20.425  0.00  0.00    +0.000 HD
ENDBRANCH  13  19
ENDBRANCH  12  13
ENDBRANCH   4  12
TORSDOF 4
ENDMDL
MODEL 8
REMARK VINA RESULT:      -6.3      2.397      5.102
REMARK  Name = 
REMARK  6 active torsions:
REMARK  status: ('A' for Active; 'I' for Inactive)
REMARK    1  A    between atoms: C_1  and  C_2
REMARK    2  A    between atoms: N_4  and  C_5
REMARK    3  A    between atoms: C_5  and  C_6
REMARK    4  A    between atoms: C_6  and  O_7
REMARK    5  A    between atoms: C_15  and  C_16
REMARK    6  A    between atoms: C_18  and  C_19
REMARK                            x       y       z     vdW  Elec       q    Type
REMARK                         _______ _______ _______ _____ _____    ______ ____
ROOT
ATOM      1  C   UNL     1       1.877   8.572  18.624  0.00  0.00    +0.000 C 
ATOM      2  C   UNL     1       2.425   7.164  18.727  0.00  0.00    +0.000 A 
ATOM      3  N   UNL     1       3.126   6.734  17.726  0.00  0.00    +0.000 NA
ATOM      4  N   UNL     1       3.585   5.439  17.751  0.00  0.00    +0.000 N 
ATOM      5  C   UNL     1       3.305   4.549  18.780  0.00  0.00    +0.000 A 
ATOM      6  O   UNL     1       3.608   3.357  18.754  0.00  0.00    +0.000 OA
ATOM      7  C   UNL     1       2.598   5.118  19.952  0.00  0.00    +0.000 A 
ATOM      8  C   UNL     1       2.114   6.369  19.947  0.00  0.00    +0.000 A 
ATOM      9  C   UNL     1       1.290   6.992  21.036  0.00  0.00    +0.000 C 
ENDROOT
BRANCH   7  10
ATOM     10  C   UNL     1       2.325   4.166  21.105  0.00  0.00    +0.000 C 
ATOM     11  N   UNL     1       2.099   3.375  22.060  0.00  0.00    +0.000 NA
ENDBRANCH   7  10
BRANCH   4  12
ATOM     12  C   UNL     1       4.398   5.003  16.607  0.00  0.00    +0.000 C 
BRANCH  12  13
ATOM     13  C   UNL     1       5.617   5.919  16.307  0.00  0.00    +0.000 C 
ATOM     14  C   UNL     1       6.023   6.717  17.561  0.00  0.00    +0.000 C 
ATOM     15  C   UNL     1       6.681   5.858  18.637  0.00  0.00    +0.000 C 
ATOM     16  C   UNL     1       7.869   5.077  18.084  0.00  0.00    +0.000 C 
ATOM     17  C   UNL     1       7.502   4.274  16.837  0.00  0.00    +0.000 C 
ATOM     18  C   UNL     1       6.838   5.149  15.775  0.00  0.00    +0.000 C 
BRANCH  13  19
ATOM     19  O   UNL     1       5.239   6.894  15.319  0.00  0.00    +0.000 OA
ATOM     20  H   UNL     1       4.352   7.217  15.587  0.00  0.00    +0.000 HD
ENDBRANCH  13  19
ENDBRANCH  12  13
ENDBRANCH   4  12
TORSDOF 4
ENDMDL
MODEL 9
REMARK VINA RESULT:      -6.3      2.066      2.806
REMARK  Name = 
REMARK  6 active torsions:
REMARK  status: ('A' for Active; 'I' for Inactive)
REMARK    1  A    between atoms: C_1  and  C_2
REMARK    2  A    between atoms: N_4  and  C_5
REMARK    3  A    between atoms: C_5  and  C_6
REMARK    4  A    between atoms: C_6  and  O_7
REMARK    5  A    between atoms: C_15  and  C_16
REMARK    6  A    between atoms: C_18  and  C_19
REMARK                            x       y       z     vdW  Elec       q    Type
REMARK                         _______ _______ _______ _____ _____    ______ ____
ROOT
ATOM      1  C   UNL     1       2.681   7.848  17.522  0.00  0.00    +0.000 C 
ATOM      2  C   UNL     1       3.650   6.707  17.750  0.00  0.00    +0.000 A 
ATOM      3  N   UNL     1       3.502   6.023  18.840  0.00  0.00    +0.000 NA
ATOM      4  N   UNL     1       4.403   5.023  19.117  0.00  0.00    +0.000 N 
ATOM      5  C   UNL     1       5.492   4.728  18.306  0.00  0.00    +0.000 A 
ATOM      6  O   UNL     1       6.368   3.919  18.606  0.00  0.00    +0.000 OA
ATOM      7  C   UNL     1       5.554   5.459  17.017  0.00  0.00    +0.000 A 
ATOM      8  C   UNL     1       4.706   6.458  16.730  0.00  0.00    +0.000 A 
ATOM      9  C   UNL     1       4.762   7.327  15.507  0.00  0.00    +0.000 C 
ENDROOT
BRANCH   7  10
ATOM     10  C   UNL     1       6.715   5.114  16.100  0.00  0.00    +0.000 C 
ATOM     11  N   UNL     1       7.678   4.828  15.338  0.00  0.00    +0.000 NA
ENDBRANCH   7  10
BRANCH   4  12
ATOM     12  C   UNL     1       4.181   4.256  20.351  0.00  0.00    +0.000 C 
BRANCH  12  13
ATOM     13  C   UNL     1       3.691   2.800  20.116  0.00  0.00    +0.000 C 
ATOM     14  C   UNL     1       2.779   2.338  21.267  0.00  0.00    +0.000 C 
ATOM     15  C   UNL     1       1.409   3.010  21.260  0.00  0.00    +0.000 C 
ATOM     16  C   UNL     1       0.709   2.847  19.915  0.00  0.00    +0.000 C 
ATOM     17  C   UNL     1       1.588   3.295  18.748  0.00  0.00    +0.000 C 
ATOM     18  C   UNL     1       2.956   2.617  18.776  0.00  0.00    +0.000 C 
BRANCH  13  19
ATOM     19  O   UNL     1       4.826   1.916  20.126  0.00  0.00    +0.000 OA
ATOM     20  H   UNL     1       4.477   1.035  20.380  0.00  0.00    +0.000 HD
ENDBRANCH  13  19
ENDBRANCH  12  13
ENDBRANCH   4  12
TORSDOF 4
ENDMDL
