MODEL 1
REMARK VINA RESULT:      -7.6      0.000      0.000
REMARK  Name = 
REMARK  10 active torsions:
REMARK  status: ('A' for Active; 'I' for Inactive)
REMARK    1  A    between atoms: C_1  and  C_2
REMARK    2  A    between atoms: C_2  and  C_3
REMARK    3  A    between atoms: C_5  and  C_6
REMARK    4  A    between atoms: C_7  and  C_8
REMARK    5  A    between atoms: C_8  and  N_9
REMARK    6  A    between atoms: C_12  and  C_13
REMARK    7  A    between atoms: C_13  and  C_14
REMARK    8  A    between atoms: C_14  and  C_15
REMARK    9  A    between atoms: N_17  and  C_18
REMARK   10  A    between atoms: C_18  and  C_19
REMARK                            x       y       z     vdW  Elec       q    Type
REMARK                         _______ _______ _______ _____ _____    ______ ____
ROOT
ATOM      1  N   UNL     1       1.695   5.821  19.630  0.00  0.00    +0.000 NA
ATOM      2  C   UNL     1       2.164   5.594  18.252  0.00  0.00    +0.000 C 
ATOM      3  C   UNL     1       1.782   4.224  17.668  0.00  0.00    +0.000 C 
ATOM      4  C   UNL     1       2.141   3.018  18.552  0.00  0.00    +0.000 C 
ATOM      5  C   UNL     1       1.628   3.303  19.967  0.00  0.00    +0.000 C 
ATOM      6  C   UNL     1       2.022   4.682  20.511  0.00  0.00    +0.000 C 
ENDROOT
BRANCH   1   7
ATOM      7  C   UNL     1       2.315   7.054  20.194  0.00  0.00    +0.000 C 
BRANCH   7  12
ATOM      8  C   UNL     1       0.092   9.634  21.511  0.00  0.00    +0.000 A 
ATOM      9  N   UNL     1       0.140  10.099  20.284  0.00  0.00    +0.000 NA
ATOM     10  C   UNL     1       0.953   9.245  19.582  0.00  0.00    +0.000 A 
ATOM     11  C   UNL     1       1.281   9.587  18.180  0.00  0.00    +0.000 C 
ATOM     12  C   UNL     1       1.372   8.207  20.399  0.00  0.00    +0.000 A 
ATOM     13  N   UNL     1       0.806   8.473  21.619  0.00  0.00    +0.000 N 
ATOM     14  H   UNL     1       0.943   7.917  22.452  0.00  0.00    +0.000 HD
BRANCH   8  16
ATOM     15  C   UNL     1      -0.694  11.803  22.390  0.00  0.00    +0.000 C 
ATOM     16  C   UNL     1      -0.576  10.309  22.653  0.00  0.00    +0.000 C 
ENDBRANCH   8  16
ENDBRANCH   7  12
ENDBRANCH   1   7
BRANCH   4  17
ATOM     17  C   UNL     1       3.633   2.597  18.458  0.00  0.00    +0.000 C 
BRANCH  17  18
ATOM     18  C   UNL     1       4.506   3.146  19.607  0.00  0.00    +0.000 C 
BRANCH  18  19
ATOM     19  C   UNL     1       5.444   4.283  19.199  0.00  0.00    +0.000 C 
ATOM     20  O   UNL     1       5.351   5.423  19.624  0.00  0.00    +0.000 OA
ATOM     21  N   UNL     1       6.425   3.875  18.315  0.00  0.00    +0.000 N 
ATOM     22  H   UNL     1       6.327   2.984  17.847  0.00  0.00    +0.000 HD
BRANCH  21  23
ATOM     23  C   UNL     1       7.425   4.788  17.763  0.00  0.00    +0.000 C 
BRANCH  23  24
ATOM     24  C   UNL     1       7.209   5.075  16.265  0.00  0.00    +0.000 C 
ATOM     25  C   UNL     1       6.279   4.066  15.597  0.00  0.00    +0.000 C 
ATOM     26  C   UNL     1       4.921   4.710  15.731  0.00  0.00    +0.000 C 
ATOM     27  C   UNL     1       5.262   6.173  15.553  0.00  0.00    +0.000 C 
ATOM     28  O   UNL     1       6.563   6.364  16.128  0.00  0.00    +0.000 OA
ENDBRANCH  23  24
ENDBRANCH  21  23
ENDBRANCH  18  19
ENDBRANCH  17  18
ENDBRANCH   4  17
TORSDOF 8
ENDMDL
MODEL 2
REMARK VINA RESULT:      -7.5      2.266      7.645
REMARK  Name = 
REMARK  10 active torsions:
REMARK  status: ('A' for Active; 'I' for Inactive)
REMARK    1  A    between atoms: C_1  and  C_2
REMARK    2  A    between atoms: C_2  and  C_3
REMARK    3  A    between atoms: C_5  and  C_6
REMARK    4  A    between atoms: C_7  and  C_8
REMARK    5  A    between atoms: C_8  and  N_9
REMARK    6  A    between atoms: C_12  and  C_13
REMARK    7  A    between atoms: C_13  and  C_14
REMARK    8  A    between atoms: C_14  and  C_15
REMARK    9  A    between atoms: N_17  and  C_18
REMARK   10  A    between atoms: C_18  and  C_19
REMARK                            x       y       z     vdW  Elec       q    Type
REMARK                         _______ _______ _______ _____ _____    ______ ____
ROOT
ATOM      1  N   UNL     1       3.902   3.748  17.620  0.00  0.00    +0.000 NA
ATOM      2  C   UNL     1       4.652   3.779  18.887  0.00  0.00    +0.000 C 
ATOM      3  C   UNL     1       4.251   2.686  19.890  0.00  0.00    +0.000 C 
ATOM      4  C   UNL     1       2.743   2.585  20.173  0.00  0.00    +0.000 C 
ATOM      5  C   UNL     1       2.013   2.552  18.828  0.00  0.00    +0.000 C 
ATOM      6  C   UNL     1       2.446   3.652  17.851  0.00  0.00    +0.000 C 
ENDROOT
BRANCH   1   7
ATOM      7  C   UNL     1       4.178   4.977  16.821  0.00  0.00    +0.000 C 
BRANCH   7  12
ATOM      8  C   UNL     1       6.621   4.556  14.139  0.00  0.00    +0.000 A 
ATOM      9  N   UNL     1       7.431   5.159  14.978  0.00  0.00    +0.000 NA
ATOM     10  C   UNL     1       6.692   5.419  16.105  0.00  0.00    +0.000 A 
ATOM     11  C   UNL     1       7.326   6.199  17.191  0.00  0.00    +0.000 C 
ATOM     12  C   UNL     1       5.410   4.915  15.960  0.00  0.00    +0.000 A 
ATOM     13  N   UNL     1       5.389   4.366  14.704  0.00  0.00    +0.000 N 
ATOM     14  H   UNL     1       4.581   3.939  14.273  0.00  0.00    +0.000 HD
BRANCH   8  16
ATOM     15  C   UNL     1       5.971   3.170  12.203  0.00  0.00    +0.000 C 
ATOM     16  C   UNL     1       6.957   4.197  12.738  0.00  0.00    +0.000 C 
ENDBRANCH   8  16
ENDBRANCH   7  12
ENDBRANCH   1   7
BRANCH   4  17
ATOM     17  C   UNL     1       2.227   3.646  21.184  0.00  0.00    +0.000 C 
BRANCH  17  18
ATOM     18  C   UNL     1       1.245   4.665  20.566  0.00  0.00    +0.000 C 
BRANCH  18  19
ATOM     19  C   UNL     1       1.791   6.091  20.473  0.00  0.00    +0.000 C 
ATOM     20  O   UNL     1       2.782   6.395  19.831  0.00  0.00    +0.000 OA
ATOM     21  N   UNL     1       1.025   7.002  21.175  0.00  0.00    +0.000 N 
ATOM     22  H   UNL     1       0.348   6.664  21.846  0.00  0.00    +0.000 HD
BRANCH  21  23
ATOM     23  C   UNL     1       1.359   8.423  21.256  0.00  0.00    +0.000 C 
BRANCH  23  24
ATOM     24  C   UNL     1       0.245   9.331  20.702  0.00  0.00    +0.000 C 
ATOM     25  C   UNL     1       0.098  10.633  21.485  0.00  0.00    +0.000 C 
ATOM     26  C   UNL     1       0.998  11.586  20.736  0.00  0.00    +0.000 C 
ATOM     27  C   UNL     1       0.790  11.136  19.306  0.00  0.00    +0.000 C 
ATOM     28  O   UNL     1       0.588   9.716  19.349  0.00  0.00    +0.000 OA
ENDBRANCH  23  24
ENDBRANCH  21  23
ENDBRANCH  18  19
ENDBRANCH  17  18
ENDBRANCH   4  17
TORSDOF 8
ENDMDL
MODEL 3
REMARK VINA RESULT:      -7.5      2.196      7.769
REMARK  Name = 
REMARK  10 active torsions:
REMARK  status: ('A' for Active; 'I' for Inactive)
REMARK    1  A    between atoms: C_1  and  C_2
REMARK    2  A    between atoms: C_2  and  C_3
REMARK    3  A    between atoms: C_5  and  C_6
REMARK    4  A    between atoms: C_7  and  C_8
REMARK    5  A    between atoms: C_8  and  N_9
REMARK    6  A    between atoms: C_12  and  C_13
REMARK    7  A    between atoms: C_13  and  C_14
REMARK    8  A    between atoms: C_14  and  C_15
REMARK    9  A    between atoms: N_17  and  C_18
REMARK   10  A    between atoms: C_18  and  C_19
REMARK                            x       y       z     vdW  Elec       q    Type
REMARK                         _______ _______ _______ _____ _____    ______ ____
ROOT
ATOM      1  N   UNL     1       4.174   3.349  17.865  0.00  0.00    +0.000 NA
ATOM      2  C   UNL     1       3.707   2.515  18.986  0.00  0.00    +0.000 C 
ATOM      3  C   UNL     1       2.220   2.133  18.918  0.00  0.00    +0.000 C 
ATOM      4  C   UNL     1       1.255   3.310  18.701  0.00  0.00    +0.000 C 
ATOM      5  C   UNL     1       1.782   4.139  17.526  0.00  0.00    +0.000 C 
ATOM      6  C   UNL     1       3.271   4.494  17.626  0.00  0.00    +0.000 C 
ENDROOT
BRANCH   1   7
ATOM      7  C   UNL     1       5.543   3.871  18.140  0.00  0.00    +0.000 C 
BRANCH   7  12
ATOM      8  C   UNL     1       6.781   4.777  14.825  0.00  0.00    +0.000 A 
ATOM      9  N   UNL     1       7.353   5.770  15.469  0.00  0.00    +0.000 NA
ATOM     10  C   UNL     1       7.010   5.619  16.789  0.00  0.00    +0.000 A 
ATOM     11  C   UNL     1       7.429   6.669  17.743  0.00  0.00    +0.000 C 
ATOM     12  C   UNL     1       6.246   4.475  16.955  0.00  0.00    +0.000 A 
ATOM     13  N   UNL     1       6.119   3.953  15.693  0.00  0.00    +0.000 N 
ATOM     14  H   UNL     1       5.587   3.126  15.461  0.00  0.00    +0.000 HD
BRANCH   8  16
ATOM     15  C   UNL     1       5.982   3.371  12.961  0.00  0.00    +0.000 C 
ATOM     16  C   UNL     1       6.779   4.607  13.351  0.00  0.00    +0.000 C 
ENDBRANCH   8  16
ENDBRANCH   7  12
ENDBRANCH   1   7
BRANCH   4  17
ATOM     17  C   UNL     1       0.949   4.112  19.996  0.00  0.00    +0.000 C 
BRANCH  17  18
ATOM     18  C   UNL     1       2.180   4.835  20.584  0.00  0.00    +0.000 C 
BRANCH  18  19
ATOM     19  C   UNL     1       2.177   6.351  20.381  0.00  0.00    +0.000 C 
ATOM     20  O   UNL     1       2.853   6.923  19.542  0.00  0.00    +0.000 OA
ATOM     21  N   UNL     1       1.307   7.002  21.235  0.00  0.00    +0.000 N 
ATOM     22  H   UNL     1       0.936   6.506  22.034  0.00  0.00    +0.000 HD
BRANCH  21  23
ATOM     23  C   UNL     1       1.147   8.456  21.247  0.00  0.00    +0.000 C 
BRANCH  23  24
ATOM     24  C   UNL     1      -0.315   8.894  21.452  0.00  0.00    +0.000 C 
ATOM     25  C   UNL     1      -0.539   9.610  22.781  0.00  0.00    +0.000 C 
ATOM     26  C   UNL     1      -0.342  11.064  22.425  0.00  0.00    +0.000 C 
ATOM     27  C   UNL     1      -0.941  11.117  21.036  0.00  0.00    +0.000 C 
ATOM     28  O   UNL     1      -0.663   9.850  20.421  0.00  0.00    +0.000 OA
ENDBRANCH  23  24
ENDBRANCH  21  23
ENDBRANCH  18  19
ENDBRANCH  17  18
ENDBRANCH   4  17
TORSDOF 8
ENDMDL
MODEL 4
REMARK VINA RESULT:      -7.5      2.238      7.124
REMARK  Name = 
REMARK  10 active torsions:
REMARK  status: ('A' for Active; 'I' for Inactive)
REMARK    1  A    between atoms: C_1  and  C_2
REMARK    2  A    between atoms: C_2  and  C_3
REMARK    3  A    between atoms: C_5  and  C_6
REMARK    4  A    between atoms: C_7  and  C_8
REMARK    5  A    between atoms: C_8  and  N_9
REMARK    6  A    between atoms: C_12  and  C_13
REMARK    7  A    between atoms: C_13  and  C_14
REMARK    8  A    between atoms: C_14  and  C_15
REMARK    9  A    between atoms: N_17  and  C_18
REMARK   10  A    between atoms: C_18  and  C_19
REMARK                            x       y       z     vdW  Elec       q    Type
REMARK                         _______ _______ _______ _____ _____    ______ ____
ROOT
ATOM      1  N   UNL     1       3.873   3.251  17.494  0.00  0.00    +0.000 NA
ATOM      2  C   UNL     1       4.289   3.826  18.785  0.00  0.00    +0.000 C 
ATOM      3  C   UNL     1       3.912   2.977  20.010  0.00  0.00    +0.000 C 
ATOM      4  C   UNL     1       2.437   2.549  20.075  0.00  0.00    +0.000 C 
ATOM      5  C   UNL     1       2.059   1.956  18.714  0.00  0.00    +0.000 C 
ATOM      6  C   UNL     1       2.459   2.827  17.517  0.00  0.00    +0.000 C 
ENDROOT
BRANCH   1   7
ATOM      7  C   UNL     1       4.056   4.246  16.399  0.00  0.00    +0.000 C 
BRANCH   7  12
ATOM      8  C   UNL     1       7.002   6.225  17.264  0.00  0.00    +0.000 A 
ATOM      9  N   UNL     1       7.445   5.807  16.100  0.00  0.00    +0.000 NA
ATOM     10  C   UNL     1       6.456   5.016  15.574  0.00  0.00    +0.000 A 
ATOM     11  C   UNL     1       6.727   4.312  14.301  0.00  0.00    +0.000 C 
ATOM     12  C   UNL     1       5.362   4.992  16.424  0.00  0.00    +0.000 A 
ATOM     13  N   UNL     1       5.730   5.773  17.489  0.00  0.00    +0.000 N 
ATOM     14  H   UNL     1       5.162   5.937  18.309  0.00  0.00    +0.000 HD
BRANCH   8  16
ATOM     15  C   UNL     1       8.038   8.418  17.719  0.00  0.00    +0.000 C 
ATOM     16  C   UNL     1       7.790   7.012  18.244  0.00  0.00    +0.000 C 
ENDBRANCH   8  16
ENDBRANCH   7  12
ENDBRANCH   1   7
BRANCH   4  17
ATOM     17  C   UNL     1       1.487   3.660  20.602  0.00  0.00    +0.000 C 
BRANCH  17  18
ATOM     18  C   UNL     1       2.226   4.912  21.122  0.00  0.00    +0.000 C 
BRANCH  18  19
ATOM     19  C   UNL     1       1.990   6.174  20.291  0.00  0.00    +0.000 C 
ATOM     20  O   UNL     1       2.072   6.209  19.075  0.00  0.00    +0.000 OA
ATOM     21  N   UNL     1       1.647   7.266  21.066  0.00  0.00    +0.000 N 
ATOM     22  H   UNL     1       1.795   7.227  22.066  0.00  0.00    +0.000 HD
BRANCH  21  23
ATOM     23  C   UNL     1       1.396   8.591  20.501  0.00  0.00    +0.000 C 
BRANCH  23  24
ATOM     24  C   UNL     1      -0.019   9.115  20.814  0.00  0.00    +0.000 C 
ATOM     25  C   UNL     1      -0.573   8.576  22.130  0.00  0.00    +0.000 C 
ATOM     26  C   UNL     1      -0.158   9.626  23.132  0.00  0.00    +0.000 C 
ATOM     27  C   UNL     1      -0.303  10.893  22.318  0.00  0.00    +0.000 C 
ATOM     28  O   UNL     1       0.042  10.554  20.967  0.00  0.00    +0.000 OA
ENDBRANCH  23  24
ENDBRANCH  21  23
ENDBRANCH  18  19
ENDBRANCH  17  18
ENDBRANCH   4  17
TORSDOF 8
ENDMDL
MODEL 5
REMARK VINA RESULT:      -7.4      2.744      7.779
REMARK  Name = 
REMARK  10 active torsions:
REMARK  status: ('A' for Active; 'I' for Inactive)
REMARK    1  A    between atoms: C_1  and  C_2
REMARK    2  A    between atoms: C_2  and  C_3
REMARK    3  A    between atoms: C_5  and  C_6
REMARK    4  A    between atoms: C_7  and  C_8
REMARK    5  A    between atoms: C_8  and  N_9
REMARK    6  A    between atoms: C_12  and  C_13
REMARK    7  A    between atoms: C_13  and  C_14
REMARK    8  A    between atoms: C_14  and  C_15
REMARK    9  A    between atoms: N_17  and  C_18
REMARK   10  A    between atoms: C_18  and  C_19
REMARK                            x       y       z     vdW  Elec       q    Type
REMARK                         _______ _______ _______ _____ _____    ______ ____
ROOT
ATOM      1  N   UNL     1       4.355   3.834  18.385  0.00  0.00    +0.000 NA
ATOM      2  C   UNL     1       3.926   3.319  19.697  0.00  0.00    +0.000 C 
ATOM      3  C   UNL     1       2.412   3.084  19.824  0.00  0.00    +0.000 C 
ATOM      4  C   UNL     1       1.533   4.277  19.413  0.00  0.00    +0.000 C 
ATOM      5  C   UNL     1       2.016   4.769  18.046  0.00  0.00    +0.000 C 
ATOM      6  C   UNL     1       3.532   4.984  17.956  0.00  0.00    +0.000 C 
ENDROOT
BRANCH   1   7
ATOM      7  C   UNL     1       5.782   4.262  18.436  0.00  0.00    +0.000 C 
BRANCH   7  12
ATOM      8  C   UNL     1       6.793   4.535  14.937  0.00  0.00    +0.000 A 
ATOM      9  N   UNL     1       7.310   5.677  15.326  0.00  0.00    +0.000 NA
ATOM     10  C   UNL     1       7.040   5.784  16.667  0.00  0.00    +0.000 A 
ATOM     11  C   UNL     1       7.415   7.038  17.356  0.00  0.00    +0.000 C 
ATOM     12  C   UNL     1       6.380   4.650  17.111  0.00  0.00    +0.000 A 
ATOM     13  N   UNL     1       6.239   3.867  15.995  0.00  0.00    +0.000 N 
ATOM     14  H   UNL     1       5.766   2.975  15.971  0.00  0.00    +0.000 HD
BRANCH   8  16
ATOM     15  C   UNL     1       5.302   3.759  13.129  0.00  0.00    +0.000 C 
ATOM     16  C   UNL     1       6.738   4.058  13.532  0.00  0.00    +0.000 C 
ENDBRANCH   8  16
ENDBRANCH   7  12
ENDBRANCH   1   7
BRANCH   4  17
ATOM     17  C   UNL     1       1.414   5.371  20.509  0.00  0.00    +0.000 C 
BRANCH  17  18
ATOM     18  C   UNL     1       2.192   6.664  20.182  0.00  0.00    +0.000 C 
BRANCH  18  19
ATOM     19  C   UNL     1       1.511   7.948  20.660  0.00  0.00    +0.000 C 
ATOM     20  O   UNL     1       1.178   8.148  21.817  0.00  0.00    +0.000 OA
ATOM     21  N   UNL     1       1.337   8.869  19.645  0.00  0.00    +0.000 N 
ATOM     22  H   UNL     1       1.442   8.570  18.684  0.00  0.00    +0.000 HD
BRANCH  21  23
ATOM     23  C   UNL     1       0.688  10.163  19.851  0.00  0.00    +0.000 C 
BRANCH  23  24
ATOM     24  C   UNL     1       0.204  10.804  18.536  0.00  0.00    +0.000 C 
ATOM     25  C   UNL     1      -1.277  10.554  18.264  0.00  0.00    +0.000 C 
ATOM     26  C   UNL     1      -1.948  11.754  18.886  0.00  0.00    +0.000 C 
ATOM     27  C   UNL     1      -0.947  12.848  18.585  0.00  0.00    +0.000 C 
ATOM     28  O   UNL     1       0.353  12.242  18.639  0.00  0.00    +0.000 OA
ENDBRANCH  23  24
ENDBRANCH  21  23
ENDBRANCH  18  19
ENDBRANCH  17  18
ENDBRANCH   4  17
TORSDOF 8
ENDMDL
MODEL 6
REMARK VINA RESULT:      -7.4      3.921      8.322
REMARK  Name = 
REMARK  10 active torsions:
REMARK  status: ('A' for Active; 'I' for Inactive)
REMARK    1  A    between atoms: C_1  and  C_2
REMARK    2  A    between atoms: C_2  and  C_3
REMARK    3  A    between atoms: C_5  and  C_6
REMARK    4  A    between atoms: C_7  and  C_8
REMARK    5  A    between atoms: C_8  and  N_9
REMARK    6  A    between atoms: C_12  and  C_13
REMARK    7  A    between atoms: C_13  and  C_14
REMARK    8  A    between atoms: C_14  and  C_15
REMARK    9  A    between atoms: N_17  and  C_18
REMARK   10  A    between atoms: C_18  and  C_19
REMARK                            x       y       z     vdW  Elec       q    Type
REMARK                         _______ _______ _______ _____ _____    ______ ____
ROOT
ATOM      1  N   UNL     1       7.033   5.668  15.989  0.00  0.00    +0.000 NA
ATOM      2  C   UNL     1       6.733   6.804  16.876  0.00  0.00    +0.000 C 
ATOM      3  C   UNL     1       7.691   6.951  18.068  0.00  0.00    +0.000 C 
ATOM      4  C   UNL     1       7.895   5.674  18.900  0.00  0.00    +0.000 C 
ATOM      5  C   UNL     1       8.208   4.529  17.933  0.00  0.00    +0.000 C 
ATOM      6  C   UNL     1       7.235   4.419  16.752  0.00  0.00    +0.000 C 
ENDROOT
BRANCH   1   7
ATOM      7  C   UNL     1       5.922   5.458  15.017  0.00  0.00    +0.000 C 
BRANCH   7  12
ATOM      8  C   UNL     1       6.033   3.164  12.177  0.00  0.00    +0.000 A 
ATOM      9  N   UNL     1       7.122   3.830  11.867  0.00  0.00    +0.000 NA
ATOM     10  C   UNL     1       7.281   4.781  12.843  0.00  0.00    +0.000 A 
ATOM     11  C   UNL     1       8.380   5.760  12.691  0.00  0.00    +0.000 C 
ATOM     12  C   UNL     1       6.284   4.656  13.797  0.00  0.00    +0.000 A 
ATOM     13  N   UNL     1       5.506   3.617  13.355  0.00  0.00    +0.000 N 
ATOM     14  H   UNL     1       4.667   3.289  13.813  0.00  0.00    +0.000 HD
BRANCH   8  16
ATOM     15  C   UNL     1       6.385   0.980  11.083  0.00  0.00    +0.000 C 
ATOM     16  C   UNL     1       5.405   2.117  11.333  0.00  0.00    +0.000 C 
ENDBRANCH   8  16
ENDBRANCH   7  12
ENDBRANCH   1   7
BRANCH   4  17
ATOM     17  C   UNL     1       6.747   5.397  19.909  0.00  0.00    +0.000 C 
BRANCH  17  18
ATOM     18  C   UNL     1       5.338   5.474  19.282  0.00  0.00    +0.000 C 
BRANCH  18  19
ATOM     19  C   UNL     1       4.668   4.116  19.067  0.00  0.00    +0.000 C 
ATOM     20  O   UNL     1       4.969   3.107  19.684  0.00  0.00    +0.000 OA
ATOM     21  N   UNL     1       3.665   4.160  18.117  0.00  0.00    +0.000 N 
ATOM     22  H   UNL     1       3.602   4.961  17.503  0.00  0.00    +0.000 HD
BRANCH  21  23
ATOM     23  C   UNL     1       2.895   2.981  17.722  0.00  0.00    +0.000 C 
BRANCH  23  24
ATOM     24  C   UNL     1       1.461   2.988  18.284  0.00  0.00    +0.000 C 
ATOM     25  C   UNL     1       1.243   1.932  19.364  0.00  0.00    +0.000 C 
ATOM     26  C   UNL     1       1.555   2.676  20.640  0.00  0.00    +0.000 C 
ATOM     27  C   UNL     1       1.011   4.053  20.326  0.00  0.00    +0.000 C 
ATOM     28  O   UNL     1       1.219   4.266  18.922  0.00  0.00    +0.000 OA
ENDBRANCH  23  24
ENDBRANCH  21  23
ENDBRANCH  18  19
ENDBRANCH  17  18
ENDBRANCH   4  17
TORSDOF 8
ENDMDL
MODEL 7
REMARK VINA RESULT:      -7.3      1.042      1.254
REMARK  Name = 
REMARK  10 active torsions:
REMARK  status: ('A' for Active; 'I' for Inactive)
REMARK    1  A    between atoms: C_1  and  C_2
REMARK    2  A    between atoms: C_2  and  C_3
REMARK    3  A    between atoms: C_5  and  C_6
REMARK    4  A    between atoms: C_7  and  C_8
REMARK    5  A    between atoms: C_8  and  N_9
REMARK    6  A    between atoms: C_12  and  C_13
REMARK    7  A    between atoms: C_13  and  C_14
REMARK    8  A    between atoms: C_14  and  C_15
REMARK    9  A    between atoms: N_17  and  C_18
REMARK   10  A    between atoms: C_18  and  C_19
REMARK                            x       y       z     vdW  Elec       q    Type
REMARK                         _______ _______ _______ _____ _____    ______ ____
ROOT
ATOM      1  N   UNL     1       1.630   5.444  19.932  0.00  0.00    +0.000 NA
ATOM      2  C   UNL     1       1.892   5.001  18.552  0.00  0.00    +0.000 C 
ATOM      3  C   UNL     1       1.318   3.617  18.208  0.00  0.00    +0.000 C 
ATOM      4  C   UNL     1       1.683   2.498  19.198  0.00  0.00    +0.000 C 
ATOM      5  C   UNL     1       1.388   3.007  20.612  0.00  0.00    +0.000 C 
ATOM      6  C   UNL     1       1.970   4.394  20.914  0.00  0.00    +0.000 C 
ENDROOT
BRANCH   1   7
ATOM      7  C   UNL     1       2.425   6.665  20.246  0.00  0.00    +0.000 C 
BRANCH   7  12
ATOM      8  C   UNL     1       0.511   9.690  20.973  0.00  0.00    +0.000 A 
ATOM      9  N   UNL     1       0.748   9.969  19.711  0.00  0.00    +0.000 NA
ATOM     10  C   UNL     1       1.483   8.921  19.218  0.00  0.00    +0.000 A 
ATOM     11  C   UNL     1       1.993   9.016  17.832  0.00  0.00    +0.000 C 
ATOM     12  C   UNL     1       1.656   7.957  20.199  0.00  0.00    +0.000 A 
ATOM     13  N   UNL     1       1.024   8.466  21.304  0.00  0.00    +0.000 N 
ATOM     14  H   UNL     1       0.992   8.017  22.208  0.00  0.00    +0.000 HD
BRANCH   8  16
ATOM     15  C   UNL     1      -0.431   9.879  23.246  0.00  0.00    +0.000 C 
ATOM     16  C   UNL     1      -0.150  10.604  21.938  0.00  0.00    +0.000 C 
ENDBRANCH   8  16
ENDBRANCH   7  12
ENDBRANCH   1   7
BRANCH   4  17
ATOM     17  C   UNL     1       3.107   1.917  18.984  0.00  0.00    +0.000 C 
BRANCH  17  18
ATOM     18  C   UNL     1       3.837   2.499  17.755  0.00  0.00    +0.000 C 
BRANCH  18  19
ATOM     19  C   UNL     1       5.060   3.353  18.092  0.00  0.00    +0.000 C 
ATOM     20  O   UNL     1       5.329   3.735  19.219  0.00  0.00    +0.000 OA
ATOM     21  N   UNL     1       5.843   3.625  16.986  0.00  0.00    +0.000 N 
ATOM     22  H   UNL     1       5.466   3.460  16.063  0.00  0.00    +0.000 HD
BRANCH  21  23
ATOM     23  C   UNL     1       7.053   4.443  17.053  0.00  0.00    +0.000 C 
BRANCH  23  24
ATOM     24  C   UNL     1       6.864   5.840  16.431  0.00  0.00    +0.000 C 
ATOM     25  C   UNL     1       5.598   5.945  15.584  0.00  0.00    +0.000 C 
ATOM     26  C   UNL     1       4.567   6.441  16.569  0.00  0.00    +0.000 C 
ATOM     27  C   UNL     1       5.393   7.374  17.426  0.00  0.00    +0.000 C 
ATOM     28  O   UNL     1       6.709   6.806  17.500  0.00  0.00    +0.000 OA
ENDBRANCH  23  24
ENDBRANCH  21  23
ENDBRANCH  18  19
ENDBRANCH  17  18
ENDBRANCH   4  17
TORSDOF 8
ENDMDL
MODEL 8
REMARK VINA RESULT:      -7.1      1.493      2.181
REMARK  Name = 
REMARK  10 active torsions:
REMARK  status: ('A' for Active; 'I' for Inactive)
REMARK    1  A    between atoms: C_1  and  C_2
REMARK    2  A    between atoms: C_2  and  C_3
REMARK    3  A    between atoms: C_5  and  C_6
REMARK    4  A    between atoms: C_7  and  C_8
REMARK    5  A    between atoms: C_8  and  N_9
REMARK    6  A    between atoms: C_12  and  C_13
REMARK    7  A    between atoms: C_13  and  C_14
REMARK    8  A    between atoms: C_14  and  C_15
REMARK    9  A    between atoms: N_17  and  C_18
REMARK   10  A    between atoms: C_18  and  C_19
REMARK                            x       y       z     vdW  Elec       q    Type
REMARK                         _______ _______ _______ _____ _____    ______ ____
ROOT
ATOM      1  N   UNL     1       2.358   5.320  20.307  0.00  0.00    +0.000 NA
ATOM      2  C   UNL     1       1.118   4.683  19.829  0.00  0.00    +0.000 C 
ATOM      3  C   UNL     1       0.879   3.268  20.377  0.00  0.00    +0.000 C 
ATOM      4  C   UNL     1       2.063   2.299  20.217  0.00  0.00    +0.000 C 
ATOM      5  C   UNL     1       3.320   3.007  20.731  0.00  0.00    +0.000 C 
ATOM      6  C   UNL     1       3.521   4.419  20.169  0.00  0.00    +0.000 C 
ENDROOT
BRANCH   1   7
ATOM      7  C   UNL     1       2.629   6.570  19.542  0.00  0.00    +0.000 C 
BRANCH   7  12
ATOM      8  C   UNL     1       1.036   9.223  21.482  0.00  0.00    +0.000 A 
ATOM      9  N   UNL     1       0.895   9.797  20.310  0.00  0.00    +0.000 NA
ATOM     10  C   UNL     1       1.444   8.938  19.392  0.00  0.00    +0.000 A 
ATOM     11  C   UNL     1       1.525   9.379  17.983  0.00  0.00    +0.000 C 
ATOM     12  C   UNL     1       1.890   7.788  20.025  0.00  0.00    +0.000 A 
ATOM     13  N   UNL     1       1.614   7.989  21.352  0.00  0.00    +0.000 N 
ATOM     14  H   UNL     1       1.846   7.345  22.095  0.00  0.00    +0.000 HD
BRANCH   8  16
ATOM     15  C   UNL     1      -0.815   9.880  22.977  0.00  0.00    +0.000 C 
ATOM     16  C   UNL     1       0.694   9.847  22.785  0.00  0.00    +0.000 C 
ENDBRANCH   8  16
ENDBRANCH   7  12
ENDBRANCH   1   7
BRANCH   4  17
ATOM     17  C   UNL     1       2.179   1.686  18.794  0.00  0.00    +0.000 C 
BRANCH  17  18
ATOM     18  C   UNL     1       3.553   1.918  18.129  0.00  0.00    +0.000 C 
BRANCH  18  19
ATOM     19  C   UNL     1       3.577   3.058  17.110  0.00  0.00    +0.000 C 
ATOM     20  O   UNL     1       2.574   3.592  16.667  0.00  0.00    +0.000 OA
ATOM     21  N   UNL     1       4.860   3.436  16.763  0.00  0.00    +0.000 N 
ATOM     22  H   UNL     1       5.635   2.830  17.000  0.00  0.00    +0.000 HD
BRANCH  21  23
ATOM     23  C   UNL     1       5.140   4.489  15.787  0.00  0.00    +0.000 C 
BRANCH  23  24
ATOM     24  C   UNL     1       6.446   5.249  16.087  0.00  0.00    +0.000 C 
ATOM     25  C   UNL     1       6.259   6.370  17.106  0.00  0.00    +0.000 C 
ATOM     26  C   UNL     1       6.563   5.693  18.421  0.00  0.00    +0.000 C 
ATOM     27  C   UNL     1       7.674   4.747  18.023  0.00  0.00    +0.000 C 
ATOM     28  O   UNL     1       7.394   4.327  16.679  0.00  0.00    +0.000 OA
ENDBRANCH  23  24
ENDBRANCH  21  23
ENDBRANCH  18  19
ENDBRANCH  17  18
ENDBRANCH   4  17
TORSDOF 8
ENDMDL
MODEL 9
REMARK VINA RESULT:      -7.0      2.184      6.863
REMARK  Name = 
REMARK  10 active torsions:
REMARK  status: ('A' for Active; 'I' for Inactive)
REMARK    1  A    between atoms: C_1  and  C_2
REMARK    2  A    between atoms: C_2  and  C_3
REMARK    3  A    between atoms: C_5  and  C_6
REMARK    4  A    between atoms: C_7  and  C_8
REMARK    5  A    between atoms: C_8  and  N_9
REMARK    6  A    between atoms: C_12  and  C_13
REMARK    7  A    between atoms: C_13  and  C_14
REMARK    8  A    between atoms: C_14  and  C_15
REMARK    9  A    between atoms: N_17  and  C_18
REMARK   10  A    between atoms: C_18  and  C_19
REMARK                            x       y       z     vdW  Elec       q    Type
REMARK                         _______ _______ _______ _____ _____    ______ ____
ROOT
ATOM      1  N   UNL     1       3.744   3.438  17.690  0.00  0.00    +0.000 NA
ATOM      2  C   UNL     1       4.554   3.728  18.886  0.00  0.00    +0.000 C 
ATOM      3  C   UNL     1       4.283   2.797  20.078  0.00  0.00    +0.000 C 
ATOM      4  C   UNL     1       2.802   2.653  20.467  0.00  0.00    +0.000 C 
ATOM      5  C   UNL     1       2.009   2.349  19.192  0.00  0.00    +0.000 C 
ATOM      6  C   UNL     1       2.312   3.293  18.023  0.00  0.00    +0.000 C 
ENDROOT
BRANCH   1   7
ATOM      7  C   UNL     1       3.892   4.529  16.684  0.00  0.00    +0.000 C 
BRANCH   7  12
ATOM      8  C   UNL     1       7.026   6.308  17.273  0.00  0.00    +0.000 A 
ATOM      9  N   UNL     1       7.405   5.712  16.165  0.00  0.00    +0.000 NA
ATOM     10  C   UNL     1       6.335   4.960  15.749  0.00  0.00    +0.000 A 
ATOM     11  C   UNL     1       6.514   4.084  14.570  0.00  0.00    +0.000 C 
ATOM     12  C   UNL     1       5.262   5.144  16.606  0.00  0.00    +0.000 A 
ATOM     13  N   UNL     1       5.723   6.010  17.563  0.00  0.00    +0.000 N 
ATOM     14  H   UNL     1       5.190   6.326  18.362  0.00  0.00    +0.000 HD
BRANCH   8  16
ATOM     15  C   UNL     1       7.909   8.578  17.674  0.00  0.00    +0.000 C 
ATOM     16  C   UNL     1       7.905   7.130  18.142  0.00  0.00    +0.000 C 
ENDBRANCH   8  16
ENDBRANCH   7  12
ENDBRANCH   1   7
BRANCH   4  17
ATOM     17  C   UNL     1       2.263   3.835  21.318  0.00  0.00    +0.000 C 
BRANCH  17  18
ATOM     18  C   UNL     1       1.309   4.772  20.547  0.00  0.00    +0.000 C 
BRANCH  18  19
ATOM     19  C   UNL     1       1.822   6.204  20.389  0.00  0.00    +0.000 C 
ATOM     20  O   UNL     1       2.637   6.543  19.547  0.00  0.00    +0.000 OA
ATOM     21  N   UNL     1       1.242   7.080  21.287  0.00  0.00    +0.000 N 
ATOM     22  H   UNL     1       0.738   6.710  22.082  0.00  0.00    +0.000 HD
BRANCH  21  23
ATOM     23  C   UNL     1       1.589   8.500  21.346  0.00  0.00    +0.000 C 
BRANCH  23  24
ATOM     24  C   UNL     1       0.365   9.421  21.189  0.00  0.00    +0.000 C 
ATOM     25  C   UNL     1       0.736  10.901  21.157  0.00  0.00    +0.000 C 
ATOM     26  C   UNL     1       0.910  11.179  19.683  0.00  0.00    +0.000 C 
ATOM     27  C   UNL     1      -0.170  10.306  19.083  0.00  0.00    +0.000 C 
ATOM     28  O   UNL     1      -0.266   9.141  19.915  0.00  0.00    +0.000 OA
ENDBRANCH  23  24
ENDBRANCH  21  23
ENDBRANCH  18  19
ENDBRANCH  17  18
ENDBRANCH   4  17
TORSDOF 8
ENDMDL
