MODEL 1
REMARK VINA RESULT:      -7.5      0.000      0.000
REMARK  Name = 
REMARK  4 active torsions:
REMARK  status: ('A' for Active; 'I' for Inactive)
REMARK    1  A    between atoms: C_1  and  C_2
REMARK    2  A    between atoms: C_5  and  C_6
REMARK    3  A    between atoms: C_6  and  N_7
REMARK    4  A    between atoms: C_11  and  C_12
REMARK                            x       y       z     vdW  Elec       q    Type
REMARK                         _______ _______ _______ _____ _____    ______ ____
ROOT
ATOM      1  N   UNL     1       4.027   3.815  18.061  0.00  0.00    +0.000 NA
ATOM      2  C   UNL     1       4.006   2.551  18.807  0.00  0.00    +0.000 C 
ATOM      3  C   UNL     1       2.668   1.902  18.527  0.00  0.00    +0.000 C 
ATOM      4  C   UNL     1       1.724   3.060  18.277  0.00  0.00    +0.000 C 
ATOM      5  C   UNL     1       2.619   4.243  17.886  0.00  0.00    +0.000 C 
ENDROOT
BRANCH   5   6
ATOM      6  C   UNL     1       2.326   5.498  18.692  0.00  0.00    +0.000 A 
ATOM      7  C   UNL     1       2.066   5.439  20.073  0.00  0.00    +0.000 A 
ATOM      8  C   UNL     1       1.803   6.600  20.804  0.00  0.00    +0.000 A 
ATOM      9  C   UNL     1       1.799   7.838  20.167  0.00  0.00    +0.000 A 
ATOM     10  C   UNL     1       2.061   7.911  18.801  0.00  0.00    +0.000 A 
ATOM     11 BR   UNL     1       2.060   9.591  17.936  0.00  0.00    +0.000 Br
ATOM     12  C   UNL     1       2.321   6.754  18.065  0.00  0.00    +0.000 A 
ENDBRANCH   5   6
BRANCH   1  13
ATOM     13  C   UNL     1       4.711   3.713  16.755  0.00  0.00    +0.000 C 
BRANCH  13  18
ATOM     14  C   UNL     1       7.620   7.474  17.747  0.00  0.00    +0.000 C 
ATOM     15  C   UNL     1       7.108   6.319  16.991  0.00  0.00    +0.000 A 
ATOM     16  N   UNL     1       7.537   5.804  15.859  0.00  0.00    +0.000 NA
ATOM     17  N   UNL     1       6.715   4.732  15.583  0.00  0.00    +0.000 NA
ATOM     18  C   UNL     1       5.841   4.669  16.568  0.00  0.00    +0.000 A 
ATOM     19  O   UNL     1       6.023   5.658  17.503  0.00  0.00    +0.000 OA
ENDBRANCH  13  18
ENDBRANCH   1  13
TORSDOF 3
ENDMDL
MODEL 2
REMARK VINA RESULT:      -7.4      2.845      4.399
REMARK  Name = 
REMARK  4 active torsions:
REMARK  status: ('A' for Active; 'I' for Inactive)
REMARK    1  A    between atoms: C_1  and  C_2
REMARK    2  A    between atoms: C_5  and  C_6
REMARK    3  A    between atoms: C_6  and  N_7
REMARK    4  A    between atoms: C_11  and  C_12
REMARK                            x       y       z     vdW  Elec       q    Type
REMARK                         _______ _______ _______ _____ _____    ______ ____
ROOT
ATOM      1  N   UNL     1       6.516   5.382  17.161  0.00  0.00    +0.000 NA
ATOM      2  C   UNL     1       7.251   6.635  17.368  0.00  0.00    +0.000 C 
ATOM      3  C   UNL     1       7.897   6.539  18.735  0.00  0.00    +0.000 C 
ATOM      4  C   UNL     1       6.968   5.650  19.536  0.00  0.00    +0.000 C 
ATOM      5  C   UNL     1       6.167   4.851  18.499  0.00  0.00    +0.000 C 
ENDROOT
BRANCH   5   6
ATOM      6  C   UNL     1       4.667   4.913  18.737  0.00  0.00    +0.000 A 
ATOM      7  C   UNL     1       3.837   5.760  17.982  0.00  0.00    +0.000 A 
ATOM      8  C   UNL     1       2.460   5.804  18.207  0.00  0.00    +0.000 A 
ATOM      9  C   UNL     1       1.889   4.997  19.189  0.00  0.00    +0.000 A 
ATOM     10  C   UNL     1       2.698   4.149  19.940  0.00  0.00    +0.000 A 
ATOM     11 BR   UNL     1       1.925   3.052  21.270  0.00  0.00    +0.000 Br
ATOM     12  C   UNL     1       4.077   4.105  19.722  0.00  0.00    +0.000 A 
ENDBRANCH   5   6
BRANCH   1  13
ATOM     13  C   UNL     1       7.272   4.382  16.380  0.00  0.00    +0.000 C 
BRANCH  13  18
ATOM     14  C   UNL     1       5.522   3.183  12.010  0.00  0.00    +0.000 C 
ATOM     15  C   UNL     1       6.321   3.937  12.989  0.00  0.00    +0.000 A 
ATOM     16  N   UNL     1       7.143   4.946  12.798  0.00  0.00    +0.000 NA
ATOM     17  N   UNL     1       7.633   5.290  14.039  0.00  0.00    +0.000 NA
ATOM     18  C   UNL     1       7.073   4.465  14.903  0.00  0.00    +0.000 A 
ATOM     19  O   UNL     1       6.229   3.564  14.305  0.00  0.00    +0.000 OA
ENDBRANCH  13  18
ENDBRANCH   1  13
TORSDOF 3
ENDMDL
MODEL 3
REMARK VINA RESULT:      -7.3      1.981      2.700
REMARK  Name = 
REMARK  4 active torsions:
REMARK  status: ('A' for Active; 'I' for Inactive)
REMARK    1  A    between atoms: C_1  and  C_2
REMARK    2  A    between atoms: C_5  and  C_6
REMARK    3  A    between atoms: C_6  and  N_7
REMARK    4  A    between atoms: C_11  and  C_12
REMARK                            x       y       z     vdW  Elec       q    Type
REMARK                         _______ _______ _______ _____ _____    ______ ____
ROOT
ATOM      1  N   UNL     1       3.231   3.871  20.312  0.00  0.00    +0.000 NA
ATOM      2  C   UNL     1       2.633   3.267  21.509  0.00  0.00    +0.000 C 
ATOM      3  C   UNL     1       1.262   2.767  21.106  0.00  0.00    +0.000 C 
ATOM      4  C   UNL     1       0.824   3.701  19.996  0.00  0.00    +0.000 C 
ATOM      5  C   UNL     1       2.117   4.318  19.444  0.00  0.00    +0.000 C 
ENDROOT
BRANCH   5   6
ATOM      6  C   UNL     1       2.060   5.835  19.365  0.00  0.00    +0.000 A 
ATOM      7  C   UNL     1       2.399   6.523  18.186  0.00  0.00    +0.000 A 
ATOM      8  C   UNL     1       2.338   7.916  18.125  0.00  0.00    +0.000 A 
ATOM      9  C   UNL     1       1.933   8.645  19.241  0.00  0.00    +0.000 A 
ATOM     10  C   UNL     1       1.589   7.976  20.413  0.00  0.00    +0.000 A 
ATOM     11 BR   UNL     1       1.035   8.963  21.926  0.00  0.00    +0.000 Br
ATOM     12  C   UNL     1       1.652   6.583  20.481  0.00  0.00    +0.000 A 
ENDBRANCH   5   6
BRANCH   1  13
ATOM     13  C   UNL     1       4.131   2.956  19.582  0.00  0.00    +0.000 C 
BRANCH  13  18
ATOM     14  C   UNL     1       5.630   4.305  15.163  0.00  0.00    +0.000 C 
ATOM     15  C   UNL     1       5.662   4.198  16.631  0.00  0.00    +0.000 A 
ATOM     16  N   UNL     1       6.538   4.680  17.485  0.00  0.00    +0.000 NA
ATOM     17  N   UNL     1       6.108   4.304  18.739  0.00  0.00    +0.000 NA
ATOM     18  C   UNL     1       4.996   3.617  18.560  0.00  0.00    +0.000 A 
ATOM     19  O   UNL     1       4.652   3.498  17.237  0.00  0.00    +0.000 OA
ENDBRANCH  13  18
ENDBRANCH   1  13
TORSDOF 3
ENDMDL
MODEL 4
REMARK VINA RESULT:      -7.3      1.340      1.366
REMARK  Name = 
REMARK  4 active torsions:
REMARK  status: ('A' for Active; 'I' for Inactive)
REMARK    1  A    between atoms: C_1  and  C_2
REMARK    2  A    between atoms: C_5  and  C_6
REMARK    3  A    between atoms: C_6  and  N_7
REMARK    4  A    between atoms: C_11  and  C_12
REMARK                            x       y       z     vdW  Elec       q    Type
REMARK                         _______ _______ _______ _____ _____    ______ ____
ROOT
ATOM      1  N   UNL     1       4.159   4.135  18.609  0.00  0.00    +0.000 NA
ATOM      2  C   UNL     1       3.653   2.805  18.970  0.00  0.00    +0.000 C 
ATOM      3  C   UNL     1       2.576   2.462  17.963  0.00  0.00    +0.000 C 
ATOM      4  C   UNL     1       1.993   3.799  17.553  0.00  0.00    +0.000 C 
ATOM      5  C   UNL     1       3.071   4.838  17.890  0.00  0.00    +0.000 C 
ENDROOT
BRANCH   5   6
ATOM      6  C   UNL     1       2.535   5.999  18.712  0.00  0.00    +0.000 A 
ATOM      7  C   UNL     1       2.150   5.834  20.055  0.00  0.00    +0.000 A 
ATOM      8  C   UNL     1       1.663   6.910  20.800  0.00  0.00    +0.000 A 
ATOM      9  C   UNL     1       1.558   8.170  20.217  0.00  0.00    +0.000 A 
ATOM     10  C   UNL     1       1.940   8.349  18.890  0.00  0.00    +0.000 A 
ATOM     11 BR   UNL     1       1.801  10.059  18.098  0.00  0.00    +0.000 Br
ATOM     12  C   UNL     1       2.424   7.276  18.139  0.00  0.00    +0.000 A 
ENDBRANCH   5   6
BRANCH   1  13
ATOM     13  C   UNL     1       5.387   4.092  17.790  0.00  0.00    +0.000 C 
BRANCH  13  18
ATOM     14  C   UNL     1       7.867   8.264  17.606  0.00  0.00    +0.000 C 
ATOM     15  C   UNL     1       7.517   6.916  18.081  0.00  0.00    +0.000 A 
ATOM     16  N   UNL     1       8.081   6.188  19.020  0.00  0.00    +0.000 NA
ATOM     17  N   UNL     1       7.372   5.008  19.077  0.00  0.00    +0.000 NA
ATOM     18  C   UNL     1       6.422   5.099  18.166  0.00  0.00    +0.000 A 
ATOM     19  O   UNL     1       6.457   6.288  17.481  0.00  0.00    +0.000 OA
ENDBRANCH  13  18
ENDBRANCH   1  13
TORSDOF 3
ENDMDL
MODEL 5
REMARK VINA RESULT:      -7.1      1.803      2.644
REMARK  Name = 
REMARK  4 active torsions:
REMARK  status: ('A' for Active; 'I' for Inactive)
REMARK    1  A    between atoms: C_1  and  C_2
REMARK    2  A    between atoms: C_5  and  C_6
REMARK    3  A    between atoms: C_6  and  N_7
REMARK    4  A    between atoms: C_11  and  C_12
REMARK                            x       y       z     vdW  Elec       q    Type
REMARK                         _______ _______ _______ _____ _____    ______ ____
ROOT
ATOM      1  N   UNL     1       3.912   5.420  19.478  0.00  0.00    +0.000 NA
ATOM      2  C   UNL     1       3.210   4.200  19.895  0.00  0.00    +0.000 C 
ATOM      3  C   UNL     1       2.524   3.649  18.663  0.00  0.00    +0.000 C 
ATOM      4  C   UNL     1       2.225   4.868  17.813  0.00  0.00    +0.000 C 
ATOM      5  C   UNL     1       3.198   5.953  18.294  0.00  0.00    +0.000 C 
ENDROOT
BRANCH   5   6
ATOM      6  C   UNL     1       2.504   7.265  18.621  0.00  0.00    +0.000 A 
ATOM      7  C   UNL     1       2.330   8.267  17.649  0.00  0.00    +0.000 A 
ATOM      8  C   UNL     1       1.685   9.466  17.960  0.00  0.00    +0.000 A 
ATOM      9  C   UNL     1       1.201   9.681  19.247  0.00  0.00    +0.000 A 
ATOM     10  C   UNL     1       1.361   8.696  20.219  0.00  0.00    +0.000 A 
ATOM     11 BR   UNL     1       0.700   8.986  21.965  0.00  0.00    +0.000 Br
ATOM     12  C   UNL     1       2.008   7.497  19.914  0.00  0.00    +0.000 A 
ENDBRANCH   5   6
BRANCH   1  13
ATOM     13  C   UNL     1       5.340   5.198  19.173  0.00  0.00    +0.000 C 
BRANCH  13  18
ATOM     14  C   UNL     1       6.103   3.961  14.539  0.00  0.00    +0.000 C 
ATOM     15  C   UNL     1       6.054   4.845  15.715  0.00  0.00    +0.000 A 
ATOM     16  N   UNL     1       6.362   6.120  15.816  0.00  0.00    +0.000 NA
ATOM     17  N   UNL     1       6.138   6.472  17.129  0.00  0.00    +0.000 NA
ATOM     18  C   UNL     1       5.708   5.384  17.738  0.00  0.00    +0.000 A 
ATOM     19  O   UNL     1       5.637   4.299  16.900  0.00  0.00    +0.000 OA
ENDBRANCH  13  18
ENDBRANCH   1  13
TORSDOF 3
ENDMDL
MODEL 6
REMARK VINA RESULT:      -7.1      1.881      2.296
REMARK  Name = 
REMARK  4 active torsions:
REMARK  status: ('A' for Active; 'I' for Inactive)
REMARK    1  A    between atoms: C_1  and  C_2
REMARK    2  A    between atoms: C_5  and  C_6
REMARK    3  A    between atoms: C_6  and  N_7
REMARK    4  A    between atoms: C_11  and  C_12
REMARK                            x       y       z     vdW  Elec       q    Type
REMARK                         _______ _______ _______ _____ _____    ______ ____
ROOT
ATOM      1  N   UNL     1       3.849   4.767  19.014  0.00  0.00    +0.000 NA
ATOM      2  C   UNL     1       3.164   3.683  19.729  0.00  0.00    +0.000 C 
ATOM      3  C   UNL     1       2.098   3.151  18.794  0.00  0.00    +0.000 C 
ATOM      4  C   UNL     1       1.707   4.342  17.942  0.00  0.00    +0.000 C 
ATOM      5  C   UNL     1       2.891   5.314  18.025  0.00  0.00    +0.000 C 
ENDROOT
BRANCH   5   6
ATOM      6  C   UNL     1       2.470   6.726  18.396  0.00  0.00    +0.000 A 
ATOM      7  C   UNL     1       2.471   7.767  17.449  0.00  0.00    +0.000 A 
ATOM      8  C   UNL     1       2.076   9.059  17.802  0.00  0.00    +0.000 A 
ATOM      9  C   UNL     1       1.670   9.331  19.105  0.00  0.00    +0.000 A 
ATOM     10  C   UNL     1       1.659   8.310  20.052  0.00  0.00    +0.000 A 
ATOM     11 BR   UNL     1       1.104   8.678  21.820  0.00  0.00    +0.000 Br
ATOM     12  C   UNL     1       2.056   7.017  19.706  0.00  0.00    +0.000 A 
ENDBRANCH   5   6
BRANCH   1  13
ATOM     13  C   UNL     1       5.097   4.335  18.353  0.00  0.00    +0.000 C 
BRANCH  13  18
ATOM     14  C   UNL     1       7.884   8.228  17.535  0.00  0.00    +0.000 C 
ATOM     15  C   UNL     1       7.477   6.962  18.165  0.00  0.00    +0.000 A 
ATOM     16  N   UNL     1       8.078   6.263  19.102  0.00  0.00    +0.000 NA
ATOM     17  N   UNL     1       7.283   5.163  19.339  0.00  0.00    +0.000 NA
ATOM     18  C   UNL     1       6.249   5.269  18.527  0.00  0.00    +0.000 A 
ATOM     19  O   UNL     1       6.307   6.389  17.737  0.00  0.00    +0.000 OA
ENDBRANCH  13  18
ENDBRANCH   1  13
TORSDOF 3
ENDMDL
MODEL 7
REMARK VINA RESULT:      -7.1      1.746      2.508
REMARK  Name = 
REMARK  4 active torsions:
REMARK  status: ('A' for Active; 'I' for Inactive)
REMARK    1  A    between atoms: C_1  and  C_2
REMARK    2  A    between atoms: C_5  and  C_6
REMARK    3  A    between atoms: C_6  and  N_7
REMARK    4  A    between atoms: C_11  and  C_12
REMARK                            x       y       z     vdW  Elec       q    Type
REMARK                         _______ _______ _______ _____ _____    ______ ____
ROOT
ATOM      1  N   UNL     1       3.218   3.868  20.366  0.00  0.00    +0.000 NA
ATOM      2  C   UNL     1       2.613   3.273  21.564  0.00  0.00    +0.000 C 
ATOM      3  C   UNL     1       1.243   2.774  21.158  0.00  0.00    +0.000 C 
ATOM      4  C   UNL     1       0.813   3.702  20.040  0.00  0.00    +0.000 C 
ATOM      5  C   UNL     1       2.109   4.312  19.490  0.00  0.00    +0.000 C 
ENDROOT
BRANCH   5   6
ATOM      6  C   UNL     1       2.056   5.829  19.402  0.00  0.00    +0.000 A 
ATOM      7  C   UNL     1       2.399   6.508  18.219  0.00  0.00    +0.000 A 
ATOM      8  C   UNL     1       2.341   7.902  18.149  0.00  0.00    +0.000 A 
ATOM      9  C   UNL     1       1.936   8.638  19.259  0.00  0.00    +0.000 A 
ATOM     10  C   UNL     1       1.589   7.978  20.435  0.00  0.00    +0.000 A 
ATOM     11 BR   UNL     1       1.035   8.976  21.941  0.00  0.00    +0.000 Br
ATOM     12  C   UNL     1       1.648   6.585  20.511  0.00  0.00    +0.000 A 
ENDBRANCH   5   6
BRANCH   1  13
ATOM     13  C   UNL     1       4.120   2.947  19.646  0.00  0.00    +0.000 C 
BRANCH  13  18
ATOM     14  C   UNL     1       7.116   5.692  16.986  0.00  0.00    +0.000 C 
ATOM     15  C   UNL     1       6.038   4.725  17.247  0.00  0.00    +0.000 A 
ATOM     16  N   UNL     1       5.272   4.078  16.397  0.00  0.00    +0.000 NA
ATOM     17  N   UNL     1       4.427   3.293  17.152  0.00  0.00    +0.000 NA
ATOM     18  C   UNL     1       4.739   3.518  18.413  0.00  0.00    +0.000 A 
ATOM     19  O   UNL     1       5.754   4.430  18.555  0.00  0.00    +0.000 OA
ENDBRANCH  13  18
ENDBRANCH   1  13
TORSDOF 3
ENDMDL
MODEL 8
REMARK VINA RESULT:      -7.0      3.034      4.689
REMARK  Name = 
REMARK  4 active torsions:
REMARK  status: ('A' for Active; 'I' for Inactive)
REMARK    1  A    between atoms: C_1  and  C_2
REMARK    2  A    between atoms: C_5  and  C_6
REMARK    3  A    between atoms: C_6  and  N_7
REMARK    4  A    between atoms: C_11  and  C_12
REMARK                            x       y       z     vdW  Elec       q    Type
REMARK                         _______ _______ _______ _____ _____    ______ ____
ROOT
ATOM      1  N   UNL     1       5.436   4.974  16.499  0.00  0.00    +0.000 NA
ATOM      2  C   UNL     1       5.146   6.401  16.313  0.00  0.00    +0.000 C 
ATOM      3  C   UNL     1       5.536   7.096  17.601  0.00  0.00    +0.000 C 
ATOM      4  C   UNL     1       5.328   6.050  18.679  0.00  0.00    +0.000 C 
ATOM      5  C   UNL     1       5.367   4.699  17.953  0.00  0.00    +0.000 C 
ENDROOT
BRANCH   5   6
ATOM      6  C   UNL     1       4.175   3.816  18.286  0.00  0.00    +0.000 A 
ATOM      7  C   UNL     1       3.548   3.027  17.305  0.00  0.00    +0.000 A 
ATOM      8  C   UNL     1       2.457   2.216  17.625  0.00  0.00    +0.000 A 
ATOM      9  C   UNL     1       1.978   2.178  18.932  0.00  0.00    +0.000 A 
ATOM     10  C   UNL     1       2.592   2.950  19.915  0.00  0.00    +0.000 A 
ATOM     11 BR   UNL     1       1.945   2.897  21.689  0.00  0.00    +0.000 Br
ATOM     12  C   UNL     1       3.681   3.765  19.599  0.00  0.00    +0.000 A 
ENDBRANCH   5   6
BRANCH   1  13
ATOM     13  C   UNL     1       6.744   4.565  15.949  0.00  0.00    +0.000 C 
BRANCH  13  18
ATOM     14  C   UNL     1       5.669   2.654  11.615  0.00  0.00    +0.000 C 
ATOM     15  C   UNL     1       6.317   3.569  12.569  0.00  0.00    +0.000 A 
ATOM     16  N   UNL     1       7.167   4.547  12.346  0.00  0.00    +0.000 NA
ATOM     17  N   UNL     1       7.465   5.093  13.575  0.00  0.00    +0.000 NA
ATOM     18  C   UNL     1       6.773   4.408  14.465  0.00  0.00    +0.000 A 
ATOM     19  O   UNL     1       6.022   3.409  13.898  0.00  0.00    +0.000 OA
ENDBRANCH  13  18
ENDBRANCH   1  13
TORSDOF 3
ENDMDL
MODEL 9
REMARK VINA RESULT:      -7.0      1.353      1.914
REMARK  Name = 
REMARK  4 active torsions:
REMARK  status: ('A' for Active; 'I' for Inactive)
REMARK    1  A    between atoms: C_1  and  C_2
REMARK    2  A    between atoms: C_5  and  C_6
REMARK    3  A    between atoms: C_6  and  N_7
REMARK    4  A    between atoms: C_11  and  C_12
REMARK                            x       y       z     vdW  Elec       q    Type
REMARK                         _______ _______ _______ _____ _____    ______ ____
ROOT
ATOM      1  N   UNL     1       4.800   4.410  18.909  0.00  0.00    +0.000 NA
ATOM      2  C   UNL     1       4.403   3.022  19.176  0.00  0.00    +0.000 C 
ATOM      3  C   UNL     1       3.556   2.578  18.003  0.00  0.00    +0.000 C 
ATOM      4  C   UNL     1       2.893   3.847  17.507  0.00  0.00    +0.000 C 
ATOM      5  C   UNL     1       3.769   4.997  18.022  0.00  0.00    +0.000 C 
ENDROOT
BRANCH   5   6
ATOM      6  C   UNL     1       2.970   6.068  18.747  0.00  0.00    +0.000 A 
ATOM      7  C   UNL     1       2.415   5.837  20.019  0.00  0.00    +0.000 A 
ATOM      8  C   UNL     1       1.688   6.831  20.677  0.00  0.00    +0.000 A 
ATOM      9  C   UNL     1       1.507   8.074  20.075  0.00  0.00    +0.000 A 
ATOM     10  C   UNL     1       2.055   8.319  18.819  0.00  0.00    +0.000 A 
ATOM     11 BR   UNL     1       1.813  10.006  18.004  0.00  0.00    +0.000 Br
ATOM     12  C   UNL     1       2.780   7.327  18.155  0.00  0.00    +0.000 A 
ENDBRANCH   5   6
BRANCH   1  13
ATOM     13  C   UNL     1       6.142   4.530  18.306  0.00  0.00    +0.000 C 
BRANCH  13  18
ATOM     14  C   UNL     1       6.052   3.793  13.506  0.00  0.00    +0.000 C 
ATOM     15  C   UNL     1       6.117   4.565  14.757  0.00  0.00    +0.000 A 
ATOM     16  N   UNL     1       6.218   5.865  14.933  0.00  0.00    +0.000 NA
ATOM     17  N   UNL     1       6.236   6.073  16.295  0.00  0.00    +0.000 NA
ATOM     18  C   UNL     1       6.144   4.883  16.855  0.00  0.00    +0.000 A 
ATOM     19  O   UNL     1       6.074   3.867  15.935  0.00  0.00    +0.000 OA
ENDBRANCH  13  18
ENDBRANCH   1  13
TORSDOF 3
ENDMDL
