MODEL 1
REMARK VINA RESULT:      -8.5      0.000      0.000
REMARK  Name = 
REMARK  11 active torsions:
REMARK  status: ('A' for Active; 'I' for Inactive)
REMARK    1  A    between atoms: C_1  and  C_2
REMARK    2  A    between atoms: C_2  and  C_3
REMARK    3  A    between atoms: C_3  and  C_4
REMARK    4  A    between atoms: C_4  and  C_5
REMARK    5  A    between atoms: C_5  and  C_6
REMARK    6  A    between atoms: C_6  and  C_7
REMARK    7  A    between atoms: C_8  and  C_9
REMARK    8  A    between atoms: N_11  and  C_12
REMARK    9  A    between atoms: C_12  and  C_13
REMARK   10  A    between atoms: C_13  and  C_14
REMARK   11  A    between atoms: C_17  and  N_18
REMARK                            x       y       z     vdW  Elec       q    Type
REMARK                         _______ _______ _______ _____ _____    ______ ____
ROOT
ATOM      1  C   UNL     1       6.789   6.468  17.084  0.00  0.00    +0.000 C 
ATOM      2  O   UNL     1       7.530   6.147  16.166  0.00  0.00    +0.000 OA
ATOM      3  N   UNL     1       6.937   7.654  17.782  0.00  0.00    +0.000 N 
ATOM      4  H   UNL     1       6.549   7.683  18.714  0.00  0.00    +0.000 HD
ENDROOT
BRANCH   1   6
ATOM      5  C   UNL     1       4.329   5.940  17.666  0.00  0.00    +0.000 A 
ATOM      6  C   UNL     1       5.689   5.648  17.565  0.00  0.00    +0.000 A 
ATOM      7  N   UNL     1       5.853   4.370  18.053  0.00  0.00    +0.000 N 
ATOM      8  C   UNL     1       4.661   3.829  18.456  0.00  0.00    +0.000 A 
ATOM      9  C   UNL     1       4.381   2.559  18.972  0.00  0.00    +0.000 A 
ATOM     10  C   UNL     1       3.061   2.291  19.345  0.00  0.00    +0.000 A 
ATOM     11  C   UNL     1       2.073   3.262  19.206  0.00  0.00    +0.000 A 
ATOM     12 CL   UNL     1       0.462   2.907  19.704  0.00  0.00    +0.000 Cl
ATOM     13  C   UNL     1       2.365   4.519  18.668  0.00  0.00    +0.000 A 
ATOM     14  C   UNL     1       3.688   4.808  18.274  0.00  0.00    +0.000 A 
ATOM     15  H   UNL     1       6.745   3.904  18.131  0.00  0.00    +0.000 HD
BRANCH   5  16
ATOM     16  C   UNL     1       3.632   7.181  17.180  0.00  0.00    +0.000 C 
BRANCH  16  17
ATOM     17  C   UNL     1       2.879   7.871  18.319  0.00  0.00    +0.000 C 
BRANCH  17  18
ATOM     18  C   UNL     1       1.776   8.802  17.821  0.00  0.00    +0.000 C 
BRANCH  18  19
ATOM     19  C   UNL     1       1.228   9.629  18.985  0.00  0.00    +0.000 C 
BRANCH  19  21
ATOM     20  C   UNL     1      -0.910   9.883  17.695  0.00  0.00    +0.000 C 
ATOM     21  C   UNL     1       0.141  10.597  18.531  0.00  0.00    +0.000 C 
ENDBRANCH  19  21
ENDBRANCH  18  19
ENDBRANCH  17  18
ENDBRANCH  16  17
ENDBRANCH   5  16
ENDBRANCH   1   6
BRANCH   3  22
ATOM     22  C   UNL     1       8.028   8.566  17.483  0.00  0.00    +0.000 C 
BRANCH  22  23
ATOM     23  C   UNL     1       8.677   9.096  18.765  0.00  0.00    +0.000 C 
BRANCH  23  24
ATOM     24  C   UNL     1       9.085  10.541  18.655  0.00  0.00    +0.000 A 
ATOM     25  C   UNL     1       8.447  11.393  17.753  0.00  0.00    +0.000 A 
ATOM     26  C   UNL     1       8.840  12.732  17.645  0.00  0.00    +0.000 A 
ATOM     27  C   UNL     1       9.873  13.270  18.427  0.00  0.00    +0.000 A 
ATOM     28  C   UNL     1      10.497  12.400  19.330  0.00  0.00    +0.000 A 
ATOM     29  C   UNL     1      10.117  11.056  19.444  0.00  0.00    +0.000 A 
BRANCH  27  30
ATOM     30  N   UNL     1      10.211  14.606  18.326  0.00  0.00    +0.000 N 
ATOM     31  C   UNL     1       9.627  15.625  19.197  0.00  0.00    +0.000 C 
ATOM     32  C   UNL     1       9.237  16.826  18.330  0.00  0.00    +0.000 C 
ATOM     33  C   UNL     1      10.412  17.330  17.492  0.00  0.00    +0.000 C 
ATOM     34  C   UNL     1      11.073  16.197  16.704  0.00  0.00    +0.000 C 
ATOM     35  C   UNL     1      11.419  15.017  17.610  0.00  0.00    +0.000 C 
ENDBRANCH  27  30
ENDBRANCH  23  24
ENDBRANCH  22  23
ENDBRANCH   3  22
TORSDOF 10
ENDMDL
MODEL 2
REMARK VINA RESULT:      -8.4      2.904      4.198
REMARK  Name = 
REMARK  11 active torsions:
REMARK  status: ('A' for Active; 'I' for Inactive)
REMARK    1  A    between atoms: C_1  and  C_2
REMARK    2  A    between atoms: C_2  and  C_3
REMARK    3  A    between atoms: C_3  and  C_4
REMARK    4  A    between atoms: C_4  and  C_5
REMARK    5  A    between atoms: C_5  and  C_6
REMARK    6  A    between atoms: C_6  and  C_7
REMARK    7  A    between atoms: C_8  and  C_9
REMARK    8  A    between atoms: N_11  and  C_12
REMARK    9  A    between atoms: C_12  and  C_13
REMARK   10  A    between atoms: C_13  and  C_14
REMARK   11  A    between atoms: C_17  and  N_18
REMARK                            x       y       z     vdW  Elec       q    Type
REMARK                         _______ _______ _______ _____ _____    ______ ____
ROOT
ATOM      1  C   UNL     1       7.280   5.429  18.588  0.00  0.00    +0.000 C 
ATOM      2  O   UNL     1       8.372   4.897  18.729  0.00  0.00    +0.000 OA
ATOM      3  N   UNL     1       7.137   6.786  18.356  0.00  0.00    +0.000 N 
ATOM      4  H   UNL     1       6.250   7.197  18.608  0.00  0.00    +0.000 HD
ENDROOT
BRANCH   1   6
ATOM      5  C   UNL     1       4.986   4.610  17.733  0.00  0.00    +0.000 A 
ATOM      6  C   UNL     1       6.014   4.720  18.668  0.00  0.00    +0.000 A 
ATOM      7  N   UNL     1       5.607   4.018  19.783  0.00  0.00    +0.000 N 
ATOM      8  C   UNL     1       4.369   3.461  19.601  0.00  0.00    +0.000 A 
ATOM      9  C   UNL     1       3.615   2.653  20.458  0.00  0.00    +0.000 A 
ATOM     10  C   UNL     1       2.347   2.258  20.023  0.00  0.00    +0.000 A 
ATOM     11  C   UNL     1       1.863   2.665  18.782  0.00  0.00    +0.000 A 
ATOM     12 CL   UNL     1       0.284   2.185  18.291  0.00  0.00    +0.000 Cl
ATOM     13  C   UNL     1       2.639   3.454  17.928  0.00  0.00    +0.000 A 
ATOM     14  C   UNL     1       3.927   3.856  18.342  0.00  0.00    +0.000 A 
ATOM     15  H   UNL     1       6.142   3.951  20.635  0.00  0.00    +0.000 HD
BRANCH   5  16
ATOM     16  C   UNL     1       4.989   5.129  16.321  0.00  0.00    +0.000 C 
BRANCH  16  17
ATOM     17  C   UNL     1       5.506   4.070  15.346  0.00  0.00    +0.000 C 
BRANCH  17  18
ATOM     18  C   UNL     1       5.464   4.534  13.892  0.00  0.00    +0.000 C 
BRANCH  18  19
ATOM     19  C   UNL     1       6.213   3.536  13.006  0.00  0.00    +0.000 C 
BRANCH  19  21
ATOM     20  C   UNL     1       5.865   1.679  11.354  0.00  0.00    +0.000 C 
ATOM     21  C   UNL     1       5.330   3.000  11.885  0.00  0.00    +0.000 C 
ENDBRANCH  19  21
ENDBRANCH  18  19
ENDBRANCH  17  18
ENDBRANCH  16  17
ENDBRANCH   5  16
ENDBRANCH   1   6
BRANCH   3  22
ATOM     22  C   UNL     1       8.294   7.664  18.314  0.00  0.00    +0.000 C 
BRANCH  22  23
ATOM     23  C   UNL     1       7.962   8.991  17.626  0.00  0.00    +0.000 C 
BRANCH  23  24
ATOM     24  C   UNL     1       8.616  10.171  18.294  0.00  0.00    +0.000 A 
ATOM     25  C   UNL     1       9.206  10.039  19.552  0.00  0.00    +0.000 A 
ATOM     26  C   UNL     1       9.800  11.143  20.174  0.00  0.00    +0.000 A 
ATOM     27  C   UNL     1       9.831  12.410  19.572  0.00  0.00    +0.000 A 
ATOM     28  C   UNL     1       9.238  12.520  18.308  0.00  0.00    +0.000 A 
ATOM     29  C   UNL     1       8.636  11.424  17.676  0.00  0.00    +0.000 A 
BRANCH  27  30
ATOM     30  N   UNL     1      10.460  13.471  20.195  0.00  0.00    +0.000 N 
ATOM     31  C   UNL     1      10.067  13.938  21.522  0.00  0.00    +0.000 C 
ATOM     32  C   UNL     1      10.001  15.468  21.490  0.00  0.00    +0.000 C 
ATOM     33  C   UNL     1      11.304  16.084  20.979  0.00  0.00    +0.000 C 
ATOM     34  C   UNL     1      11.742  15.462  19.651  0.00  0.00    +0.000 C 
ATOM     35  C   UNL     1      11.768  13.937  19.732  0.00  0.00    +0.000 C 
ENDBRANCH  27  30
ENDBRANCH  23  24
ENDBRANCH  22  23
ENDBRANCH   3  22
TORSDOF 10
ENDMDL
MODEL 3
REMARK VINA RESULT:      -8.3      2.487      4.001
REMARK  Name = 
REMARK  11 active torsions:
REMARK  status: ('A' for Active; 'I' for Inactive)
REMARK    1  A    between atoms: C_1  and  C_2
REMARK    2  A    between atoms: C_2  and  C_3
REMARK    3  A    between atoms: C_3  and  C_4
REMARK    4  A    between atoms: C_4  and  C_5
REMARK    5  A    between atoms: C_5  and  C_6
REMARK    6  A    between atoms: C_6  and  C_7
REMARK    7  A    between atoms: C_8  and  C_9
REMARK    8  A    between atoms: N_11  and  C_12
REMARK    9  A    between atoms: C_12  and  C_13
REMARK   10  A    between atoms: C_13  and  C_14
REMARK   11  A    between atoms: C_17  and  N_18
REMARK                            x       y       z     vdW  Elec       q    Type
REMARK                         _______ _______ _______ _____ _____    ______ ____
ROOT
ATOM      1  C   UNL     1       6.913   6.198  18.343  0.00  0.00    +0.000 C 
ATOM      2  O   UNL     1       8.007   5.769  18.680  0.00  0.00    +0.000 OA
ATOM      3  N   UNL     1       6.752   7.428  17.728  0.00  0.00    +0.000 N 
ATOM      4  H   UNL     1       5.843   7.860  17.811  0.00  0.00    +0.000 HD
ENDROOT
BRANCH   1   6
ATOM      5  C   UNL     1       5.011   4.549  17.765  0.00  0.00    +0.000 A 
ATOM      6  C   UNL     1       5.661   5.493  18.561  0.00  0.00    +0.000 A 
ATOM      7  N   UNL     1       4.860   5.693  19.665  0.00  0.00    +0.000 N 
ATOM      8  C   UNL     1       3.732   4.917  19.614  0.00  0.00    +0.000 A 
ATOM      9  C   UNL     1       2.688   4.791  20.537  0.00  0.00    +0.000 A 
ATOM     10  C   UNL     1       1.628   3.945  20.200  0.00  0.00    +0.000 A 
ATOM     11  C   UNL     1       1.621   3.264  18.986  0.00  0.00    +0.000 A 
ATOM     12 CL   UNL     1       0.283   2.254  18.589  0.00  0.00    +0.000 Cl
ATOM     13  C   UNL     1       2.683   3.384  18.084  0.00  0.00    +0.000 A 
ATOM     14  C   UNL     1       3.770   4.223  18.408  0.00  0.00    +0.000 A 
ATOM     15  H   UNL     1       5.066   6.350  20.401  0.00  0.00    +0.000 HD
BRANCH   5  16
ATOM     16  C   UNL     1       5.526   3.932  16.494  0.00  0.00    +0.000 C 
BRANCH  16  17
ATOM     17  C   UNL     1       5.478   4.932  15.337  0.00  0.00    +0.000 C 
BRANCH  17  18
ATOM     18  C   UNL     1       5.245   4.262  13.985  0.00  0.00    +0.000 C 
BRANCH  18  19
ATOM     19  C   UNL     1       6.569   3.731  13.433  0.00  0.00    +0.000 C 
BRANCH  19  21
ATOM     20  C   UNL     1       5.369   2.459  11.632  0.00  0.00    +0.000 C 
ATOM     21  C   UNL     1       6.486   3.445  11.938  0.00  0.00    +0.000 C 
ENDBRANCH  19  21
ENDBRANCH  18  19
ENDBRANCH  17  18
ENDBRANCH  16  17
ENDBRANCH   5  16
ENDBRANCH   1   6
BRANCH   3  22
ATOM     22  C   UNL     1       7.889   8.302  17.494  0.00  0.00    +0.000 C 
BRANCH  22  23
ATOM     23  C   UNL     1       8.618   8.629  18.801  0.00  0.00    +0.000 C 
BRANCH  23  24
ATOM     24  C   UNL     1       8.996  10.082  18.906  0.00  0.00    +0.000 A 
ATOM     25  C   UNL     1       9.537  10.593  20.086  0.00  0.00    +0.000 A 
ATOM     26  C   UNL     1       9.873  11.949  20.183  0.00  0.00    +0.000 A 
ATOM     27  C   UNL     1       9.687  12.839  19.114  0.00  0.00    +0.000 A 
ATOM     28  C   UNL     1       9.148  12.306  17.937  0.00  0.00    +0.000 A 
ATOM     29  C   UNL     1       8.802  10.952  17.830  0.00  0.00    +0.000 A 
BRANCH  27  30
ATOM     30  N   UNL     1      10.066  14.163  19.227  0.00  0.00    +0.000 N 
ATOM     31  C   UNL     1       9.118  15.262  19.052  0.00  0.00    +0.000 C 
ATOM     32  C   UNL     1       9.780  16.327  18.172  0.00  0.00    +0.000 C 
ATOM     33  C   UNL     1      11.136  16.763  18.728  0.00  0.00    +0.000 C 
ATOM     34  C   UNL     1      12.040  15.565  19.022  0.00  0.00    +0.000 C 
ATOM     35  C   UNL     1      11.325  14.525  19.881  0.00  0.00    +0.000 C 
ENDBRANCH  27  30
ENDBRANCH  23  24
ENDBRANCH  22  23
ENDBRANCH   3  22
TORSDOF 10
ENDMDL
MODEL 4
REMARK VINA RESULT:      -8.3      3.288      4.649
REMARK  Name = 
REMARK  11 active torsions:
REMARK  status: ('A' for Active; 'I' for Inactive)
REMARK    1  A    between atoms: C_1  and  C_2
REMARK    2  A    between atoms: C_2  and  C_3
REMARK    3  A    between atoms: C_3  and  C_4
REMARK    4  A    between atoms: C_4  and  C_5
REMARK    5  A    between atoms: C_5  and  C_6
REMARK    6  A    between atoms: C_6  and  C_7
REMARK    7  A    between atoms: C_8  and  C_9
REMARK    8  A    between atoms: N_11  and  C_12
REMARK    9  A    between atoms: C_12  and  C_13
REMARK   10  A    between atoms: C_13  and  C_14
REMARK   11  A    between atoms: C_17  and  N_18
REMARK                            x       y       z     vdW  Elec       q    Type
REMARK                         _______ _______ _______ _____ _____    ______ ____
ROOT
ATOM      1  C   UNL     1       7.250   6.584  17.312  0.00  0.00    +0.000 C 
ATOM      2  O   UNL     1       7.158   6.107  18.435  0.00  0.00    +0.000 OA
ATOM      3  N   UNL     1       7.675   7.881  17.086  0.00  0.00    +0.000 N 
ATOM      4  H   UNL     1       7.388   8.307  16.216  0.00  0.00    +0.000 HD
ENDROOT
BRANCH   1   6
ATOM      5  C   UNL     1       5.764   5.143  15.769  0.00  0.00    +0.000 A 
ATOM      6  C   UNL     1       6.910   5.867  16.094  0.00  0.00    +0.000 A 
ATOM      7  N   UNL     1       7.756   5.772  15.009  0.00  0.00    +0.000 N 
ATOM      8  C   UNL     1       7.199   5.026  14.003  0.00  0.00    +0.000 A 
ATOM      9  C   UNL     1       7.700   4.718  12.734  0.00  0.00    +0.000 A 
ATOM     10  C   UNL     1       6.926   3.888  11.919  0.00  0.00    +0.000 A 
ATOM     11  C   UNL     1       5.705   3.391  12.368  0.00  0.00    +0.000 A 
ATOM     12 CL   UNL     1       4.791   2.345  11.349  0.00  0.00    +0.000 Cl
ATOM     13  C   UNL     1       5.208   3.726  13.631  0.00  0.00    +0.000 A 
ATOM     14  C   UNL     1       5.968   4.572  14.467  0.00  0.00    +0.000 A 
ATOM     15  H   UNL     1       8.679   6.177  14.974  0.00  0.00    +0.000 HD
BRANCH   5  16
ATOM     16  C   UNL     1       4.510   5.018  16.590  0.00  0.00    +0.000 C 
BRANCH  16  17
ATOM     17  C   UNL     1       4.311   3.581  17.077  0.00  0.00    +0.000 C 
BRANCH  17  18
ATOM     18  C   UNL     1       2.862   3.277  17.446  0.00  0.00    +0.000 C 
BRANCH  18  19
ATOM     19  C   UNL     1       2.146   4.568  17.847  0.00  0.00    +0.000 C 
BRANCH  19  21
ATOM     20  C   UNL     1       1.002   3.487  19.802  0.00  0.00    +0.000 C 
ATOM     21  C   UNL     1       1.893   4.633  19.349  0.00  0.00    +0.000 C 
ENDBRANCH  19  21
ENDBRANCH  18  19
ENDBRANCH  17  18
ENDBRANCH  16  17
ENDBRANCH   5  16
ENDBRANCH   1   6
BRANCH   3  22
ATOM     22  C   UNL     1       7.991   8.768  18.193  0.00  0.00    +0.000 C 
BRANCH  22  23
ATOM     23  C   UNL     1       9.013   9.831  17.780  0.00  0.00    +0.000 C 
BRANCH  23  24
ATOM     24  C   UNL     1       9.143  10.936  18.795  0.00  0.00    +0.000 A 
ATOM     25  C   UNL     1       9.043  12.273  18.408  0.00  0.00    +0.000 A 
ATOM     26  C   UNL     1       9.178  13.296  19.354  0.00  0.00    +0.000 A 
ATOM     27  C   UNL     1       9.413  13.028  20.711  0.00  0.00    +0.000 A 
ATOM     28  C   UNL     1       9.504  11.680  21.080  0.00  0.00    +0.000 A 
ATOM     29  C   UNL     1       9.376  10.647  20.142  0.00  0.00    +0.000 A 
BRANCH  27  30
ATOM     30  N   UNL     1       9.502  14.059  21.627  0.00  0.00    +0.000 N 
ATOM     31  C   UNL     1       8.794  14.028  22.905  0.00  0.00    +0.000 C 
ATOM     32  C   UNL     1       8.151  15.399  23.128  0.00  0.00    +0.000 C 
ATOM     33  C   UNL     1       9.171  16.533  23.014  0.00  0.00    +0.000 C 
ATOM     34  C   UNL     1       9.979  16.440  21.718  0.00  0.00    +0.000 C 
ATOM     35  C   UNL     1      10.578  15.047  21.534  0.00  0.00    +0.000 C 
ENDBRANCH  27  30
ENDBRANCH  23  24
ENDBRANCH  22  23
ENDBRANCH   3  22
TORSDOF 10
ENDMDL
MODEL 5
REMARK VINA RESULT:      -8.2      2.468      3.998
REMARK  Name = 
REMARK  11 active torsions:
REMARK  status: ('A' for Active; 'I' for Inactive)
REMARK    1  A    between atoms: C_1  and  C_2
REMARK    2  A    between atoms: C_2  and  C_3
REMARK    3  A    between atoms: C_3  and  C_4
REMARK    4  A    between atoms: C_4  and  C_5
REMARK    5  A    between atoms: C_5  and  C_6
REMARK    6  A    between atoms: C_6  and  C_7
REMARK    7  A    between atoms: C_8  and  C_9
REMARK    8  A    between atoms: N_11  and  C_12
REMARK    9  A    between atoms: C_12  and  C_13
REMARK   10  A    between atoms: C_13  and  C_14
REMARK   11  A    between atoms: C_17  and  N_18
REMARK                            x       y       z     vdW  Elec       q    Type
REMARK                         _______ _______ _______ _____ _____    ______ ____
ROOT
ATOM      1  C   UNL     1       6.968   6.246  18.318  0.00  0.00    +0.000 C 
ATOM      2  O   UNL     1       8.054   5.850  18.717  0.00  0.00    +0.000 OA
ATOM      3  N   UNL     1       6.817   7.438  17.630  0.00  0.00    +0.000 N 
ATOM      4  H   UNL     1       5.901   7.862  17.657  0.00  0.00    +0.000 HD
ENDROOT
BRANCH   1   6
ATOM      5  C   UNL     1       5.048   4.632  17.707  0.00  0.00    +0.000 A 
ATOM      6  C   UNL     1       5.717   5.538  18.529  0.00  0.00    +0.000 A 
ATOM      7  N   UNL     1       4.937   5.696  19.656  0.00  0.00    +0.000 N 
ATOM      8  C   UNL     1       3.804   4.928  19.593  0.00  0.00    +0.000 A 
ATOM      9  C   UNL     1       2.777   4.768  20.530  0.00  0.00    +0.000 A 
ATOM     10  C   UNL     1       1.706   3.943  20.177  0.00  0.00    +0.000 A 
ATOM     11  C   UNL     1       1.674   3.312  18.936  0.00  0.00    +0.000 A 
ATOM     12 CL   UNL     1       0.323   2.326  18.523  0.00  0.00    +0.000 Cl
ATOM     13  C   UNL     1       2.719   3.465  18.021  0.00  0.00    +0.000 A 
ATOM     14  C   UNL     1       3.817   4.285  18.359  0.00  0.00    +0.000 A 
ATOM     15  H   UNL     1       5.161   6.321  20.415  0.00  0.00    +0.000 HD
BRANCH   5  16
ATOM     16  C   UNL     1       5.535   4.065  16.402  0.00  0.00    +0.000 C 
BRANCH  16  17
ATOM     17  C   UNL     1       5.480   5.115  15.291  0.00  0.00    +0.000 C 
BRANCH  17  18
ATOM     18  C   UNL     1       6.524   4.880  14.202  0.00  0.00    +0.000 C 
BRANCH  18  19
ATOM     19  C   UNL     1       6.352   3.480  13.610  0.00  0.00    +0.000 C 
BRANCH  19  21
ATOM     20  C   UNL     1       5.544   2.323  11.534  0.00  0.00    +0.000 C 
ATOM     21  C   UNL     1       5.288   3.453  12.519  0.00  0.00    +0.000 C 
ENDBRANCH  19  21
ENDBRANCH  18  19
ENDBRANCH  17  18
ENDBRANCH  16  17
ENDBRANCH   5  16
ENDBRANCH   1   6
BRANCH   3  22
ATOM     22  C   UNL     1       7.952   8.312  17.390  0.00  0.00    +0.000 C 
BRANCH  22  23
ATOM     23  C   UNL     1       8.525   8.856  18.702  0.00  0.00    +0.000 C 
BRANCH  23  24
ATOM     24  C   UNL     1       8.925  10.303  18.604  0.00  0.00    +0.000 A 
ATOM     25  C   UNL     1       9.927  10.822  19.425  0.00  0.00    +0.000 A 
ATOM     26  C   UNL     1      10.285  12.173  19.339  0.00  0.00    +0.000 A 
ATOM     27  C   UNL     1       9.666  13.051  18.436  0.00  0.00    +0.000 A 
ATOM     28  C   UNL     1       8.668  12.510  17.617  0.00  0.00    +0.000 A 
ATOM     29  C   UNL     1       8.296  11.161  17.697  0.00  0.00    +0.000 A 
BRANCH  27  30
ATOM     30  N   UNL     1      10.070  14.369  18.347  0.00  0.00    +0.000 N 
ATOM     31  C   UNL     1      11.364  14.750  17.784  0.00  0.00    +0.000 C 
ATOM     32  C   UNL     1      11.992  15.804  18.701  0.00  0.00    +0.000 C 
ATOM     33  C   UNL     1      11.050  16.985  18.941  0.00  0.00    +0.000 C 
ATOM     34  C   UNL     1       9.666  16.521  19.400  0.00  0.00    +0.000 C 
ATOM     35  C   UNL     1       9.097  15.456  18.465  0.00  0.00    +0.000 C 
ENDBRANCH  27  30
ENDBRANCH  23  24
ENDBRANCH  22  23
ENDBRANCH   3  22
TORSDOF 10
ENDMDL
MODEL 6
REMARK VINA RESULT:      -8.2      2.788      3.713
REMARK  Name = 
REMARK  11 active torsions:
REMARK  status: ('A' for Active; 'I' for Inactive)
REMARK    1  A    between atoms: C_1  and  C_2
REMARK    2  A    between atoms: C_2  and  C_3
REMARK    3  A    between atoms: C_3  and  C_4
REMARK    4  A    between atoms: C_4  and  C_5
REMARK    5  A    between atoms: C_5  and  C_6
REMARK    6  A    between atoms: C_6  and  C_7
REMARK    7  A    between atoms: C_8  and  C_9
REMARK    8  A    between atoms: N_11  and  C_12
REMARK    9  A    between atoms: C_12  and  C_13
REMARK   10  A    between atoms: C_13  and  C_14
REMARK   11  A    between atoms: C_17  and  N_18
REMARK                            x       y       z     vdW  Elec       q    Type
REMARK                         _______ _______ _______ _____ _____    ______ ____
ROOT
ATOM      1  C   UNL     1       7.250   6.563  17.338  0.00  0.00    +0.000 C 
ATOM      2  O   UNL     1       7.350   6.043  18.441  0.00  0.00    +0.000 OA
ATOM      3  N   UNL     1       7.380   7.927  17.143  0.00  0.00    +0.000 N 
ATOM      4  H   UNL     1       6.941   8.310  16.318  0.00  0.00    +0.000 HD
ENDROOT
BRANCH   1   6
ATOM      5  C   UNL     1       5.901   4.983  15.804  0.00  0.00    +0.000 A 
ATOM      6  C   UNL     1       6.966   5.828  16.117  0.00  0.00    +0.000 A 
ATOM      7  N   UNL     1       7.790   5.846  15.012  0.00  0.00    +0.000 N 
ATOM      8  C   UNL     1       7.299   5.055  14.007  0.00  0.00    +0.000 A 
ATOM      9  C   UNL     1       7.802   4.823  12.722  0.00  0.00    +0.000 A 
ATOM     10  C   UNL     1       7.107   3.922  11.911  0.00  0.00    +0.000 A 
ATOM     11  C   UNL     1       5.962   3.283  12.378  0.00  0.00    +0.000 A 
ATOM     12 CL   UNL     1       5.148   2.154  11.362  0.00  0.00    +0.000 Cl
ATOM     13  C   UNL     1       5.460   3.542  13.657  0.00  0.00    +0.000 A 
ATOM     14  C   UNL     1       6.138   4.458  14.490  0.00  0.00    +0.000 A 
ATOM     15  H   UNL     1       8.660   6.353  14.964  0.00  0.00    +0.000 HD
BRANCH   5  16
ATOM     16  C   UNL     1       4.689   4.705  16.651  0.00  0.00    +0.000 C 
BRANCH  16  17
ATOM     17  C   UNL     1       4.094   6.002  17.203  0.00  0.00    +0.000 C 
BRANCH  17  18
ATOM     18  C   UNL     1       2.904   5.760  18.127  0.00  0.00    +0.000 C 
BRANCH  18  19
ATOM     19  C   UNL     1       2.487   7.072  18.794  0.00  0.00    +0.000 C 
BRANCH  19  21
ATOM     20  C   UNL     1       1.424   9.196  17.981  0.00  0.00    +0.000 C 
ATOM     21  C   UNL     1       2.612   8.256  17.841  0.00  0.00    +0.000 C 
ENDBRANCH  19  21
ENDBRANCH  18  19
ENDBRANCH  17  18
ENDBRANCH  16  17
ENDBRANCH   5  16
ENDBRANCH   1   6
BRANCH   3  22
ATOM     22  C   UNL     1       7.597   8.826  18.264  0.00  0.00    +0.000 C 
BRANCH  22  23
ATOM     23  C   UNL     1       9.079   9.185  18.411  0.00  0.00    +0.000 C 
BRANCH  23  24
ATOM     24  C   UNL     1       9.316  10.671  18.426  0.00  0.00    +0.000 A 
ATOM     25  C   UNL     1       8.490  11.531  17.702  0.00  0.00    +0.000 A 
ATOM     26  C   UNL     1       8.725  12.911  17.709  0.00  0.00    +0.000 A 
ATOM     27  C   UNL     1       9.782  13.483  18.434  0.00  0.00    +0.000 A 
ATOM     28  C   UNL     1      10.596  12.604  19.158  0.00  0.00    +0.000 A 
ATOM     29  C   UNL     1      10.375  11.220  19.155  0.00  0.00    +0.000 A 
BRANCH  27  30
ATOM     30  N   UNL     1       9.963  14.853  18.452  0.00  0.00    +0.000 N 
ATOM     31  C   UNL     1       9.349  15.705  19.468  0.00  0.00    +0.000 C 
ATOM     32  C   UNL     1       8.758  16.933  18.768  0.00  0.00    +0.000 C 
ATOM     33  C   UNL     1       9.796  17.650  17.904  0.00  0.00    +0.000 C 
ATOM     34  C   UNL     1      10.506  16.685  16.952  0.00  0.00    +0.000 C 
ATOM     35  C   UNL     1      11.054  15.470  17.697  0.00  0.00    +0.000 C 
ENDBRANCH  27  30
ENDBRANCH  23  24
ENDBRANCH  22  23
ENDBRANCH   3  22
TORSDOF 10
ENDMDL
MODEL 7
REMARK VINA RESULT:      -8.2      5.949      9.458
REMARK  Name = 
REMARK  11 active torsions:
REMARK  status: ('A' for Active; 'I' for Inactive)
REMARK    1  A    between atoms: C_1  and  C_2
REMARK    2  A    between atoms: C_2  and  C_3
REMARK    3  A    between atoms: C_3  and  C_4
REMARK    4  A    between atoms: C_4  and  C_5
REMARK    5  A    between atoms: C_5  and  C_6
REMARK    6  A    between atoms: C_6  and  C_7
REMARK    7  A    between atoms: C_8  and  C_9
REMARK    8  A    between atoms: N_11  and  C_12
REMARK    9  A    between atoms: C_12  and  C_13
REMARK   10  A    between atoms: C_13  and  C_14
REMARK   11  A    between atoms: C_17  and  N_18
REMARK                            x       y       z     vdW  Elec       q    Type
REMARK                         _______ _______ _______ _____ _____    ______ ____
ROOT
ATOM      1  C   UNL     1       2.240   6.176  20.209  0.00  0.00    +0.000 C 
ATOM      2  O   UNL     1       1.797   5.316  20.957  0.00  0.00    +0.000 OA
ATOM      3  N   UNL     1       1.893   7.512  20.322  0.00  0.00    +0.000 N 
ATOM      4  H   UNL     1       1.994   8.077  19.492  0.00  0.00    +0.000 HD
ENDROOT
BRANCH   1   6
ATOM      5  C   UNL     1       2.985   5.126  17.971  0.00  0.00    +0.000 A 
ATOM      6  C   UNL     1       3.156   5.908  19.114  0.00  0.00    +0.000 A 
ATOM      7  N   UNL     1       4.439   6.410  19.058  0.00  0.00    +0.000 N 
ATOM      8  C   UNL     1       5.094   5.989  17.930  0.00  0.00    +0.000 A 
ATOM      9  C   UNL     1       6.382   6.291  17.476  0.00  0.00    +0.000 A 
ATOM     10  C   UNL     1       6.811   5.677  16.296  0.00  0.00    +0.000 A 
ATOM     11  C   UNL     1       5.978   4.796  15.611  0.00  0.00    +0.000 A 
ATOM     12 CL   UNL     1       6.550   4.033  14.177  0.00  0.00    +0.000 Cl
ATOM     13  C   UNL     1       4.685   4.522  16.066  0.00  0.00    +0.000 A 
ATOM     14  C   UNL     1       4.226   5.139  17.250  0.00  0.00    +0.000 A 
ATOM     15  H   UNL     1       4.852   6.988  19.773  0.00  0.00    +0.000 HD
BRANCH   5  16
ATOM     16  C   UNL     1       1.725   4.436  17.529  0.00  0.00    +0.000 C 
BRANCH  16  17
ATOM     17  C   UNL     1       1.601   3.052  18.169  0.00  0.00    +0.000 C 
BRANCH  17  18
ATOM     18  C   UNL     1       2.585   2.041  17.586  0.00  0.00    +0.000 C 
BRANCH  18  19
ATOM     19  C   UNL     1       3.353   1.353  18.716  0.00  0.00    +0.000 C 
BRANCH  19  21
ATOM     20  C   UNL     1       3.547   2.380  20.998  0.00  0.00    +0.000 C 
ATOM     21  C   UNL     1       4.105   2.356  19.583  0.00  0.00    +0.000 C 
ENDBRANCH  19  21
ENDBRANCH  18  19
ENDBRANCH  17  18
ENDBRANCH  16  17
ENDBRANCH   5  16
ENDBRANCH   1   6
BRANCH   3  22
ATOM     22  C   UNL     1       0.932   7.953  21.319  0.00  0.00    +0.000 C 
BRANCH  22  23
ATOM     23  C   UNL     1       1.339   9.298  21.927  0.00  0.00    +0.000 C 
BRANCH  23  24
ATOM     24  C   UNL     1       0.194  10.274  21.995  0.00  0.00    +0.000 A 
ATOM     25  C   UNL     1      -0.614  10.345  23.130  0.00  0.00    +0.000 A 
ATOM     26  C   UNL     1      -1.685  11.245  23.181  0.00  0.00    +0.000 A 
ATOM     27  C   UNL     1      -1.988  12.103  22.113  0.00  0.00    +0.000 A 
ATOM     28  C   UNL     1      -1.162  12.020  20.986  0.00  0.00    +0.000 A 
ATOM     29  C   UNL     1      -0.090  11.120  20.919  0.00  0.00    +0.000 A 
BRANCH  27  30
ATOM     30  N   UNL     1      -3.028  13.008  22.210  0.00  0.00    +0.000 N 
ATOM     31  C   UNL     1      -2.818  14.392  22.630  0.00  0.00    +0.000 C 
ATOM     32  C   UNL     1      -3.910  14.754  23.641  0.00  0.00    +0.000 C 
ATOM     33  C   UNL     1      -5.310  14.481  23.091  0.00  0.00    +0.000 C 
ATOM     34  C   UNL     1      -5.435  13.059  22.540  0.00  0.00    +0.000 C 
ATOM     35  C   UNL     1      -4.310  12.742  21.556  0.00  0.00    +0.000 C 
ENDBRANCH  27  30
ENDBRANCH  23  24
ENDBRANCH  22  23
ENDBRANCH   3  22
TORSDOF 10
ENDMDL
MODEL 8
REMARK VINA RESULT:      -8.2      2.835      3.956
REMARK  Name = 
REMARK  11 active torsions:
REMARK  status: ('A' for Active; 'I' for Inactive)
REMARK    1  A    between atoms: C_1  and  C_2
REMARK    2  A    between atoms: C_2  and  C_3
REMARK    3  A    between atoms: C_3  and  C_4
REMARK    4  A    between atoms: C_4  and  C_5
REMARK    5  A    between atoms: C_5  and  C_6
REMARK    6  A    between atoms: C_6  and  C_7
REMARK    7  A    between atoms: C_8  and  C_9
REMARK    8  A    between atoms: N_11  and  C_12
REMARK    9  A    between atoms: C_12  and  C_13
REMARK   10  A    between atoms: C_13  and  C_14
REMARK   11  A    between atoms: C_17  and  N_18
REMARK                            x       y       z     vdW  Elec       q    Type
REMARK                         _______ _______ _______ _____ _____    ______ ____
ROOT
ATOM      1  C   UNL     1       7.111   5.750  17.738  0.00  0.00    +0.000 C 
ATOM      2  O   UNL     1       7.931   5.438  16.886  0.00  0.00    +0.000 OA
ATOM      3  N   UNL     1       7.245   6.883  18.522  0.00  0.00    +0.000 N 
ATOM      4  H   UNL     1       6.758   6.881  19.407  0.00  0.00    +0.000 HD
ENDROOT
BRANCH   1   6
ATOM      5  C   UNL     1       4.830   4.646  17.240  0.00  0.00    +0.000 A 
ATOM      6  C   UNL     1       5.921   4.973  18.044  0.00  0.00    +0.000 A 
ATOM      7  N   UNL     1       5.672   4.425  19.285  0.00  0.00    +0.000 N 
ATOM      8  C   UNL     1       4.475   3.759  19.308  0.00  0.00    +0.000 A 
ATOM      9  C   UNL     1       3.869   3.041  20.344  0.00  0.00    +0.000 A 
ATOM     10  C   UNL     1       2.607   2.493  20.097  0.00  0.00    +0.000 A 
ATOM     11  C   UNL     1       1.987   2.668  18.863  0.00  0.00    +0.000 A 
ATOM     12 CL   UNL     1       0.418   2.006  18.603  0.00  0.00    +0.000 Cl
ATOM     13  C   UNL     1       2.616   3.369  17.830  0.00  0.00    +0.000 A 
ATOM     14  C   UNL     1       3.895   3.921  18.053  0.00  0.00    +0.000 A 
ATOM     15  H   UNL     1       6.282   4.528  20.081  0.00  0.00    +0.000 HD
BRANCH   5  16
ATOM     16  C   UNL     1       4.668   4.940  15.773  0.00  0.00    +0.000 C 
BRANCH  16  17
ATOM     17  C   UNL     1       5.302   3.840  14.919  0.00  0.00    +0.000 C 
BRANCH  17  18
ATOM     18  C   UNL     1       6.156   4.393  13.781  0.00  0.00    +0.000 C 
BRANCH  18  19
ATOM     19  C   UNL     1       6.320   3.333  12.690  0.00  0.00    +0.000 C 
BRANCH  19  21
ATOM     20  C   UNL     1       4.140   3.211  11.452  0.00  0.00    +0.000 C 
ATOM     21  C   UNL     1       5.576   3.712  11.415  0.00  0.00    +0.000 C 
ENDBRANCH  19  21
ENDBRANCH  18  19
ENDBRANCH  17  18
ENDBRANCH  16  17
ENDBRANCH   5  16
ENDBRANCH   1   6
BRANCH   3  22
ATOM     22  C   UNL     1       8.410   7.742  18.402  0.00  0.00    +0.000 C 
BRANCH  22  23
ATOM     23  C   UNL     1       8.060   9.061  17.708  0.00  0.00    +0.000 C 
BRANCH  23  24
ATOM     24  C   UNL     1       8.724  10.249  18.352  0.00  0.00    +0.000 A 
ATOM     25  C   UNL     1       8.759  11.484  17.703  0.00  0.00    +0.000 A 
ATOM     26  C   UNL     1       9.390  12.581  18.301  0.00  0.00    +0.000 A 
ATOM     27  C   UNL     1      10.003  12.492  19.560  0.00  0.00    +0.000 A 
ATOM     28  C   UNL     1       9.952  11.246  20.198  0.00  0.00    +0.000 A 
ATOM     29  C   UNL     1       9.328  10.138  19.607  0.00  0.00    +0.000 A 
BRANCH  27  30
ATOM     30  N   UNL     1      10.582  13.603  20.142  0.00  0.00    +0.000 N 
ATOM     31  C   UNL     1      10.185  14.087  21.462  0.00  0.00    +0.000 C 
ATOM     32  C   UNL     1      10.035  15.609  21.387  0.00  0.00    +0.000 C 
ATOM     33  C   UNL     1      11.294  16.280  20.836  0.00  0.00    +0.000 C 
ATOM     34  C   UNL     1      11.744  15.644  19.519  0.00  0.00    +0.000 C 
ATOM     35  C   UNL     1      11.855  14.126  19.642  0.00  0.00    +0.000 C 
ENDBRANCH  27  30
ENDBRANCH  23  24
ENDBRANCH  22  23
ENDBRANCH   3  22
TORSDOF 10
ENDMDL
MODEL 9
REMARK VINA RESULT:      -8.0      5.518      7.523
REMARK  Name = 
REMARK  11 active torsions:
REMARK  status: ('A' for Active; 'I' for Inactive)
REMARK    1  A    between atoms: C_1  and  C_2
REMARK    2  A    between atoms: C_2  and  C_3
REMARK    3  A    between atoms: C_3  and  C_4
REMARK    4  A    between atoms: C_4  and  C_5
REMARK    5  A    between atoms: C_5  and  C_6
REMARK    6  A    between atoms: C_6  and  C_7
REMARK    7  A    between atoms: C_8  and  C_9
REMARK    8  A    between atoms: N_11  and  C_12
REMARK    9  A    between atoms: C_12  and  C_13
REMARK   10  A    between atoms: C_13  and  C_14
REMARK   11  A    between atoms: C_17  and  N_18
REMARK                            x       y       z     vdW  Elec       q    Type
REMARK                         _______ _______ _______ _____ _____    ______ ____
ROOT
ATOM      1  C   UNL     1       1.304   8.313  20.303  0.00  0.00    +0.000 C 
ATOM      2  O   UNL     1       1.001   7.958  21.434  0.00  0.00    +0.000 OA
ATOM      3  N   UNL     1       0.805   9.469  19.727  0.00  0.00    +0.000 N 
ATOM      4  H   UNL     1       0.800   9.506  18.718  0.00  0.00    +0.000 HD
ENDROOT
BRANCH   1   6
ATOM      5  C   UNL     1       2.677   6.265  19.537  0.00  0.00    +0.000 A 
ATOM      6  C   UNL     1       2.193   7.569  19.428  0.00  0.00    +0.000 A 
ATOM      7  N   UNL     1       2.751   8.100  18.284  0.00  0.00    +0.000 N 
ATOM      8  C   UNL     1       3.564   7.194  17.655  0.00  0.00    +0.000 A 
ATOM      9  C   UNL     1       4.284   7.313  16.462  0.00  0.00    +0.000 A 
ATOM     10  C   UNL     1       5.077   6.229  16.076  0.00  0.00    +0.000 A 
ATOM     11  C   UNL     1       5.140   5.081  16.861  0.00  0.00    +0.000 A 
ATOM     12 CL   UNL     1       6.152   3.776  16.370  0.00  0.00    +0.000 Cl
ATOM     13  C   UNL     1       4.397   4.969  18.039  0.00  0.00    +0.000 A 
ATOM     14  C   UNL     1       3.581   6.047  18.443  0.00  0.00    +0.000 A 
ATOM     15  H   UNL     1       2.601   9.046  17.968  0.00  0.00    +0.000 HD
BRANCH   5  16
ATOM     16  C   UNL     1       2.292   5.242  20.570  0.00  0.00    +0.000 C 
BRANCH  16  17
ATOM     17  C   UNL     1       1.046   4.466  20.138  0.00  0.00    +0.000 C 
BRANCH  17  18
ATOM     18  C   UNL     1       1.249   2.954  20.177  0.00  0.00    +0.000 C 
BRANCH  18  19
ATOM     19  C   UNL     1       0.942   2.352  18.805  0.00  0.00    +0.000 C 
BRANCH  19  21
ATOM     20  C   UNL     1       3.301   1.552  18.494  0.00  0.00    +0.000 C 
ATOM     21  C   UNL     1       2.165   2.365  17.894  0.00  0.00    +0.000 C 
ENDBRANCH  19  21
ENDBRANCH  18  19
ENDBRANCH  17  18
ENDBRANCH  16  17
ENDBRANCH   5  16
ENDBRANCH   1   6
BRANCH   3  22
ATOM     22  C   UNL     1      -0.154  10.303  20.432  0.00  0.00    +0.000 C 
BRANCH  22  23
ATOM     23  C   UNL     1       0.550  11.364  21.282  0.00  0.00    +0.000 C 
BRANCH  23  24
ATOM     24  C   UNL     1       0.623  12.702  20.596  0.00  0.00    +0.000 A 
ATOM     25  C   UNL     1       1.801  13.119  19.975  0.00  0.00    +0.000 A 
ATOM     26  C   UNL     1       1.867  14.370  19.350  0.00  0.00    +0.000 A 
ATOM     27  C   UNL     1       0.771  15.245  19.318  0.00  0.00    +0.000 A 
ATOM     28  C   UNL     1      -0.403  14.806  19.942  0.00  0.00    +0.000 A 
ATOM     29  C   UNL     1      -0.481  13.558  20.575  0.00  0.00    +0.000 A 
BRANCH  27  30
ATOM     30  N   UNL     1       0.856  16.457  18.658  0.00  0.00    +0.000 N 
ATOM     31  C   UNL     1      -0.266  17.391  18.599  0.00  0.00    +0.000 C 
ATOM     32  C   UNL     1      -0.383  17.905  17.161  0.00  0.00    +0.000 C 
ATOM     33  C   UNL     1       0.936  18.491  16.656  0.00  0.00    +0.000 C 
ATOM     34  C   UNL     1       2.103  17.524  16.866  0.00  0.00    +0.000 C 
ATOM     35  C   UNL     1       2.159  17.024  18.308  0.00  0.00    +0.000 C 
ENDBRANCH  27  30
ENDBRANCH  23  24
ENDBRANCH  22  23
ENDBRANCH   3  22
TORSDOF 10
ENDMDL
