MODEL 1
REMARK VINA RESULT:      -8.6      0.000      0.000
REMARK  Name = 
REMARK  8 active torsions:
REMARK  status: ('A' for Active; 'I' for Inactive)
REMARK    1  A    between atoms: C_1  and  C_2
REMARK    2  A    between atoms: C_2  and  S_3
REMARK    3  A    between atoms: C_2  and  C_10
REMARK    4  A    between atoms: S_3  and  C_4
REMARK    5  A    between atoms: N_8  and  C_9
REMARK    6  A    between atoms: C_14  and  N_15
REMARK    7  A    between atoms: C_16  and  C_18
REMARK    8  A    between atoms: C_20  and  C_21
REMARK                            x       y       z     vdW  Elec       q    Type
REMARK                         _______ _______ _______ _____ _____    ______ ____
ROOT
ATOM      1  C   UNL     1       4.220   4.864  16.826  0.00  0.00    +0.000 A 
ATOM      2  C   UNL     1       3.587   3.629  17.042  0.00  0.00    +0.000 A 
ATOM      3  C   UNL     1       2.444   3.538  17.832  0.00  0.00    +0.000 A 
ATOM      4  C   UNL     1       1.927   4.674  18.444  0.00  0.00    +0.000 A 
ATOM      5  C   UNL     1       2.531   5.919  18.264  0.00  0.00    +0.000 A 
ATOM      6  C   UNL     1       3.647   6.013  17.421  0.00  0.00    +0.000 A 
ENDROOT
BRANCH   5   7
ATOM      7  N   UNL     1       2.077   7.085  18.918  0.00  0.00    +0.000 N 
ATOM      8  C   UNL     1       2.005   8.350  18.359  0.00  0.00    +0.000 C 
ATOM      9  O   UNL     1       2.310   8.668  17.213  0.00  0.00    +0.000 OA
ATOM     10  H   UNL     1       1.668   6.993  19.844  0.00  0.00    +0.000 HD
BRANCH   8  11
ATOM     11  C   UNL     1       1.452   9.408  19.258  0.00  0.00    +0.000 A 
ATOM     12  C   UNL     1       0.840   9.028  20.449  0.00  0.00    +0.000 A 
ATOM     13  C   UNL     1       0.333  10.011  21.312  0.00  0.00    +0.000 A 
ATOM     14  C   UNL     1       0.462  11.346  20.929  0.00  0.00    +0.000 A 
ATOM     15 CL   UNL     1      -0.108  12.650  21.896  0.00  0.00    +0.000 Cl
ATOM     16  C   UNL     1       1.086  11.633  19.716  0.00  0.00    +0.000 A 
ATOM     17  N   UNL     1       1.591  10.701  18.868  0.00  0.00    +0.000 NA
BRANCH  13  18
ATOM     18  C   UNL     1      -0.311   9.608  22.608  0.00  0.00    +0.000 C 
ATOM     19  F   UNL     1       0.577   9.524  23.640  0.00  0.00    +0.000 F 
ATOM     20  F   UNL     1      -1.261  10.490  23.020  0.00  0.00    +0.000 F 
ATOM     21  F   UNL     1      -0.911   8.390  22.549  0.00  0.00    +0.000 F 
ENDBRANCH  13  18
ENDBRANCH   8  11
ENDBRANCH   5   7
BRANCH   1  23
ATOM     22  C   UNL     1       5.573   4.019  14.806  0.00  0.00    +0.000 C 
ATOM     23  C   UNL     1       5.509   4.985  16.001  0.00  0.00    +0.000 C 
BRANCH  23  24
ATOM     24  S   UNL     1       6.958   4.692  17.111  0.00  0.00    +0.000 S 
BRANCH  24  25
ATOM     25  C   UNL     1       7.428   6.295  17.536  0.00  0.00    +0.000 A 
ATOM     26  N   UNL     1       7.363   7.373  16.786  0.00  0.00    +0.000 NA
ATOM     27  N   UNL     1       7.952   8.403  17.489  0.00  0.00    +0.000 NA
ATOM     28  C   UNL     1       8.331   7.926  18.652  0.00  0.00    +0.000 A 
ATOM     29  N   UNL     1       7.990   6.610  18.738  0.00  0.00    +0.000 N 
ATOM     30  C   UNL     1       8.203   5.749  19.871  0.00  0.00    +0.000 C 
ENDBRANCH  24  25
ENDBRANCH  23  24
ENDBRANCH   1  23
TORSDOF 6
ENDMDL
MODEL 2
REMARK VINA RESULT:      -8.4      2.575      3.476
REMARK  Name = 
REMARK  8 active torsions:
REMARK  status: ('A' for Active; 'I' for Inactive)
REMARK    1  A    between atoms: C_1  and  C_2
REMARK    2  A    between atoms: C_2  and  S_3
REMARK    3  A    between atoms: C_2  and  C_10
REMARK    4  A    between atoms: S_3  and  C_4
REMARK    5  A    between atoms: N_8  and  C_9
REMARK    6  A    between atoms: C_14  and  N_15
REMARK    7  A    between atoms: C_16  and  C_18
REMARK    8  A    between atoms: C_20  and  C_21
REMARK                            x       y       z     vdW  Elec       q    Type
REMARK                         _______ _______ _______ _____ _____    ______ ____
ROOT
ATOM      1  C   UNL     1       4.626   5.062  17.906  0.00  0.00    +0.000 A 
ATOM      2  C   UNL     1       4.594   3.757  18.428  0.00  0.00    +0.000 A 
ATOM      3  C   UNL     1       3.776   3.437  19.507  0.00  0.00    +0.000 A 
ATOM      4  C   UNL     1       2.994   4.419  20.106  0.00  0.00    +0.000 A 
ATOM      5  C   UNL     1       3.003   5.729  19.627  0.00  0.00    +0.000 A 
ATOM      6  C   UNL     1       3.785   6.031  18.503  0.00  0.00    +0.000 A 
ENDROOT
BRANCH   5   7
ATOM      7  N   UNL     1       2.275   6.769  20.244  0.00  0.00    +0.000 N 
ATOM      8  C   UNL     1       1.869   7.945  19.636  0.00  0.00    +0.000 C 
ATOM      9  O   UNL     1       2.062   8.276  18.469  0.00  0.00    +0.000 OA
ATOM     10  H   UNL     1       1.920   6.618  21.184  0.00  0.00    +0.000 HD
BRANCH   8  11
ATOM     11  C   UNL     1       1.077   8.866  20.506  0.00  0.00    +0.000 A 
ATOM     12  C   UNL     1       0.443   9.961  19.925  0.00  0.00    +0.000 A 
ATOM     13  C   UNL     1      -0.320  10.824  20.725  0.00  0.00    +0.000 A 
ATOM     14  C   UNL     1      -0.406  10.546  22.089  0.00  0.00    +0.000 A 
ATOM     15 CL   UNL     1      -1.313  11.518  23.181  0.00  0.00    +0.000 Cl
ATOM     16  C   UNL     1       0.267   9.429  22.584  0.00  0.00    +0.000 A 
ATOM     17  N   UNL     1       1.005   8.575  21.829  0.00  0.00    +0.000 NA
BRANCH  13  18
ATOM     18  C   UNL     1      -1.024  11.996  20.101  0.00  0.00    +0.000 C 
ATOM     19  F   UNL     1      -0.655  13.191  20.647  0.00  0.00    +0.000 F 
ATOM     20  F   UNL     1      -0.769  12.114  18.770  0.00  0.00    +0.000 F 
ATOM     21  F   UNL     1      -2.375  11.940  20.235  0.00  0.00    +0.000 F 
ENDBRANCH  13  18
ENDBRANCH   8  11
ENDBRANCH   5   7
BRANCH   1  23
ATOM     22  C   UNL     1       5.088   6.700  15.976  0.00  0.00    +0.000 C 
ATOM     23  C   UNL     1       5.554   5.455  16.749  0.00  0.00    +0.000 C 
BRANCH  23  24
ATOM     24  S   UNL     1       5.696   4.024  15.587  0.00  0.00    +0.000 S 
BRANCH  24  25
ATOM     25  C   UNL     1       6.811   4.612  14.411  0.00  0.00    +0.000 A 
ATOM     26  N   UNL     1       7.792   5.467  14.597  0.00  0.00    +0.000 NA
ATOM     27  N   UNL     1       8.346   5.737  13.364  0.00  0.00    +0.000 NA
ATOM     28  C   UNL     1       7.702   5.020  12.472  0.00  0.00    +0.000 A 
ATOM     29  N   UNL     1       6.749   4.270  13.093  0.00  0.00    +0.000 N 
ATOM     30  C   UNL     1       5.863   3.329  12.460  0.00  0.00    +0.000 C 
ENDBRANCH  24  25
ENDBRANCH  23  24
ENDBRANCH   1  23
TORSDOF 6
ENDMDL
MODEL 3
REMARK VINA RESULT:      -8.1      5.614      7.881
REMARK  Name = 
REMARK  8 active torsions:
REMARK  status: ('A' for Active; 'I' for Inactive)
REMARK    1  A    between atoms: C_1  and  C_2
REMARK    2  A    between atoms: C_2  and  S_3
REMARK    3  A    between atoms: C_2  and  C_10
REMARK    4  A    between atoms: S_3  and  C_4
REMARK    5  A    between atoms: N_8  and  C_9
REMARK    6  A    between atoms: C_14  and  N_15
REMARK    7  A    between atoms: C_16  and  C_18
REMARK    8  A    between atoms: C_20  and  C_21
REMARK                            x       y       z     vdW  Elec       q    Type
REMARK                         _______ _______ _______ _____ _____    ______ ____
ROOT
ATOM      1  C   UNL     1       4.583   5.755  17.483  0.00  0.00    +0.000 A 
ATOM      2  C   UNL     1       5.343   4.716  16.920  0.00  0.00    +0.000 A 
ATOM      3  C   UNL     1       6.678   4.909  16.576  0.00  0.00    +0.000 A 
ATOM      4  C   UNL     1       7.273   6.152  16.761  0.00  0.00    +0.000 A 
ATOM      5  C   UNL     1       6.552   7.214  17.308  0.00  0.00    +0.000 A 
ATOM      6  C   UNL     1       5.226   6.996  17.706  0.00  0.00    +0.000 A 
ENDROOT
BRANCH   5   7
ATOM      7  N   UNL     1       7.098   8.508  17.453  0.00  0.00    +0.000 N 
ATOM      8  C   UNL     1       8.203   8.839  18.220  0.00  0.00    +0.000 C 
ATOM      9  O   UNL     1       8.893   8.074  18.888  0.00  0.00    +0.000 OA
ATOM     10  H   UNL     1       6.727   9.257  16.875  0.00  0.00    +0.000 HD
BRANCH   8  11
ATOM     11  C   UNL     1       8.597  10.280  18.172  0.00  0.00    +0.000 A 
ATOM     12  C   UNL     1       9.706  10.699  18.901  0.00  0.00    +0.000 A 
ATOM     13  C   UNL     1      10.100  12.044  18.852  0.00  0.00    +0.000 A 
ATOM     14  C   UNL     1       9.347  12.917  18.066  0.00  0.00    +0.000 A 
ATOM     15 CL   UNL     1       9.724  14.588  17.911  0.00  0.00    +0.000 Cl
ATOM     16  C   UNL     1       8.248  12.409  17.374  0.00  0.00    +0.000 A 
ATOM     17  N   UNL     1       7.852  11.110  17.400  0.00  0.00    +0.000 NA
BRANCH  13  18
ATOM     18  C   UNL     1      11.309  12.499  19.621  0.00  0.00    +0.000 C 
ATOM     19  F   UNL     1      12.330  12.907  18.814  0.00  0.00    +0.000 F 
ATOM     20  F   UNL     1      11.047  13.557  20.434  0.00  0.00    +0.000 F 
ATOM     21  F   UNL     1      11.837  11.524  20.407  0.00  0.00    +0.000 F 
ENDBRANCH  13  18
ENDBRANCH   8  11
ENDBRANCH   5   7
BRANCH   1  23
ATOM     22  C   UNL     1       2.733   6.041  19.249  0.00  0.00    +0.000 C 
ATOM     23  C   UNL     1       3.097   5.584  17.826  0.00  0.00    +0.000 C 
BRANCH  23  24
ATOM     24  S   UNL     1       2.636   3.807  17.611  0.00  0.00    +0.000 S 
BRANCH  24  25
ATOM     25  C   UNL     1       2.181   3.347  19.208  0.00  0.00    +0.000 A 
ATOM     26  N   UNL     1       0.990   3.437  19.758  0.00  0.00    +0.000 NA
ATOM     27  N   UNL     1       1.113   3.065  21.079  0.00  0.00    +0.000 NA
ATOM     28  C   UNL     1       2.368   2.736  21.285  0.00  0.00    +0.000 A 
ATOM     29  N   UNL     1       3.069   2.866  20.124  0.00  0.00    +0.000 N 
ATOM     30  C   UNL     1       4.463   2.565  19.935  0.00  0.00    +0.000 C 
ENDBRANCH  24  25
ENDBRANCH  23  24
ENDBRANCH   1  23
TORSDOF 6
ENDMDL
MODEL 4
REMARK VINA RESULT:      -8.1      6.142     10.215
REMARK  Name = 
REMARK  8 active torsions:
REMARK  status: ('A' for Active; 'I' for Inactive)
REMARK    1  A    between atoms: C_1  and  C_2
REMARK    2  A    between atoms: C_2  and  S_3
REMARK    3  A    between atoms: C_2  and  C_10
REMARK    4  A    between atoms: S_3  and  C_4
REMARK    5  A    between atoms: N_8  and  C_9
REMARK    6  A    between atoms: C_14  and  N_15
REMARK    7  A    between atoms: C_16  and  C_18
REMARK    8  A    between atoms: C_20  and  C_21
REMARK                            x       y       z     vdW  Elec       q    Type
REMARK                         _______ _______ _______ _____ _____    ______ ____
ROOT
ATOM      1  C   UNL     1      -2.621  11.215  18.599  0.00  0.00    +0.000 A 
ATOM      2  C   UNL     1      -2.362  12.322  19.425  0.00  0.00    +0.000 A 
ATOM      3  C   UNL     1      -1.159  12.434  20.116  0.00  0.00    +0.000 A 
ATOM      4  C   UNL     1      -0.202  11.430  20.018  0.00  0.00    +0.000 A 
ATOM      5  C   UNL     1      -0.422  10.309  19.218  0.00  0.00    +0.000 A 
ATOM      6  C   UNL     1      -1.611  10.230  18.479  0.00  0.00    +0.000 A 
ENDROOT
BRANCH   5   7
ATOM      7  N   UNL     1       0.494   9.238  19.141  0.00  0.00    +0.000 N 
ATOM      8  C   UNL     1       1.583   9.163  18.289  0.00  0.00    +0.000 C 
ATOM      9  O   UNL     1       1.938  10.008  17.472  0.00  0.00    +0.000 OA
ATOM     10  H   UNL     1       0.427   8.494  19.831  0.00  0.00    +0.000 HD
BRANCH   8  11
ATOM     11  C   UNL     1       2.417   7.933  18.435  0.00  0.00    +0.000 A 
ATOM     12  C   UNL     1       3.301   7.593  17.414  0.00  0.00    +0.000 A 
ATOM     13  C   UNL     1       4.105   6.451  17.545  0.00  0.00    +0.000 A 
ATOM     14  C   UNL     1       3.977   5.692  18.708  0.00  0.00    +0.000 A 
ATOM     15 CL   UNL     1       4.907   4.274  18.999  0.00  0.00    +0.000 Cl
ATOM     16  C   UNL     1       3.063   6.106  19.676  0.00  0.00    +0.000 A 
ATOM     17  N   UNL     1       2.280   7.211  19.575  0.00  0.00    +0.000 NA
BRANCH  13  18
ATOM     18  C   UNL     1       5.075   6.090  16.455  0.00  0.00    +0.000 C 
ATOM     19  F   UNL     1       4.877   4.834  15.961  0.00  0.00    +0.000 F 
ATOM     20  F   UNL     1       4.989   6.919  15.379  0.00  0.00    +0.000 F 
ATOM     21  F   UNL     1       6.371   6.117  16.864  0.00  0.00    +0.000 F 
ENDBRANCH  13  18
ENDBRANCH   8  11
ENDBRANCH   5   7
BRANCH   1  23
ATOM     22  C   UNL     1      -3.860  11.245  16.343  0.00  0.00    +0.000 C 
ATOM     23  C   UNL     1      -3.957  11.041  17.865  0.00  0.00    +0.000 C 
BRANCH  23  24
ATOM     24  S   UNL     1      -5.184  12.231  18.570  0.00  0.00    +0.000 S 
BRANCH  24  25
ATOM     25  C   UNL     1      -6.246  11.192  19.445  0.00  0.00    +0.000 A 
ATOM     26  N   UNL     1      -6.638   9.983  19.109  0.00  0.00    +0.000 NA
ATOM     27  N   UNL     1      -7.571   9.576  20.039  0.00  0.00    +0.000 NA
ATOM     28  C   UNL     1      -7.697  10.539  20.924  0.00  0.00    +0.000 A 
ATOM     29  N   UNL     1      -6.855  11.562  20.607  0.00  0.00    +0.000 N 
ATOM     30  C   UNL     1      -6.677  12.778  21.355  0.00  0.00    +0.000 C 
ENDBRANCH  24  25
ENDBRANCH  23  24
ENDBRANCH   1  23
TORSDOF 6
ENDMDL
MODEL 5
REMARK VINA RESULT:      -8.1      4.477      8.187
REMARK  Name = 
REMARK  8 active torsions:
REMARK  status: ('A' for Active; 'I' for Inactive)
REMARK    1  A    between atoms: C_1  and  C_2
REMARK    2  A    between atoms: C_2  and  S_3
REMARK    3  A    between atoms: C_2  and  C_10
REMARK    4  A    between atoms: S_3  and  C_4
REMARK    5  A    between atoms: N_8  and  C_9
REMARK    6  A    between atoms: C_14  and  N_15
REMARK    7  A    between atoms: C_16  and  C_18
REMARK    8  A    between atoms: C_20  and  C_21
REMARK                            x       y       z     vdW  Elec       q    Type
REMARK                         _______ _______ _______ _____ _____    ______ ____
ROOT
ATOM      1  C   UNL     1      -0.151  11.359  20.975  0.00  0.00    +0.000 A 
ATOM      2  C   UNL     1      -0.773  11.459  22.231  0.00  0.00    +0.000 A 
ATOM      3  C   UNL     1      -0.684  10.425  23.158  0.00  0.00    +0.000 A 
ATOM      4  C   UNL     1       0.004   9.260  22.840  0.00  0.00    +0.000 A 
ATOM      5  C   UNL     1       0.628   9.115  21.601  0.00  0.00    +0.000 A 
ATOM      6  C   UNL     1       0.584  10.183  20.694  0.00  0.00    +0.000 A 
ENDROOT
BRANCH   5   7
ATOM      7  N   UNL     1       1.282   7.925  21.214  0.00  0.00    +0.000 N 
ATOM      8  C   UNL     1       1.877   7.691  19.985  0.00  0.00    +0.000 C 
ATOM      9  O   UNL     1       1.944   8.471  19.039  0.00  0.00    +0.000 OA
ATOM     10  H   UNL     1       1.430   7.205  21.915  0.00  0.00    +0.000 HD
BRANCH   8  11
ATOM     11  C   UNL     1       2.535   6.357  19.845  0.00  0.00    +0.000 A 
ATOM     12  C   UNL     1       1.985   5.262  20.505  0.00  0.00    +0.000 A 
ATOM     13  C   UNL     1       2.580   3.999  20.366  0.00  0.00    +0.000 A 
ATOM     14  C   UNL     1       3.717   3.897  19.566  0.00  0.00    +0.000 A 
ATOM     15 CL   UNL     1       4.540   2.409  19.305  0.00  0.00    +0.000 Cl
ATOM     16  C   UNL     1       4.201   5.049  18.946  0.00  0.00    +0.000 A 
ATOM     17  N   UNL     1       3.638   6.280  19.059  0.00  0.00    +0.000 NA
BRANCH  13  18
ATOM     18  C   UNL     1       1.979   2.809  21.060  0.00  0.00    +0.000 C 
ATOM     19  F   UNL     1       1.631   1.810  20.199  0.00  0.00    +0.000 F 
ATOM     20  F   UNL     1       2.831   2.235  21.952  0.00  0.00    +0.000 F 
ATOM     21  F   UNL     1       0.843   3.109  21.744  0.00  0.00    +0.000 F 
ENDBRANCH  13  18
ENDBRANCH   8  11
ENDBRANCH   5   7
BRANCH   1  23
ATOM     22  C   UNL     1      -1.237  12.115  18.766  0.00  0.00    +0.000 C 
ATOM     23  C   UNL     1      -0.274  12.462  19.915  0.00  0.00    +0.000 C 
BRANCH  23  24
ATOM     24  S   UNL     1       1.405  12.818  19.227  0.00  0.00    +0.000 S 
BRANCH  24  25
ATOM     25  C   UNL     1       2.088  13.844  20.432  0.00  0.00    +0.000 A 
ATOM     26  N   UNL     1       2.759  13.483  21.503  0.00  0.00    +0.000 NA
ATOM     27  N   UNL     1       3.012  14.621  22.238  0.00  0.00    +0.000 NA
ATOM     28  C   UNL     1       2.510  15.640  21.579  0.00  0.00    +0.000 A 
ATOM     29  N   UNL     1       1.948  15.201  20.418  0.00  0.00    +0.000 N 
ATOM     30  C   UNL     1       1.330  16.019  19.410  0.00  0.00    +0.000 C 
ENDBRANCH  24  25
ENDBRANCH  23  24
ENDBRANCH   1  23
TORSDOF 6
ENDMDL
MODEL 6
REMARK VINA RESULT:      -8.0      6.026      9.876
REMARK  Name = 
REMARK  8 active torsions:
REMARK  status: ('A' for Active; 'I' for Inactive)
REMARK    1  A    between atoms: C_1  and  C_2
REMARK    2  A    between atoms: C_2  and  S_3
REMARK    3  A    between atoms: C_2  and  C_10
REMARK    4  A    between atoms: S_3  and  C_4
REMARK    5  A    between atoms: N_8  and  C_9
REMARK    6  A    between atoms: C_14  and  N_15
REMARK    7  A    between atoms: C_16  and  C_18
REMARK    8  A    between atoms: C_20  and  C_21
REMARK                            x       y       z     vdW  Elec       q    Type
REMARK                         _______ _______ _______ _____ _____    ______ ____
ROOT
ATOM      1  C   UNL     1      -2.201  10.731  17.541  0.00  0.00    +0.000 A 
ATOM      2  C   UNL     1      -1.954  11.957  18.183  0.00  0.00    +0.000 A 
ATOM      3  C   UNL     1      -0.717  12.225  18.763  0.00  0.00    +0.000 A 
ATOM      4  C   UNL     1       0.289  11.266  18.736  0.00  0.00    +0.000 A 
ATOM      5  C   UNL     1       0.083  10.033  18.118  0.00  0.00    +0.000 A 
ATOM      6  C   UNL     1      -1.145   9.791  17.486  0.00  0.00    +0.000 A 
ENDROOT
BRANCH   5   7
ATOM      7  N   UNL     1       1.054   9.008  18.125  0.00  0.00    +0.000 N 
ATOM      8  C   UNL     1       1.590   8.408  19.252  0.00  0.00    +0.000 C 
ATOM      9  O   UNL     1       1.309   8.653  20.422  0.00  0.00    +0.000 OA
ATOM     10  H   UNL     1       1.322   8.590  17.238  0.00  0.00    +0.000 HD
BRANCH   8  11
ATOM     11  C   UNL     1       2.577   7.319  18.980  0.00  0.00    +0.000 A 
ATOM     12  C   UNL     1       3.313   7.357  17.799  0.00  0.00    +0.000 A 
ATOM     13  C   UNL     1       4.258   6.353  17.539  0.00  0.00    +0.000 A 
ATOM     14  C   UNL     1       4.416   5.343  18.488  0.00  0.00    +0.000 A 
ATOM     15 CL   UNL     1       5.543   4.057  18.298  0.00  0.00    +0.000 Cl
ATOM     16  C   UNL     1       3.631   5.384  19.640  0.00  0.00    +0.000 A 
ATOM     17  N   UNL     1       2.717   6.348  19.917  0.00  0.00    +0.000 NA
BRANCH  13  18
ATOM     18  C   UNL     1       5.070   6.400  16.275  0.00  0.00    +0.000 C 
ATOM     19  F   UNL     1       4.629   7.343  15.394  0.00  0.00    +0.000 F 
ATOM     20  F   UNL     1       6.377   6.700  16.501  0.00  0.00    +0.000 F 
ATOM     21  F   UNL     1       5.053   5.228  15.588  0.00  0.00    +0.000 F 
ENDBRANCH  13  18
ENDBRANCH   8  11
ENDBRANCH   5   7
BRANCH   1  23
ATOM     22  C   UNL     1      -3.520  10.057  15.437  0.00  0.00    +0.000 C 
ATOM     23  C   UNL     1      -3.570  10.389  16.938  0.00  0.00    +0.000 C 
BRANCH  23  24
ATOM     24  S   UNL     1      -4.718  11.810  17.218  0.00  0.00    +0.000 S 
BRANCH  24  25
ATOM     25  C   UNL     1      -5.678  11.256  18.538  0.00  0.00    +0.000 A 
ATOM     26  N   UNL     1      -6.334  10.120  18.628  0.00  0.00    +0.000 NA
ATOM     27  N   UNL     1      -7.055  10.149  19.802  0.00  0.00    +0.000 NA
ATOM     28  C   UNL     1      -6.796  11.289  20.401  0.00  0.00    +0.000 A 
ATOM     29  N   UNL     1      -5.906  12.003  19.656  0.00  0.00    +0.000 N 
ATOM     30  C   UNL     1      -5.349  13.285  19.996  0.00  0.00    +0.000 C 
ENDBRANCH  24  25
ENDBRANCH  23  24
ENDBRANCH   1  23
TORSDOF 6
ENDMDL
MODEL 7
REMARK VINA RESULT:      -7.9      4.666      8.163
REMARK  Name = 
REMARK  8 active torsions:
REMARK  status: ('A' for Active; 'I' for Inactive)
REMARK    1  A    between atoms: C_1  and  C_2
REMARK    2  A    between atoms: C_2  and  S_3
REMARK    3  A    between atoms: C_2  and  C_10
REMARK    4  A    between atoms: S_3  and  C_4
REMARK    5  A    between atoms: N_8  and  C_9
REMARK    6  A    between atoms: C_14  and  N_15
REMARK    7  A    between atoms: C_16  and  C_18
REMARK    8  A    between atoms: C_20  and  C_21
REMARK                            x       y       z     vdW  Elec       q    Type
REMARK                         _______ _______ _______ _____ _____    ______ ____
ROOT
ATOM      1  C   UNL     1      -0.665  11.250  20.965  0.00  0.00    +0.000 A 
ATOM      2  C   UNL     1      -1.152  11.360  22.278  0.00  0.00    +0.000 A 
ATOM      3  C   UNL     1      -0.891  10.374  23.224  0.00  0.00    +0.000 A 
ATOM      4  C   UNL     1      -0.161   9.244  22.872  0.00  0.00    +0.000 A 
ATOM      5  C   UNL     1       0.333   9.089  21.577  0.00  0.00    +0.000 A 
ATOM      6  C   UNL     1       0.116  10.114  20.644  0.00  0.00    +0.000 A 
ENDROOT
BRANCH   5   7
ATOM      7  N   UNL     1       1.022   7.930  21.160  0.00  0.00    +0.000 N 
ATOM      8  C   UNL     1       1.736   7.793  19.981  0.00  0.00    +0.000 C 
ATOM      9  O   UNL     1       1.897   8.647  19.113  0.00  0.00    +0.000 OA
ATOM     10  H   UNL     1       1.100   7.154  21.810  0.00  0.00    +0.000 HD
BRANCH   8  11
ATOM     11  C   UNL     1       2.405   6.469  19.797  0.00  0.00    +0.000 A 
ATOM     12  C   UNL     1       1.921   5.367  20.495  0.00  0.00    +0.000 A 
ATOM     13  C   UNL     1       2.526   4.114  20.318  0.00  0.00    +0.000 A 
ATOM     14  C   UNL     1       3.607   4.029  19.440  0.00  0.00    +0.000 A 
ATOM     15 CL   UNL     1       4.435   2.554  19.126  0.00  0.00    +0.000 Cl
ATOM     16  C   UNL     1       4.026   5.187  18.787  0.00  0.00    +0.000 A 
ATOM     17  N   UNL     1       3.452   6.409  18.936  0.00  0.00    +0.000 NA
BRANCH  13  18
ATOM     18  C   UNL     1       1.996   2.916  21.054  0.00  0.00    +0.000 C 
ATOM     19  F   UNL     1       0.899   3.201  21.813  0.00  0.00    +0.000 F 
ATOM     20  F   UNL     1       1.606   1.916  20.219  0.00  0.00    +0.000 F 
ATOM     21  F   UNL     1       2.899   2.376  21.914  0.00  0.00    +0.000 F 
ENDBRANCH  13  18
ENDBRANCH   8  11
ENDBRANCH   5   7
BRANCH   1  23
ATOM     22  C   UNL     1      -0.206  12.088  18.575  0.00  0.00    +0.000 C 
ATOM     23  C   UNL     1      -0.979  12.298  19.888  0.00  0.00    +0.000 C 
BRANCH  23  24
ATOM     24  S   UNL     1      -0.605  13.977  20.564  0.00  0.00    +0.000 S 
BRANCH  24  25
ATOM     25  C   UNL     1       1.116  13.967  20.650  0.00  0.00    +0.000 A 
ATOM     26  N   UNL     1       1.871  13.297  21.494  0.00  0.00    +0.000 NA
ATOM     27  N   UNL     1       3.177  13.678  21.275  0.00  0.00    +0.000 NA
ATOM     28  C   UNL     1       3.179  14.547  20.290  0.00  0.00    +0.000 A 
ATOM     29  N   UNL     1       1.905  14.733  19.844  0.00  0.00    +0.000 N 
ATOM     30  C   UNL     1       1.503  15.579  18.753  0.00  0.00    +0.000 C 
ENDBRANCH  24  25
ENDBRANCH  23  24
ENDBRANCH   1  23
TORSDOF 6
ENDMDL
MODEL 8
REMARK VINA RESULT:      -7.8      5.173      8.745
REMARK  Name = 
REMARK  8 active torsions:
REMARK  status: ('A' for Active; 'I' for Inactive)
REMARK    1  A    between atoms: C_1  and  C_2
REMARK    2  A    between atoms: C_2  and  S_3
REMARK    3  A    between atoms: C_2  and  C_10
REMARK    4  A    between atoms: S_3  and  C_4
REMARK    5  A    between atoms: N_8  and  C_9
REMARK    6  A    between atoms: C_14  and  N_15
REMARK    7  A    between atoms: C_16  and  C_18
REMARK    8  A    between atoms: C_20  and  C_21
REMARK                            x       y       z     vdW  Elec       q    Type
REMARK                         _______ _______ _______ _____ _____    ______ ____
ROOT
ATOM      1  C   UNL     1      -0.922  11.920  21.080  0.00  0.00    +0.000 A 
ATOM      2  C   UNL     1      -1.811  12.309  20.065  0.00  0.00    +0.000 A 
ATOM      3  C   UNL     1      -1.887  11.601  18.869  0.00  0.00    +0.000 A 
ATOM      4  C   UNL     1      -1.058  10.507  18.651  0.00  0.00    +0.000 A 
ATOM      5  C   UNL     1      -0.153  10.092  19.629  0.00  0.00    +0.000 A 
ATOM      6  C   UNL     1      -0.122  10.774  20.854  0.00  0.00    +0.000 A 
ENDROOT
BRANCH   5   7
ATOM      7  N   UNL     1       0.752   9.028  19.424  0.00  0.00    +0.000 N 
ATOM      8  C   UNL     1       1.721   8.967  18.437  0.00  0.00    +0.000 C 
ATOM      9  O   UNL     1       1.962   9.821  17.588  0.00  0.00    +0.000 OA
ATOM     10  H   UNL     1       0.779   8.279  20.110  0.00  0.00    +0.000 HD
BRANCH   8  11
ATOM     11  C   UNL     1       2.575   7.741  18.463  0.00  0.00    +0.000 A 
ATOM     12  C   UNL     1       3.408   7.478  17.379  0.00  0.00    +0.000 A 
ATOM     13  C   UNL     1       4.230   6.341  17.398  0.00  0.00    +0.000 A 
ATOM     14  C   UNL     1       4.169   5.509  18.515  0.00  0.00    +0.000 A 
ATOM     15 CL   UNL     1       5.128   4.089  18.669  0.00  0.00    +0.000 Cl
ATOM     16  C   UNL     1       3.301   5.850  19.552  0.00  0.00    +0.000 A 
ATOM     17  N   UNL     1       2.503   6.948  19.561  0.00  0.00    +0.000 NA
BRANCH  13  18
ATOM     18  C   UNL     1       5.146   6.062  16.239  0.00  0.00    +0.000 C 
ATOM     19  F   UNL     1       4.967   6.926  15.199  0.00  0.00    +0.000 F 
ATOM     20  F   UNL     1       6.461   6.166  16.573  0.00  0.00    +0.000 F 
ATOM     21  F   UNL     1       4.976   4.821  15.712  0.00  0.00    +0.000 F 
ENDBRANCH  13  18
ENDBRANCH   8  11
ENDBRANCH   5   7
BRANCH   1  23
ATOM     22  C   UNL     1      -2.054  12.708  23.253  0.00  0.00    +0.000 C 
ATOM     23  C   UNL     1      -0.782  12.710  22.388  0.00  0.00    +0.000 C 
BRANCH  23  24
ATOM     24  S   UNL     1      -0.312  14.451  21.986  0.00  0.00    +0.000 S 
BRANCH  24  25
ATOM     25  C   UNL     1       1.165  14.245  21.120  0.00  0.00    +0.000 A 
ATOM     26  N   UNL     1       2.308  13.796  21.586  0.00  0.00    +0.000 NA
ATOM     27  N   UNL     1       3.242  13.911  20.577  0.00  0.00    +0.000 NA
ATOM     28  C   UNL     1       2.630  14.401  19.524  0.00  0.00    +0.000 A 
ATOM     29  N   UNL     1       1.312  14.596  19.810  0.00  0.00    +0.000 N 
ATOM     30  C   UNL     1       0.309  15.084  18.903  0.00  0.00    +0.000 C 
ENDBRANCH  24  25
ENDBRANCH  23  24
ENDBRANCH   1  23
TORSDOF 6
ENDMDL
MODEL 9
REMARK VINA RESULT:      -7.7      5.079      9.357
REMARK  Name = 
REMARK  8 active torsions:
REMARK  status: ('A' for Active; 'I' for Inactive)
REMARK    1  A    between atoms: C_1  and  C_2
REMARK    2  A    between atoms: C_2  and  S_3
REMARK    3  A    between atoms: C_2  and  C_10
REMARK    4  A    between atoms: S_3  and  C_4
REMARK    5  A    between atoms: N_8  and  C_9
REMARK    6  A    between atoms: C_14  and  N_15
REMARK    7  A    between atoms: C_16  and  C_18
REMARK    8  A    between atoms: C_20  and  C_21
REMARK                            x       y       z     vdW  Elec       q    Type
REMARK                         _______ _______ _______ _____ _____    ______ ____
ROOT
ATOM      1  C   UNL     1      -0.440  11.457  18.920  0.00  0.00    +0.000 A 
ATOM      2  C   UNL     1       0.474  12.500  18.687  0.00  0.00    +0.000 A 
ATOM      3  C   UNL     1       1.792  12.231  18.332  0.00  0.00    +0.000 A 
ATOM      4  C   UNL     1       2.233  10.916  18.229  0.00  0.00    +0.000 A 
ATOM      5  C   UNL     1       1.363   9.851  18.460  0.00  0.00    +0.000 A 
ATOM      6  C   UNL     1       0.021  10.129  18.761  0.00  0.00    +0.000 A 
ENDROOT
BRANCH   5   7
ATOM      7  N   UNL     1       1.784   8.504  18.429  0.00  0.00    +0.000 N 
ATOM      8  C   UNL     1       2.011   7.701  19.534  0.00  0.00    +0.000 C 
ATOM      9  O   UNL     1       1.877   8.015  20.714  0.00  0.00    +0.000 OA
ATOM     10  H   UNL     1       1.833   8.034  17.530  0.00  0.00    +0.000 HD
BRANCH   8  11
ATOM     11  C   UNL     1       2.417   6.297  19.223  0.00  0.00    +0.000 A 
ATOM     12  C   UNL     1       2.307   5.328  20.217  0.00  0.00    +0.000 A 
ATOM     13  C   UNL     1       2.667   4.002  19.934  0.00  0.00    +0.000 A 
ATOM     14  C   UNL     1       3.130   3.710  18.651  0.00  0.00    +0.000 A 
ATOM     15 CL   UNL     1       3.597   2.126  18.170  0.00  0.00    +0.000 Cl
ATOM     16  C   UNL     1       3.211   4.746  17.721  0.00  0.00    +0.000 A 
ATOM     17  N   UNL     1       2.862   6.035  17.968  0.00  0.00    +0.000 NA
BRANCH  13  18
ATOM     18  C   UNL     1       2.531   2.948  20.997  0.00  0.00    +0.000 C 
ATOM     19  F   UNL     1       2.143   3.454  22.202  0.00  0.00    +0.000 F 
ATOM     20  F   UNL     1       1.603   2.004  20.686  0.00  0.00    +0.000 F 
ATOM     21  F   UNL     1       3.693   2.286  21.241  0.00  0.00    +0.000 F 
ENDBRANCH  13  18
ENDBRANCH   8  11
ENDBRANCH   5   7
BRANCH   1  23
ATOM     22  C   UNL     1      -2.897  11.726  18.201  0.00  0.00    +0.000 C 
ATOM     23  C   UNL     1      -1.885  11.724  19.360  0.00  0.00    +0.000 C 
BRANCH  23  24
ATOM     24  S   UNL     1      -1.951  13.348  20.240  0.00  0.00    +0.000 S 
BRANCH  24  25
ATOM     25  C   UNL     1      -2.961  12.996  21.592  0.00  0.00    +0.000 A 
ATOM     26  N   UNL     1      -2.634  12.346  22.687  0.00  0.00    +0.000 NA
ATOM     27  N   UNL     1      -3.779  12.197  23.440  0.00  0.00    +0.000 NA
ATOM     28  C   UNL     1      -4.760  12.783  22.792  0.00  0.00    +0.000 A 
ATOM     29  N   UNL     1      -4.283  13.329  21.638  0.00  0.00    +0.000 N 
ATOM     30  C   UNL     1      -5.042  14.085  20.679  0.00  0.00    +0.000 C 
ENDBRANCH  24  25
ENDBRANCH  23  24
ENDBRANCH   1  23
TORSDOF 6
ENDMDL
