MODEL 1
REMARK VINA RESULT:      -6.1      0.000      0.000
REMARK  Name = 
REMARK  10 active torsions:
REMARK  status: ('A' for Active; 'I' for Inactive)
REMARK    1  A    between atoms: C_1  and  S_2
REMARK    2  A    between atoms: S_2  and  C_3
REMARK    3  A    between atoms: C_5  and  C_6
REMARK    4  A    between atoms: C_6  and  C_7
REMARK    5  A    between atoms: C_6  and  C_8
REMARK    6  A    between atoms: C_10  and  O_11
REMARK    7  A    between atoms: O_11  and  C_12
REMARK    8  A    between atoms: C_12  and  C_13
REMARK    9  A    between atoms: C_13  and  O_15
REMARK   10  A    between atoms: C_16  and  C_17
REMARK                            x       y       z     vdW  Elec       q    Type
REMARK                         _______ _______ _______ _____ _____    ______ ____
ROOT
ATOM      1  C   UNL     1       2.677   3.782  19.768  0.00  0.00    +0.000 A 
ATOM      2  N   UNL     1       2.120   4.948  19.367  0.00  0.00    +0.000 NA
ATOM      3  C   UNL     1       2.938   5.905  18.911  0.00  0.00    +0.000 A 
ATOM      4  N   UNL     1       4.269   5.778  18.841  0.00  0.00    +0.000 NA
ATOM      5  C   UNL     1       4.788   4.596  19.230  0.00  0.00    +0.000 A 
ATOM      6  C   UNL     1       4.038   3.547  19.721  0.00  0.00    +0.000 A 
ENDROOT
BRANCH   3   7
ATOM      7  C   UNL     1       2.318   7.211  18.474  0.00  0.00    +0.000 C 
ATOM      8  C   UNL     1       1.902   8.041  19.688  0.00  0.00    +0.000 C 
ATOM      9  C   UNL     1       3.270   7.997  17.575  0.00  0.00    +0.000 C 
ENDBRANCH   3   7
BRANCH   1  11
ATOM     10  C   UNL     1       0.669   2.147  18.784  0.00  0.00    +0.000 C 
ATOM     11  S   UNL     1       1.514   2.541  20.339  0.00  0.00    +0.000 S 
ENDBRANCH   1  11
BRANCH   6  12
ATOM     12  C   UNL     1       4.636   2.325  20.156  0.00  0.00    +0.000 C 
ATOM     13  N   UNL     1       5.116   1.340  20.534  0.00  0.00    +0.000 NA
ENDBRANCH   6  12
BRANCH   5  14
ATOM     14  O   UNL     1       6.162   4.465  19.159  0.00  0.00    +0.000 OA
BRANCH  14  15
ATOM     15  C   UNL     1       6.810   5.626  18.638  0.00  0.00    +0.000 C 
BRANCH  15  16
ATOM     16  C   UNL     1       7.433   5.437  17.253  0.00  0.00    +0.000 C 
ATOM     17  O   UNL     1       7.429   6.272  16.361  0.00  0.00    +0.000 OA
BRANCH  16  18
ATOM     18  O   UNL     1       7.991   4.212  17.081  0.00  0.00    +0.000 OA
ATOM     19  H   UNL     1       7.519   3.482  17.521  0.00  0.00    +0.000 HD
ENDBRANCH  16  18
ENDBRANCH  15  16
ENDBRANCH  14  15
ENDBRANCH   5  14
TORSDOF 7
ENDMDL
MODEL 2
REMARK VINA RESULT:      -6.1      1.587      2.027
REMARK  Name = 
REMARK  10 active torsions:
REMARK  status: ('A' for Active; 'I' for Inactive)
REMARK    1  A    between atoms: C_1  and  S_2
REMARK    2  A    between atoms: S_2  and  C_3
REMARK    3  A    between atoms: C_5  and  C_6
REMARK    4  A    between atoms: C_6  and  C_7
REMARK    5  A    between atoms: C_6  and  C_8
REMARK    6  A    between atoms: C_10  and  O_11
REMARK    7  A    between atoms: O_11  and  C_12
REMARK    8  A    between atoms: C_12  and  C_13
REMARK    9  A    between atoms: C_13  and  O_15
REMARK   10  A    between atoms: C_16  and  C_17
REMARK                            x       y       z     vdW  Elec       q    Type
REMARK                         _______ _______ _______ _____ _____    ______ ____
ROOT
ATOM      1  C   UNL     1       2.160   4.422  19.273  0.00  0.00    +0.000 A 
ATOM      2  N   UNL     1       1.914   5.738  19.464  0.00  0.00    +0.000 NA
ATOM      3  C   UNL     1       2.637   6.616  18.756  0.00  0.00    +0.000 A 
ATOM      4  N   UNL     1       3.590   6.267  17.883  0.00  0.00    +0.000 NA
ATOM      5  C   UNL     1       3.795   4.946  17.704  0.00  0.00    +0.000 A 
ATOM      6  C   UNL     1       3.112   3.959  18.385  0.00  0.00    +0.000 A 
ENDROOT
BRANCH   3   7
ATOM      7  C   UNL     1       2.370   8.087  18.977  0.00  0.00    +0.000 C 
ATOM      8  C   UNL     1       1.717   8.705  17.741  0.00  0.00    +0.000 C 
ATOM      9  C   UNL     1       1.508   8.308  20.218  0.00  0.00    +0.000 C 
ENDBRANCH   3   7
BRANCH   1  11
ATOM     10  C   UNL     1       2.191   3.069  21.690  0.00  0.00    +0.000 C 
ATOM     11  S   UNL     1       1.134   3.310  20.237  0.00  0.00    +0.000 S 
ENDBRANCH   1  11
BRANCH   6  12
ATOM     12  C   UNL     1       3.388   2.572  18.188  0.00  0.00    +0.000 C 
ATOM     13  N   UNL     1       3.635   1.452  18.015  0.00  0.00    +0.000 NA
ENDBRANCH   6  12
BRANCH   5  14
ATOM     14  O   UNL     1       4.780   4.585  16.805  0.00  0.00    +0.000 OA
BRANCH  14  15
ATOM     15  C   UNL     1       5.975   5.354  16.944  0.00  0.00    +0.000 C 
BRANCH  15  16
ATOM     16  C   UNL     1       7.035   4.723  17.850  0.00  0.00    +0.000 C 
ATOM     17  O   UNL     1       7.022   4.751  19.071  0.00  0.00    +0.000 OA
BRANCH  16  18
ATOM     18  O   UNL     1       8.040   4.126  17.160  0.00  0.00    +0.000 OA
ATOM     19  H   UNL     1       8.201   3.194  17.397  0.00  0.00    +0.000 HD
ENDBRANCH  16  18
ENDBRANCH  15  16
ENDBRANCH  14  15
ENDBRANCH   5  14
TORSDOF 7
ENDMDL
MODEL 3
REMARK VINA RESULT:      -6.1      0.656      1.056
REMARK  Name = 
REMARK  10 active torsions:
REMARK  status: ('A' for Active; 'I' for Inactive)
REMARK    1  A    between atoms: C_1  and  S_2
REMARK    2  A    between atoms: S_2  and  C_3
REMARK    3  A    between atoms: C_5  and  C_6
REMARK    4  A    between atoms: C_6  and  C_7
REMARK    5  A    between atoms: C_6  and  C_8
REMARK    6  A    between atoms: C_10  and  O_11
REMARK    7  A    between atoms: O_11  and  C_12
REMARK    8  A    between atoms: C_12  and  C_13
REMARK    9  A    between atoms: C_13  and  O_15
REMARK   10  A    between atoms: C_16  and  C_17
REMARK                            x       y       z     vdW  Elec       q    Type
REMARK                         _______ _______ _______ _____ _____    ______ ____
ROOT
ATOM      1  C   UNL     1       2.661   3.759  19.512  0.00  0.00    +0.000 A 
ATOM      2  N   UNL     1       2.102   4.925  19.112  0.00  0.00    +0.000 NA
ATOM      3  C   UNL     1       2.924   5.928  18.780  0.00  0.00    +0.000 A 
ATOM      4  N   UNL     1       4.260   5.848  18.831  0.00  0.00    +0.000 NA
ATOM      5  C   UNL     1       4.782   4.666  19.215  0.00  0.00    +0.000 A 
ATOM      6  C   UNL     1       4.028   3.571  19.585  0.00  0.00    +0.000 A 
ENDROOT
BRANCH   3   7
ATOM      7  C   UNL     1       2.300   7.233  18.344  0.00  0.00    +0.000 C 
ATOM      8  C   UNL     1       1.861   8.051  19.559  0.00  0.00    +0.000 C 
ATOM      9  C   UNL     1       3.259   8.034  17.465  0.00  0.00    +0.000 C 
ENDBRANCH   3   7
BRANCH   1  11
ATOM     10  C   UNL     1       1.420   2.631  21.716  0.00  0.00    +0.000 C 
ATOM     11  S   UNL     1       1.496   2.455  19.913  0.00  0.00    +0.000 S 
ENDBRANCH   1  11
BRANCH   6  12
ATOM     12  C   UNL     1       4.627   2.349  20.019  0.00  0.00    +0.000 C 
ATOM     13  N   UNL     1       5.103   1.345  20.350  0.00  0.00    +0.000 NA
ENDBRANCH   6  12
BRANCH   5  14
ATOM     14  O   UNL     1       6.161   4.582  19.270  0.00  0.00    +0.000 OA
BRANCH  14  15
ATOM     15  C   UNL     1       6.814   5.704  18.675  0.00  0.00    +0.000 C 
BRANCH  15  16
ATOM     16  C   UNL     1       7.494   5.406  17.336  0.00  0.00    +0.000 C 
ATOM     17  O   UNL     1       7.941   4.319  17.002  0.00  0.00    +0.000 OA
BRANCH  16  18
ATOM     18  O   UNL     1       7.585   6.493  16.529  0.00  0.00    +0.000 OA
ATOM     19  H   UNL     1       7.599   6.294  15.575  0.00  0.00    +0.000 HD
ENDBRANCH  16  18
ENDBRANCH  15  16
ENDBRANCH  14  15
ENDBRANCH   5  14
TORSDOF 7
ENDMDL
MODEL 4
REMARK VINA RESULT:      -6.0      1.577      1.831
REMARK  Name = 
REMARK  10 active torsions:
REMARK  status: ('A' for Active; 'I' for Inactive)
REMARK    1  A    between atoms: C_1  and  S_2
REMARK    2  A    between atoms: S_2  and  C_3
REMARK    3  A    between atoms: C_5  and  C_6
REMARK    4  A    between atoms: C_6  and  C_7
REMARK    5  A    between atoms: C_6  and  C_8
REMARK    6  A    between atoms: C_10  and  O_11
REMARK    7  A    between atoms: O_11  and  C_12
REMARK    8  A    between atoms: C_12  and  C_13
REMARK    9  A    between atoms: C_13  and  O_15
REMARK   10  A    between atoms: C_16  and  C_17
REMARK                            x       y       z     vdW  Elec       q    Type
REMARK                         _______ _______ _______ _____ _____    ______ ____
ROOT
ATOM      1  C   UNL     1       2.193   4.203  19.333  0.00  0.00    +0.000 A 
ATOM      2  N   UNL     1       1.956   5.526  19.495  0.00  0.00    +0.000 NA
ATOM      3  C   UNL     1       2.745   6.384  18.834  0.00  0.00    +0.000 A 
ATOM      4  N   UNL     1       3.754   6.011  18.038  0.00  0.00    +0.000 NA
ATOM      5  C   UNL     1       3.949   4.685  17.885  0.00  0.00    +0.000 A 
ATOM      6  C   UNL     1       3.201   3.717  18.522  0.00  0.00    +0.000 A 
ENDROOT
BRANCH   3   7
ATOM      7  C   UNL     1       2.488   7.861  19.023  0.00  0.00    +0.000 C 
ATOM      8  C   UNL     1       1.860   8.462  17.766  0.00  0.00    +0.000 C 
ATOM      9  C   UNL     1       1.608   8.114  20.246  0.00  0.00    +0.000 C 
ENDBRANCH   3   7
BRANCH   1  11
ATOM     10  C   UNL     1       1.996   2.917  21.778  0.00  0.00    +0.000 C 
ATOM     11  S   UNL     1       1.079   3.117  20.226  0.00  0.00    +0.000 S 
ENDBRANCH   1  11
BRANCH   6  12
ATOM     12  C   UNL     1       3.466   2.323  18.357  0.00  0.00    +0.000 C 
ATOM     13  N   UNL     1       3.689   1.190  18.250  0.00  0.00    +0.000 NA
ENDBRANCH   6  12
BRANCH   5  14
ATOM     14  O   UNL     1       4.991   4.299  17.065  0.00  0.00    +0.000 OA
BRANCH  14  15
ATOM     15  C   UNL     1       5.820   5.390  16.661  0.00  0.00    +0.000 C 
BRANCH  15  16
ATOM     16  C   UNL     1       7.180   4.977  16.092  0.00  0.00    +0.000 C 
ATOM     17  O   UNL     1       7.617   5.313  15.002  0.00  0.00    +0.000 OA
BRANCH  16  18
ATOM     18  O   UNL     1       7.878   4.158  16.919  0.00  0.00    +0.000 OA
ATOM     19  H   UNL     1       8.593   4.594  17.418  0.00  0.00    +0.000 HD
ENDBRANCH  16  18
ENDBRANCH  15  16
ENDBRANCH  14  15
ENDBRANCH   5  14
TORSDOF 7
ENDMDL
MODEL 5
REMARK VINA RESULT:      -5.9      2.857      4.662
REMARK  Name = 
REMARK  10 active torsions:
REMARK  status: ('A' for Active; 'I' for Inactive)
REMARK    1  A    between atoms: C_1  and  S_2
REMARK    2  A    between atoms: S_2  and  C_3
REMARK    3  A    between atoms: C_5  and  C_6
REMARK    4  A    between atoms: C_6  and  C_7
REMARK    5  A    between atoms: C_6  and  C_8
REMARK    6  A    between atoms: C_10  and  O_11
REMARK    7  A    between atoms: O_11  and  C_12
REMARK    8  A    between atoms: C_12  and  C_13
REMARK    9  A    between atoms: C_13  and  O_15
REMARK   10  A    between atoms: C_16  and  C_17
REMARK                            x       y       z     vdW  Elec       q    Type
REMARK                         _______ _______ _______ _____ _____    ______ ____
ROOT
ATOM      1  C   UNL     1       4.386   3.846  19.255  0.00  0.00    +0.000 A 
ATOM      2  N   UNL     1       5.640   4.245  18.939  0.00  0.00    +0.000 NA
ATOM      3  C   UNL     1       5.784   5.445  18.363  0.00  0.00    +0.000 A 
ATOM      4  N   UNL     1       4.765   6.263  18.073  0.00  0.00    +0.000 NA
ATOM      5  C   UNL     1       3.531   5.841  18.418  0.00  0.00    +0.000 A 
ATOM      6  C   UNL     1       3.269   4.622  19.009  0.00  0.00    +0.000 A 
ENDROOT
BRANCH   3   7
ATOM      7  C   UNL     1       7.183   5.887  18.001  0.00  0.00    +0.000 C 
ATOM      8  C   UNL     1       7.164   7.291  17.397  0.00  0.00    +0.000 C 
ATOM      9  C   UNL     1       8.109   5.828  19.215  0.00  0.00    +0.000 C 
ENDBRANCH   3   7
BRANCH   1  11
ATOM     10  C   UNL     1       3.810   1.209  18.630  0.00  0.00    +0.000 C 
ATOM     11  S   UNL     1       4.276   2.240  20.047  0.00  0.00    +0.000 S 
ENDBRANCH   1  11
BRANCH   6  12
ATOM     12  C   UNL     1       1.941   4.202  19.325  0.00  0.00    +0.000 C 
ATOM     13  N   UNL     1       0.869   3.836  19.574  0.00  0.00    +0.000 NA
ENDBRANCH   6  12
BRANCH   5  14
ATOM     14  O   UNL     1       2.478   6.683  18.117  0.00  0.00    +0.000 OA
BRANCH  14  15
ATOM     15  C   UNL     1       2.894   8.015  17.813  0.00  0.00    +0.000 C 
BRANCH  15  16
ATOM     16  C   UNL     1       1.913   9.103  18.256  0.00  0.00    +0.000 C 
ATOM     17  O   UNL     1       1.267   9.087  19.293  0.00  0.00    +0.000 OA
BRANCH  16  18
ATOM     18  O   UNL     1       1.798  10.115  17.359  0.00  0.00    +0.000 OA
ATOM     19  H   UNL     1       1.312   9.887  16.545  0.00  0.00    +0.000 HD
ENDBRANCH  16  18
ENDBRANCH  15  16
ENDBRANCH  14  15
ENDBRANCH   5  14
TORSDOF 7
ENDMDL
MODEL 6
REMARK VINA RESULT:      -5.9      2.640      4.610
REMARK  Name = 
REMARK  10 active torsions:
REMARK  status: ('A' for Active; 'I' for Inactive)
REMARK    1  A    between atoms: C_1  and  S_2
REMARK    2  A    between atoms: S_2  and  C_3
REMARK    3  A    between atoms: C_5  and  C_6
REMARK    4  A    between atoms: C_6  and  C_7
REMARK    5  A    between atoms: C_6  and  C_8
REMARK    6  A    between atoms: C_10  and  O_11
REMARK    7  A    between atoms: O_11  and  C_12
REMARK    8  A    between atoms: C_12  and  C_13
REMARK    9  A    between atoms: C_13  and  O_15
REMARK   10  A    between atoms: C_16  and  C_17
REMARK                            x       y       z     vdW  Elec       q    Type
REMARK                         _______ _______ _______ _____ _____    ______ ____
ROOT
ATOM      1  C   UNL     1       3.021   5.919  18.294  0.00  0.00    +0.000 A 
ATOM      2  N   UNL     1       3.994   6.178  17.390  0.00  0.00    +0.000 NA
ATOM      3  C   UNL     1       4.472   5.148  16.678  0.00  0.00    +0.000 A 
ATOM      4  N   UNL     1       4.053   3.885  16.817  0.00  0.00    +0.000 NA
ATOM      5  C   UNL     1       3.069   3.667  17.714  0.00  0.00    +0.000 A 
ATOM      6  C   UNL     1       2.511   4.652  18.503  0.00  0.00    +0.000 A 
ENDROOT
BRANCH   3   7
ATOM      7  C   UNL     1       5.566   5.435  15.676  0.00  0.00    +0.000 C 
ATOM      8  C   UNL     1       6.868   5.795  16.390  0.00  0.00    +0.000 C 
ATOM      9  C   UNL     1       5.771   4.251  14.732  0.00  0.00    +0.000 C 
ENDBRANCH   3   7
BRANCH   1  11
ATOM     10  C   UNL     1       2.265   8.543  17.828  0.00  0.00    +0.000 C 
ATOM     11  S   UNL     1       2.414   7.351  19.187  0.00  0.00    +0.000 S 
ENDBRANCH   1  11
BRANCH   6  12
ATOM     12  C   UNL     1       1.495   4.368  19.465  0.00  0.00    +0.000 C 
ATOM     13  N   UNL     1       0.670   4.163  20.254  0.00  0.00    +0.000 NA
ENDBRANCH   6  12
BRANCH   5  14
ATOM     14  O   UNL     1       2.637   2.362  17.860  0.00  0.00    +0.000 OA
BRANCH  14  15
ATOM     15  C   UNL     1       3.590   1.527  18.519  0.00  0.00    +0.000 C 
BRANCH  15  16
ATOM     16  C   UNL     1       4.257   2.165  19.740  0.00  0.00    +0.000 C 
ATOM     17  O   UNL     1       3.822   2.122  20.881  0.00  0.00    +0.000 OA
BRANCH  16  18
ATOM     18  O   UNL     1       5.402   2.827  19.437  0.00  0.00    +0.000 OA
ATOM     19  H   UNL     1       5.977   2.375  18.792  0.00  0.00    +0.000 HD
ENDBRANCH  16  18
ENDBRANCH  15  16
ENDBRANCH  14  15
ENDBRANCH   5  14
TORSDOF 7
ENDMDL
MODEL 7
REMARK VINA RESULT:      -5.9      2.768      4.436
REMARK  Name = 
REMARK  10 active torsions:
REMARK  status: ('A' for Active; 'I' for Inactive)
REMARK    1  A    between atoms: C_1  and  S_2
REMARK    2  A    between atoms: S_2  and  C_3
REMARK    3  A    between atoms: C_5  and  C_6
REMARK    4  A    between atoms: C_6  and  C_7
REMARK    5  A    between atoms: C_6  and  C_8
REMARK    6  A    between atoms: C_10  and  O_11
REMARK    7  A    between atoms: O_11  and  C_12
REMARK    8  A    between atoms: C_12  and  C_13
REMARK    9  A    between atoms: C_13  and  O_15
REMARK   10  A    between atoms: C_16  and  C_17
REMARK                            x       y       z     vdW  Elec       q    Type
REMARK                         _______ _______ _______ _____ _____    ______ ____
ROOT
ATOM      1  C   UNL     1       4.172   4.212  16.719  0.00  0.00    +0.000 A 
ATOM      2  N   UNL     1       4.768   3.785  15.581  0.00  0.00    +0.000 NA
ATOM      3  C   UNL     1       5.844   4.458  15.152  0.00  0.00    +0.000 A 
ATOM      4  N   UNL     1       6.352   5.530  15.773  0.00  0.00    +0.000 NA
ATOM      5  C   UNL     1       5.744   5.915  16.914  0.00  0.00    +0.000 A 
ATOM      6  C   UNL     1       4.628   5.298  17.441  0.00  0.00    +0.000 A 
ENDROOT
BRANCH   3   7
ATOM      7  C   UNL     1       6.503   3.989  13.876  0.00  0.00    +0.000 C 
ATOM      8  C   UNL     1       5.450   3.626  12.830  0.00  0.00    +0.000 C 
ATOM      9  C   UNL     1       7.468   5.043  13.337  0.00  0.00    +0.000 C 
ENDBRANCH   3   7
BRANCH   1  11
ATOM     10  C   UNL     1       3.584   1.972  18.239  0.00  0.00    +0.000 C 
ATOM     11  S   UNL     1       2.757   3.243  17.244  0.00  0.00    +0.000 S 
ENDBRANCH   1  11
BRANCH   6  12
ATOM     12  C   UNL     1       3.996   5.764  18.634  0.00  0.00    +0.000 C 
ATOM     13  N   UNL     1       3.475   6.117  19.608  0.00  0.00    +0.000 NA
ENDBRANCH   6  12
BRANCH   5  14
ATOM     14  O   UNL     1       6.267   7.022  17.555  0.00  0.00    +0.000 OA
BRANCH  14  15
ATOM     15  C   UNL     1       7.580   6.802  18.072  0.00  0.00    +0.000 C 
BRANCH  15  16
ATOM     16  C   UNL     1       7.717   5.554  18.946  0.00  0.00    +0.000 C 
ATOM     17  O   UNL     1       7.503   5.510  20.148  0.00  0.00    +0.000 OA
BRANCH  16  18
ATOM     18  O   UNL     1       8.134   4.462  18.256  0.00  0.00    +0.000 OA
ATOM     19  H   UNL     1       7.885   4.454  17.313  0.00  0.00    +0.000 HD
ENDBRANCH  16  18
ENDBRANCH  15  16
ENDBRANCH  14  15
ENDBRANCH   5  14
TORSDOF 7
ENDMDL
MODEL 8
REMARK VINA RESULT:      -5.9      1.595      1.828
REMARK  Name = 
REMARK  10 active torsions:
REMARK  status: ('A' for Active; 'I' for Inactive)
REMARK    1  A    between atoms: C_1  and  S_2
REMARK    2  A    between atoms: S_2  and  C_3
REMARK    3  A    between atoms: C_5  and  C_6
REMARK    4  A    between atoms: C_6  and  C_7
REMARK    5  A    between atoms: C_6  and  C_8
REMARK    6  A    between atoms: C_10  and  O_11
REMARK    7  A    between atoms: O_11  and  C_12
REMARK    8  A    between atoms: C_12  and  C_13
REMARK    9  A    between atoms: C_13  and  O_15
REMARK   10  A    between atoms: C_16  and  C_17
REMARK                            x       y       z     vdW  Elec       q    Type
REMARK                         _______ _______ _______ _____ _____    ______ ____
ROOT
ATOM      1  C   UNL     1       2.195   3.910  19.112  0.00  0.00    +0.000 A 
ATOM      2  N   UNL     1       1.860   5.220  19.053  0.00  0.00    +0.000 NA
ATOM      3  C   UNL     1       2.596   6.016  18.266  0.00  0.00    +0.000 A 
ATOM      4  N   UNL     1       3.644   5.595  17.549  0.00  0.00    +0.000 NA
ATOM      5  C   UNL     1       3.938   4.280  17.617  0.00  0.00    +0.000 A 
ATOM      6  C   UNL     1       3.251   3.375  18.400  0.00  0.00    +0.000 A 
ENDROOT
BRANCH   3   7
ATOM      7  C   UNL     1       2.228   7.480  18.208  0.00  0.00    +0.000 C 
ATOM      8  C   UNL     1       1.936   8.017  19.609  0.00  0.00    +0.000 C 
ATOM      9  C   UNL     1       3.327   8.296  17.529  0.00  0.00    +0.000 C 
ENDBRANCH   3   7
BRANCH   1  11
ATOM     10  C   UNL     1       2.060   3.011  21.729  0.00  0.00    +0.000 C 
ATOM     11  S   UNL     1       1.147   2.904  20.165  0.00  0.00    +0.000 S 
ENDBRANCH   1  11
BRANCH   6  12
ATOM     12  C   UNL     1       3.621   1.997  18.468  0.00  0.00    +0.000 C 
ATOM     13  N   UNL     1       3.896   0.872  18.525  0.00  0.00    +0.000 NA
ENDBRANCH   6  12
BRANCH   5  14
ATOM     14  O   UNL     1       5.022   3.845  16.878  0.00  0.00    +0.000 OA
BRANCH  14  15
ATOM     15  C   UNL     1       5.553   4.852  16.016  0.00  0.00    +0.000 C 
BRANCH  15  16
ATOM     16  C   UNL     1       7.080   4.855  15.909  0.00  0.00    +0.000 C 
ATOM     17  O   UNL     1       7.843   4.384  16.739  0.00  0.00    +0.000 OA
BRANCH  16  18
ATOM     18  O   UNL     1       7.536   5.466  14.787  0.00  0.00    +0.000 OA
ATOM     19  H   UNL     1       6.944   6.152  14.426  0.00  0.00    +0.000 HD
ENDBRANCH  16  18
ENDBRANCH  15  16
ENDBRANCH  14  15
ENDBRANCH   5  14
TORSDOF 7
ENDMDL
MODEL 9
REMARK VINA RESULT:      -5.8      2.584      4.300
REMARK  Name = 
REMARK  10 active torsions:
REMARK  status: ('A' for Active; 'I' for Inactive)
REMARK    1  A    between atoms: C_1  and  S_2
REMARK    2  A    between atoms: S_2  and  C_3
REMARK    3  A    between atoms: C_5  and  C_6
REMARK    4  A    between atoms: C_6  and  C_7
REMARK    5  A    between atoms: C_6  and  C_8
REMARK    6  A    between atoms: C_10  and  O_11
REMARK    7  A    between atoms: O_11  and  C_12
REMARK    8  A    between atoms: C_12  and  C_13
REMARK    9  A    between atoms: C_13  and  O_15
REMARK   10  A    between atoms: C_16  and  C_17
REMARK                            x       y       z     vdW  Elec       q    Type
REMARK                         _______ _______ _______ _____ _____    ______ ____
ROOT
ATOM      1  C   UNL     1       3.231   6.426  17.881  0.00  0.00    +0.000 A 
ATOM      2  N   UNL     1       2.264   5.530  18.186  0.00  0.00    +0.000 NA
ATOM      3  C   UNL     1       2.570   4.229  18.099  0.00  0.00    +0.000 A 
ATOM      4  N   UNL     1       3.768   3.768  17.718  0.00  0.00    +0.000 NA
ATOM      5  C   UNL     1       4.713   4.689  17.439  0.00  0.00    +0.000 A 
ATOM      6  C   UNL     1       4.502   6.052  17.491  0.00  0.00    +0.000 A 
ENDROOT
BRANCH   3   7
ATOM      7  C   UNL     1       1.488   3.229  18.430  0.00  0.00    +0.000 C 
ATOM      8  C   UNL     1       2.030   1.802  18.341  0.00  0.00    +0.000 C 
ATOM      9  C   UNL     1       0.892   3.501  19.809  0.00  0.00    +0.000 C 
ENDBRANCH   3   7
BRANCH   1  11
ATOM     10  C   UNL     1       1.891   8.091  19.643  0.00  0.00    +0.000 C 
ATOM     11  S   UNL     1       2.752   8.147  18.048  0.00  0.00    +0.000 S 
ENDBRANCH   1  11
BRANCH   6  12
ATOM     12  C   UNL     1       5.524   6.990  17.152  0.00  0.00    +0.000 C 
ATOM     13  N   UNL     1       6.361   7.737  16.857  0.00  0.00    +0.000 NA
ENDBRANCH   6  12
BRANCH   5  14
ATOM     14  O   UNL     1       5.949   4.214  17.044  0.00  0.00    +0.000 OA
BRANCH  14  15
ATOM     15  C   UNL     1       5.936   3.635  15.739  0.00  0.00    +0.000 C 
BRANCH  15  16
ATOM     16  C   UNL     1       6.754   4.400  14.696  0.00  0.00    +0.000 C 
ATOM     17  O   UNL     1       7.608   5.237  14.949  0.00  0.00    +0.000 OA
BRANCH  16  18
ATOM     18  O   UNL     1       6.427   4.078  13.419  0.00  0.00    +0.000 OA
ATOM     19  H   UNL     1       7.111   4.287  12.757  0.00  0.00    +0.000 HD
ENDBRANCH  16  18
ENDBRANCH  15  16
ENDBRANCH  14  15
ENDBRANCH   5  14
TORSDOF 7
ENDMDL
