MODEL 1
REMARK VINA RESULT:      -8.2      0.000      0.000
REMARK  Name = 
REMARK  7 active torsions:
REMARK  status: ('A' for Active; 'I' for Inactive)
REMARK    1  A    between atoms: C_1  and  C_2
REMARK    2  A    between atoms: C_2  and  C_3
REMARK    3  A    between atoms: C_3  and  N_4
REMARK    4  A    between atoms: C_6  and  N_7
REMARK    5  A    between atoms: C_8  and  C_10
REMARK    6  A    between atoms: C_15  and  C_16
REMARK    7  A    between atoms: C_20  and  C_21
REMARK                            x       y       z     vdW  Elec       q    Type
REMARK                         _______ _______ _______ _____ _____    ______ ____
ROOT
ATOM      1  N   UNL     1       1.684   7.377  20.658  0.00  0.00    +0.000 N 
ATOM      2  C   UNL     1       2.336   6.676  19.655  0.00  0.00    +0.000 C 
ATOM      3  O   UNL     1       2.888   7.244  18.722  0.00  0.00    +0.000 OA
ATOM      4  H   UNL     1       1.248   6.868  21.416  0.00  0.00    +0.000 HD
ENDROOT
BRANCH   1   7
ATOM      5  N   UNL     1       0.307  10.675  21.304  0.00  0.00    +0.000 N 
ATOM      6  C   UNL     1       0.821   9.431  21.839  0.00  0.00    +0.000 C 
ATOM      7  C   UNL     1       1.585   8.829  20.655  0.00  0.00    +0.000 C 
ATOM      8  C   UNL     1       0.819   9.352  19.440  0.00  0.00    +0.000 C 
ATOM      9  C   UNL     1       0.258  10.667  19.917  0.00  0.00    +0.000 C 
ATOM     10  O   UNL     1      -0.218  11.521  19.195  0.00  0.00    +0.000 OA
BRANCH   5  11
ATOM     11  C   UNL     1      -0.357  11.685  22.114  0.00  0.00    +0.000 C 
BRANCH  11  13
ATOM     12  C   UNL     1      -2.606  11.975  23.246  0.00  0.00    +0.000 C 
ATOM     13  C   UNL     1      -1.364  11.106  23.104  0.00  0.00    +0.000 C 
ENDBRANCH  11  13
ENDBRANCH   5  11
ENDBRANCH   1   7
BRANCH   2  14
ATOM     14  C   UNL     1       2.307   5.177  19.790  0.00  0.00    +0.000 A 
ATOM     15  C   UNL     1       1.228   4.651  20.541  0.00  0.00    +0.000 A 
ATOM     16  C   UNL     1       1.064   3.281  20.722  0.00  0.00    +0.000 A 
ATOM     17  C   UNL     1       1.963   2.406  20.140  0.00  0.00    +0.000 A 
ATOM     18  C   UNL     1       3.034   2.907  19.396  0.00  0.00    +0.000 A 
ATOM     19  C   UNL     1       3.249   4.296  19.189  0.00  0.00    +0.000 A 
BRANCH  19  20
ATOM     20  C   UNL     1       4.453   4.702  18.403  0.00  0.00    +0.000 A 
ATOM     21  C   UNL     1       4.460   4.657  16.992  0.00  0.00    +0.000 A 
ATOM     22  C   UNL     1       5.592   5.002  16.244  0.00  0.00    +0.000 A 
ATOM     23  C   UNL     1       6.739   5.452  16.887  0.00  0.00    +0.000 A 
ATOM     24  C   UNL     1       6.772   5.518  18.278  0.00  0.00    +0.000 A 
ATOM     25  C   UNL     1       7.960   6.067  19.010  0.00  0.00    +0.000 C 
ATOM     26  C   UNL     1       5.650   5.104  19.015  0.00  0.00    +0.000 A 
ENDBRANCH  19  20
ENDBRANCH   2  14
TORSDOF 5
ENDMDL
MODEL 2
REMARK VINA RESULT:      -8.2      0.518      1.469
REMARK  Name = 
REMARK  7 active torsions:
REMARK  status: ('A' for Active; 'I' for Inactive)
REMARK    1  A    between atoms: C_1  and  C_2
REMARK    2  A    between atoms: C_2  and  C_3
REMARK    3  A    between atoms: C_3  and  N_4
REMARK    4  A    between atoms: C_6  and  N_7
REMARK    5  A    between atoms: C_8  and  C_10
REMARK    6  A    between atoms: C_15  and  C_16
REMARK    7  A    between atoms: C_20  and  C_21
REMARK                            x       y       z     vdW  Elec       q    Type
REMARK                         _______ _______ _______ _____ _____    ______ ____
ROOT
ATOM      1  N   UNL     1       1.797   7.088  20.453  0.00  0.00    +0.000 N 
ATOM      2  C   UNL     1       2.464   6.377  19.467  0.00  0.00    +0.000 C 
ATOM      3  O   UNL     1       3.082   6.937  18.572  0.00  0.00    +0.000 OA
ATOM      4  H   UNL     1       1.305   6.585  21.180  0.00  0.00    +0.000 HD
ENDROOT
BRANCH   1   7
ATOM      5  N   UNL     1       0.565  10.431  21.161  0.00  0.00    +0.000 N 
ATOM      6  C   UNL     1       1.029   9.158  21.672  0.00  0.00    +0.000 C 
ATOM      7  C   UNL     1       1.759   8.543  20.473  0.00  0.00    +0.000 C 
ATOM      8  C   UNL     1       1.007   9.117  19.273  0.00  0.00    +0.000 C 
ATOM      9  C   UNL     1       0.507  10.447  19.775  0.00  0.00    +0.000 C 
ATOM     10  O   UNL     1       0.062  11.332  19.070  0.00  0.00    +0.000 OA
BRANCH   5  11
ATOM     11  C   UNL     1      -0.050  11.455  21.992  0.00  0.00    +0.000 C 
BRANCH  11  13
ATOM     12  C   UNL     1      -2.269  11.871  23.143  0.00  0.00    +0.000 C 
ATOM     13  C   UNL     1      -1.105  10.909  22.950  0.00  0.00    +0.000 C 
ENDBRANCH  11  13
ENDBRANCH   5  11
ENDBRANCH   1   7
BRANCH   2  14
ATOM     14  C   UNL     1       2.365   4.878  19.572  0.00  0.00    +0.000 A 
ATOM     15  C   UNL     1       1.256   4.388  20.302  0.00  0.00    +0.000 A 
ATOM     16  C   UNL     1       1.028   3.024  20.454  0.00  0.00    +0.000 A 
ATOM     17  C   UNL     1       1.892   2.120  19.863  0.00  0.00    +0.000 A 
ATOM     18  C   UNL     1       2.992   2.586  19.139  0.00  0.00    +0.000 A 
ATOM     19  C   UNL     1       3.273   3.968  18.962  0.00  0.00    +0.000 A 
BRANCH  19  20
ATOM     20  C   UNL     1       4.502   4.333  18.195  0.00  0.00    +0.000 A 
ATOM     21  C   UNL     1       5.678   4.758  18.849  0.00  0.00    +0.000 A 
ATOM     22  C   UNL     1       6.826   5.134  18.141  0.00  0.00    +0.000 A 
ATOM     23  C   UNL     1       6.846   5.048  16.754  0.00  0.00    +0.000 A 
ATOM     24  C   UNL     1       5.708   4.626  16.070  0.00  0.00    +0.000 A 
ATOM     25  C   UNL     1       5.709   4.447  14.581  0.00  0.00    +0.000 C 
ATOM     26  C   UNL     1       4.544   4.317  16.792  0.00  0.00    +0.000 A 
ENDBRANCH  19  20
ENDBRANCH   2  14
TORSDOF 5
ENDMDL
MODEL 3
REMARK VINA RESULT:      -8.1      2.438      4.424
REMARK  Name = 
REMARK  7 active torsions:
REMARK  status: ('A' for Active; 'I' for Inactive)
REMARK    1  A    between atoms: C_1  and  C_2
REMARK    2  A    between atoms: C_2  and  C_3
REMARK    3  A    between atoms: C_3  and  N_4
REMARK    4  A    between atoms: C_6  and  N_7
REMARK    5  A    between atoms: C_8  and  C_10
REMARK    6  A    between atoms: C_15  and  C_16
REMARK    7  A    between atoms: C_20  and  C_21
REMARK                            x       y       z     vdW  Elec       q    Type
REMARK                         _______ _______ _______ _____ _____    ______ ____
ROOT
ATOM      1  N   UNL     1       2.024   8.515  17.891  0.00  0.00    +0.000 N 
ATOM      2  C   UNL     1       2.667   7.482  18.554  0.00  0.00    +0.000 C 
ATOM      3  O   UNL     1       2.537   7.305  19.758  0.00  0.00    +0.000 OA
ATOM      4  H   UNL     1       2.153   8.620  16.893  0.00  0.00    +0.000 HD
ENDROOT
BRANCH   1   7
ATOM      5  N   UNL     1      -0.507  11.080  18.349  0.00  0.00    +0.000 N 
ATOM      6  C   UNL     1      -0.184   9.733  17.928  0.00  0.00    +0.000 C 
ATOM      7  C   UNL     1       1.178   9.477  18.583  0.00  0.00    +0.000 C 
ATOM      8  C   UNL     1       1.809  10.867  18.635  0.00  0.00    +0.000 C 
ATOM      9  C   UNL     1       0.621  11.789  18.740  0.00  0.00    +0.000 C 
ATOM     10  O   UNL     1       0.680  12.965  19.043  0.00  0.00    +0.000 OA
BRANCH   5  11
ATOM     11  C   UNL     1      -1.794  11.712  18.106  0.00  0.00    +0.000 C 
BRANCH  11  13
ATOM     12  C   UNL     1      -3.873  10.483  17.336  0.00  0.00    +0.000 C 
ATOM     13  C   UNL     1      -2.551  11.117  16.922  0.00  0.00    +0.000 C 
ENDBRANCH  11  13
ENDBRANCH   5  11
ENDBRANCH   1   7
BRANCH   2  14
ATOM     14  C   UNL     1       3.539   6.605  17.695  0.00  0.00    +0.000 A 
ATOM     15  C   UNL     1       4.468   7.285  16.872  0.00  0.00    +0.000 A 
ATOM     16  C   UNL     1       5.353   6.598  16.048  0.00  0.00    +0.000 A 
ATOM     17  C   UNL     1       5.343   5.214  16.043  0.00  0.00    +0.000 A 
ATOM     18  C   UNL     1       4.433   4.526  16.849  0.00  0.00    +0.000 A 
ATOM     19  C   UNL     1       3.504   5.182  17.700  0.00  0.00    +0.000 A 
BRANCH  19  20
ATOM     20  C   UNL     1       2.560   4.330  18.484  0.00  0.00    +0.000 A 
ATOM     21  C   UNL     1       1.402   3.780  17.895  0.00  0.00    +0.000 A 
ATOM     22  C   UNL     1       0.493   3.006  18.626  0.00  0.00    +0.000 A 
ATOM     23  C   UNL     1       0.742   2.718  19.962  0.00  0.00    +0.000 A 
ATOM     24  C   UNL     1       1.879   3.235  20.581  0.00  0.00    +0.000 A 
ATOM     25  C   UNL     1       2.227   2.889  21.998  0.00  0.00    +0.000 C 
ATOM     26  C   UNL     1       2.745   4.064  19.850  0.00  0.00    +0.000 A 
ENDBRANCH  19  20
ENDBRANCH   2  14
TORSDOF 5
ENDMDL
MODEL 4
REMARK VINA RESULT:      -8.1      1.207      1.315
REMARK  Name = 
REMARK  7 active torsions:
REMARK  status: ('A' for Active; 'I' for Inactive)
REMARK    1  A    between atoms: C_1  and  C_2
REMARK    2  A    between atoms: C_2  and  C_3
REMARK    3  A    between atoms: C_3  and  N_4
REMARK    4  A    between atoms: C_6  and  N_7
REMARK    5  A    between atoms: C_8  and  C_10
REMARK    6  A    between atoms: C_15  and  C_16
REMARK    7  A    between atoms: C_20  and  C_21
REMARK                            x       y       z     vdW  Elec       q    Type
REMARK                         _______ _______ _______ _____ _____    ______ ____
ROOT
ATOM      1  N   UNL     1       2.057   6.635  19.572  0.00  0.00    +0.000 N 
ATOM      2  C   UNL     1       2.650   6.031  18.474  0.00  0.00    +0.000 C 
ATOM      3  O   UNL     1       3.227   6.678  17.612  0.00  0.00    +0.000 OA
ATOM      4  H   UNL     1       1.597   6.061  20.266  0.00  0.00    +0.000 HD
ENDROOT
BRANCH   1   7
ATOM      5  N   UNL     1       0.934   9.896  20.710  0.00  0.00    +0.000 N 
ATOM      6  C   UNL     1       1.392   8.566  21.051  0.00  0.00    +0.000 C 
ATOM      7  C   UNL     1       2.054   8.079  19.758  0.00  0.00    +0.000 C 
ATOM      8  C   UNL     1       1.262   8.799  18.667  0.00  0.00    +0.000 C 
ATOM      9  C   UNL     1       0.814  10.072  19.338  0.00  0.00    +0.000 C 
ATOM     10  O   UNL     1       0.359  11.038  18.759  0.00  0.00    +0.000 OA
BRANCH   5  11
ATOM     11  C   UNL     1       0.380  10.830  21.678  0.00  0.00    +0.000 C 
BRANCH  11  13
ATOM     12  C   UNL     1      -1.590  11.349  23.186  0.00  0.00    +0.000 C 
ATOM     13  C   UNL     1      -0.804  10.266  22.459  0.00  0.00    +0.000 C 
ENDBRANCH  11  13
ENDBRANCH   5  11
ENDBRANCH   1   7
BRANCH   2  14
ATOM     14  C   UNL     1       2.524   4.531  18.415  0.00  0.00    +0.000 A 
ATOM     15  C   UNL     1       1.273   4.007  18.818  0.00  0.00    +0.000 A 
ATOM     16  C   UNL     1       1.010   2.640  18.787  0.00  0.00    +0.000 A 
ATOM     17  C   UNL     1       1.986   1.771  18.334  0.00  0.00    +0.000 A 
ATOM     18  C   UNL     1       3.226   2.271  17.933  0.00  0.00    +0.000 A 
ATOM     19  C   UNL     1       3.546   3.656  17.953  0.00  0.00    +0.000 A 
BRANCH  19  20
ATOM     20  C   UNL     1       4.922   4.056  17.531  0.00  0.00    +0.000 A 
ATOM     21  C   UNL     1       5.368   3.870  16.205  0.00  0.00    +0.000 A 
ATOM     22  C   UNL     1       6.665   4.211  15.804  0.00  0.00    +0.000 A 
ATOM     23  C   UNL     1       7.542   4.795  16.710  0.00  0.00    +0.000 A 
ATOM     24  C   UNL     1       7.139   5.002  18.028  0.00  0.00    +0.000 A 
ATOM     25  C   UNL     1       8.024   5.696  19.019  0.00  0.00    +0.000 C 
ATOM     26  C   UNL     1       5.857   4.593  18.429  0.00  0.00    +0.000 A 
ENDBRANCH  19  20
ENDBRANCH   2  14
TORSDOF 5
ENDMDL
MODEL 5
REMARK VINA RESULT:      -7.9      1.303      1.491
REMARK  Name = 
REMARK  7 active torsions:
REMARK  status: ('A' for Active; 'I' for Inactive)
REMARK    1  A    between atoms: C_1  and  C_2
REMARK    2  A    between atoms: C_2  and  C_3
REMARK    3  A    between atoms: C_3  and  N_4
REMARK    4  A    between atoms: C_6  and  N_7
REMARK    5  A    between atoms: C_8  and  C_10
REMARK    6  A    between atoms: C_15  and  C_16
REMARK    7  A    between atoms: C_20  and  C_21
REMARK                            x       y       z     vdW  Elec       q    Type
REMARK                         _______ _______ _______ _____ _____    ______ ____
ROOT
ATOM      1  N   UNL     1       2.155   6.908  18.626  0.00  0.00    +0.000 N 
ATOM      2  C   UNL     1       2.390   5.885  19.531  0.00  0.00    +0.000 C 
ATOM      3  O   UNL     1       2.562   6.101  20.722  0.00  0.00    +0.000 OA
ATOM      4  H   UNL     1       2.010   6.684  17.650  0.00  0.00    +0.000 HD
ENDROOT
BRANCH   1   7
ATOM      5  N   UNL     1       0.929   9.969  20.149  0.00  0.00    +0.000 N 
ATOM      6  C   UNL     1       1.368   8.600  20.322  0.00  0.00    +0.000 C 
ATOM      7  C   UNL     1       2.129   8.308  19.024  0.00  0.00    +0.000 C 
ATOM      8  C   UNL     1       1.418   9.187  17.996  0.00  0.00    +0.000 C 
ATOM      9  C   UNL     1       0.913  10.347  18.814  0.00  0.00    +0.000 C 
ATOM     10  O   UNL     1       0.497  11.392  18.352  0.00  0.00    +0.000 OA
BRANCH   5  11
ATOM     11  C   UNL     1       0.297  10.751  21.201  0.00  0.00    +0.000 C 
BRANCH  11  13
ATOM     12  C   UNL     1      -1.245  10.726  23.212  0.00  0.00    +0.000 C 
ATOM     13  C   UNL     1      -0.388   9.898  22.265  0.00  0.00    +0.000 C 
ENDBRANCH  11  13
ENDBRANCH   5  11
ENDBRANCH   1   7
BRANCH   2  14
ATOM     14  C   UNL     1       2.427   4.498  18.944  0.00  0.00    +0.000 A 
ATOM     15  C   UNL     1       1.308   3.681  19.235  0.00  0.00    +0.000 A 
ATOM     16  C   UNL     1       1.199   2.388  18.734  0.00  0.00    +0.000 A 
ATOM     17  C   UNL     1       2.196   1.890  17.915  0.00  0.00    +0.000 A 
ATOM     18  C   UNL     1       3.307   2.682  17.617  0.00  0.00    +0.000 A 
ATOM     19  C   UNL     1       3.469   4.005  18.111  0.00  0.00    +0.000 A 
BRANCH  19  20
ATOM     20  C   UNL     1       4.722   4.732  17.746  0.00  0.00    +0.000 A 
ATOM     21  C   UNL     1       4.893   5.308  16.469  0.00  0.00    +0.000 A 
ATOM     22  C   UNL     1       6.074   5.964  16.103  0.00  0.00    +0.000 A 
ATOM     23  C   UNL     1       7.104   6.107  17.025  0.00  0.00    +0.000 A 
ATOM     24  C   UNL     1       6.973   5.560  18.300  0.00  0.00    +0.000 A 
ATOM     25  C   UNL     1       8.026   5.754  19.349  0.00  0.00    +0.000 C 
ATOM     26  C   UNL     1       5.808   4.847  18.627  0.00  0.00    +0.000 A 
ENDBRANCH  19  20
ENDBRANCH   2  14
TORSDOF 5
ENDMDL
MODEL 6
REMARK VINA RESULT:      -7.9      4.518      6.381
REMARK  Name = 
REMARK  7 active torsions:
REMARK  status: ('A' for Active; 'I' for Inactive)
REMARK    1  A    between atoms: C_1  and  C_2
REMARK    2  A    between atoms: C_2  and  C_3
REMARK    3  A    between atoms: C_3  and  N_4
REMARK    4  A    between atoms: C_6  and  N_7
REMARK    5  A    between atoms: C_8  and  C_10
REMARK    6  A    between atoms: C_15  and  C_16
REMARK    7  A    between atoms: C_20  and  C_21
REMARK                            x       y       z     vdW  Elec       q    Type
REMARK                         _______ _______ _______ _____ _____    ______ ____
ROOT
ATOM      1  N   UNL     1       3.745   5.200  16.804  0.00  0.00    +0.000 N 
ATOM      2  C   UNL     1       4.525   4.092  16.514  0.00  0.00    +0.000 C 
ATOM      3  O   UNL     1       4.419   3.044  17.136  0.00  0.00    +0.000 OA
ATOM      4  H   UNL     1       3.859   6.044  16.260  0.00  0.00    +0.000 HD
ENDROOT
BRANCH   1   7
ATOM      5  N   UNL     1       2.226   4.349  19.992  0.00  0.00    +0.000 N 
ATOM      6  C   UNL     1       3.345   4.930  19.280  0.00  0.00    +0.000 C 
ATOM      7  C   UNL     1       2.770   5.203  17.886  0.00  0.00    +0.000 C 
ATOM      8  C   UNL     1       1.720   4.106  17.718  0.00  0.00    +0.000 C 
ATOM      9  C   UNL     1       1.270   3.831  19.130  0.00  0.00    +0.000 C 
ATOM     10  O   UNL     1       0.278   3.196  19.431  0.00  0.00    +0.000 OA
BRANCH   5  11
ATOM     11  C   UNL     1       2.239   4.070  21.420  0.00  0.00    +0.000 C 
BRANCH  11  13
ATOM     12  C   UNL     1       3.736   2.064  21.021  0.00  0.00    +0.000 C 
ATOM     13  C   UNL     1       2.515   2.605  21.751  0.00  0.00    +0.000 C 
ENDBRANCH  11  13
ENDBRANCH   5  11
ENDBRANCH   1   7
BRANCH   2  14
ATOM     14  C   UNL     1       5.514   4.273  15.392  0.00  0.00    +0.000 A 
ATOM     15  C   UNL     1       5.158   3.672  14.161  0.00  0.00    +0.000 A 
ATOM     16  C   UNL     1       5.966   3.784  13.034  0.00  0.00    +0.000 A 
ATOM     17  C   UNL     1       7.138   4.516  13.107  0.00  0.00    +0.000 A 
ATOM     18  C   UNL     1       7.505   5.116  14.314  0.00  0.00    +0.000 A 
ATOM     19  C   UNL     1       6.718   5.024  15.495  0.00  0.00    +0.000 A 
BRANCH  19  20
ATOM     20  C   UNL     1       7.241   5.682  16.729  0.00  0.00    +0.000 A 
ATOM     21  C   UNL     1       7.574   4.933  17.878  0.00  0.00    +0.000 A 
ATOM     22  C   UNL     1       8.035   5.540  19.052  0.00  0.00    +0.000 A 
ATOM     23  C   UNL     1       8.223   6.917  19.096  0.00  0.00    +0.000 A 
ATOM     24  C   UNL     1       7.913   7.693  17.980  0.00  0.00    +0.000 A 
ATOM     25  C   UNL     1       8.171   9.170  17.956  0.00  0.00    +0.000 C 
ATOM     26  C   UNL     1       7.389   7.074  16.834  0.00  0.00    +0.000 A 
ENDBRANCH  19  20
ENDBRANCH   2  14
TORSDOF 5
ENDMDL
MODEL 7
REMARK VINA RESULT:      -7.9      1.727      4.021
REMARK  Name = 
REMARK  7 active torsions:
REMARK  status: ('A' for Active; 'I' for Inactive)
REMARK    1  A    between atoms: C_1  and  C_2
REMARK    2  A    between atoms: C_2  and  C_3
REMARK    3  A    between atoms: C_3  and  N_4
REMARK    4  A    between atoms: C_6  and  N_7
REMARK    5  A    between atoms: C_8  and  C_10
REMARK    6  A    between atoms: C_15  and  C_16
REMARK    7  A    between atoms: C_20  and  C_21
REMARK                            x       y       z     vdW  Elec       q    Type
REMARK                         _______ _______ _______ _____ _____    ______ ____
ROOT
ATOM      1  N   UNL     1       2.272   7.718  19.639  0.00  0.00    +0.000 N 
ATOM      2  C   UNL     1       2.354   7.568  18.264  0.00  0.00    +0.000 C 
ATOM      3  O   UNL     1       1.535   8.073  17.508  0.00  0.00    +0.000 OA
ATOM      4  H   UNL     1       2.975   7.291  20.228  0.00  0.00    +0.000 HD
ENDROOT
BRANCH   1   7
ATOM      5  N   UNL     1       0.512  10.527  21.125  0.00  0.00    +0.000 N 
ATOM      6  C   UNL     1       1.153   9.956  19.959  0.00  0.00    +0.000 C 
ATOM      7  C   UNL     1       1.193   8.457  20.279  0.00  0.00    +0.000 C 
ATOM      8  C   UNL     1       1.297   8.427  21.803  0.00  0.00    +0.000 C 
ATOM      9  C   UNL     1       0.595   9.690  22.229  0.00  0.00    +0.000 C 
ATOM     10  O   UNL     1       0.243   9.938  23.366  0.00  0.00    +0.000 OA
BRANCH   5  11
ATOM     11  C   UNL     1       0.102  11.920  21.217  0.00  0.00    +0.000 C 
BRANCH  11  13
ATOM     12  C   UNL     1      -1.912  11.919  19.679  0.00  0.00    +0.000 C 
ATOM     13  C   UNL     1      -1.406  12.119  21.101  0.00  0.00    +0.000 C 
ENDBRANCH  11  13
ENDBRANCH   5  11
ENDBRANCH   1   7
BRANCH   2  14
ATOM     14  C   UNL     1       3.509   6.737  17.771  0.00  0.00    +0.000 A 
ATOM     15  C   UNL     1       4.532   7.450  17.101  0.00  0.00    +0.000 A 
ATOM     16  C   UNL     1       5.671   6.811  16.619  0.00  0.00    +0.000 A 
ATOM     17  C   UNL     1       5.820   5.450  16.813  0.00  0.00    +0.000 A 
ATOM     18  C   UNL     1       4.820   4.731  17.471  0.00  0.00    +0.000 A 
ATOM     19  C   UNL     1       3.636   5.335  17.975  0.00  0.00    +0.000 A 
BRANCH  19  20
ATOM     20  C   UNL     1       2.628   4.447  18.629  0.00  0.00    +0.000 A 
ATOM     21  C   UNL     1       1.556   3.890  17.900  0.00  0.00    +0.000 A 
ATOM     22  C   UNL     1       0.586   3.083  18.507  0.00  0.00    +0.000 A 
ATOM     23  C   UNL     1       0.690   2.768  19.857  0.00  0.00    +0.000 A 
ATOM     24  C   UNL     1       1.738   3.291  20.611  0.00  0.00    +0.000 A 
ATOM     25  C   UNL     1       1.931   2.919  22.050  0.00  0.00    +0.000 C 
ATOM     26  C   UNL     1       2.663   4.153  20.001  0.00  0.00    +0.000 A 
ENDBRANCH  19  20
ENDBRANCH   2  14
TORSDOF 5
ENDMDL
MODEL 8
REMARK VINA RESULT:      -7.9      3.806      6.496
REMARK  Name = 
REMARK  7 active torsions:
REMARK  status: ('A' for Active; 'I' for Inactive)
REMARK    1  A    between atoms: C_1  and  C_2
REMARK    2  A    between atoms: C_2  and  C_3
REMARK    3  A    between atoms: C_3  and  N_4
REMARK    4  A    between atoms: C_6  and  N_7
REMARK    5  A    between atoms: C_8  and  C_10
REMARK    6  A    between atoms: C_15  and  C_16
REMARK    7  A    between atoms: C_20  and  C_21
REMARK                            x       y       z     vdW  Elec       q    Type
REMARK                         _______ _______ _______ _____ _____    ______ ____
ROOT
ATOM      1  N   UNL     1       4.551   2.744  17.169  0.00  0.00    +0.000 N 
ATOM      2  C   UNL     1       4.534   4.005  16.593  0.00  0.00    +0.000 C 
ATOM      3  O   UNL     1       3.780   4.885  16.985  0.00  0.00    +0.000 OA
ATOM      4  H   UNL     1       5.197   2.048  16.819  0.00  0.00    +0.000 HD
ENDROOT
BRANCH   1   7
ATOM      5  N   UNL     1       2.321   3.156  20.006  0.00  0.00    +0.000 N 
ATOM      6  C   UNL     1       2.594   3.418  18.608  0.00  0.00    +0.000 C 
ATOM      7  C   UNL     1       3.656   2.372  18.255  0.00  0.00    +0.000 C 
ATOM      8  C   UNL     1       4.401   2.170  19.573  0.00  0.00    +0.000 C 
ATOM      9  C   UNL     1       3.354   2.459  20.617  0.00  0.00    +0.000 C 
ATOM     10  O   UNL     1       3.458   2.187  21.798  0.00  0.00    +0.000 OA
BRANCH   5  11
ATOM     11  C   UNL     1       1.250   3.798  20.751  0.00  0.00    +0.000 C 
BRANCH  11  13
ATOM     12  C   UNL     1       1.774   6.277  20.761  0.00  0.00    +0.000 C 
ATOM     13  C   UNL     1       0.876   5.177  20.214  0.00  0.00    +0.000 C 
ENDBRANCH  11  13
ENDBRANCH   5  11
ENDBRANCH   1   7
BRANCH   2  14
ATOM     14  C   UNL     1       5.495   4.208  15.452  0.00  0.00    +0.000 A 
ATOM     15  C   UNL     1       5.126   3.603  14.226  0.00  0.00    +0.000 A 
ATOM     16  C   UNL     1       5.909   3.734  13.083  0.00  0.00    +0.000 A 
ATOM     17  C   UNL     1       7.067   4.489  13.135  0.00  0.00    +0.000 A 
ATOM     18  C   UNL     1       7.447   5.092  14.336  0.00  0.00    +0.000 A 
ATOM     19  C   UNL     1       6.687   4.982  15.532  0.00  0.00    +0.000 A 
BRANCH  19  20
ATOM     20  C   UNL     1       7.222   5.647  16.758  0.00  0.00    +0.000 A 
ATOM     21  C   UNL     1       7.572   4.903  17.905  0.00  0.00    +0.000 A 
ATOM     22  C   UNL     1       8.044   5.517  19.071  0.00  0.00    +0.000 A 
ATOM     23  C   UNL     1       8.227   6.894  19.107  0.00  0.00    +0.000 A 
ATOM     24  C   UNL     1       7.901   7.665  17.993  0.00  0.00    +0.000 A 
ATOM     25  C   UNL     1       8.152   9.143  17.960  0.00  0.00    +0.000 C 
ATOM     26  C   UNL     1       7.365   7.040  16.855  0.00  0.00    +0.000 A 
ENDBRANCH  19  20
ENDBRANCH   2  14
TORSDOF 5
ENDMDL
MODEL 9
REMARK VINA RESULT:      -7.8      1.407      2.090
REMARK  Name = 
REMARK  7 active torsions:
REMARK  status: ('A' for Active; 'I' for Inactive)
REMARK    1  A    between atoms: C_1  and  C_2
REMARK    2  A    between atoms: C_2  and  C_3
REMARK    3  A    between atoms: C_3  and  N_4
REMARK    4  A    between atoms: C_6  and  N_7
REMARK    5  A    between atoms: C_8  and  C_10
REMARK    6  A    between atoms: C_15  and  C_16
REMARK    7  A    between atoms: C_20  and  C_21
REMARK                            x       y       z     vdW  Elec       q    Type
REMARK                         _______ _______ _______ _____ _____    ______ ____
ROOT
ATOM      1  N   UNL     1       1.920   6.733  18.791  0.00  0.00    +0.000 N 
ATOM      2  C   UNL     1       2.837   5.791  19.230  0.00  0.00    +0.000 C 
ATOM      3  O   UNL     1       3.821   6.102  19.888  0.00  0.00    +0.000 OA
ATOM      4  H   UNL     1       1.116   6.431  18.257  0.00  0.00    +0.000 HD
ENDROOT
BRANCH   1   7
ATOM      5  N   UNL     1       1.169  10.036  20.102  0.00  0.00    +0.000 N 
ATOM      6  C   UNL     1       1.470   8.646  20.372  0.00  0.00    +0.000 C 
ATOM      7  C   UNL     1       2.080   8.156  19.054  0.00  0.00    +0.000 C 
ATOM      8  C   UNL     1       1.382   9.018  18.003  0.00  0.00    +0.000 C 
ATOM      9  C   UNL     1       1.078  10.296  18.742  0.00  0.00    +0.000 C 
ATOM     10  O   UNL     1       0.739  11.338  18.215  0.00  0.00    +0.000 OA
BRANCH   5  11
ATOM     11  C   UNL     1       0.718  10.974  21.118  0.00  0.00    +0.000 C 
BRANCH  11  13
ATOM     12  C   UNL     1      -1.063  11.106  22.916  0.00  0.00    +0.000 C 
ATOM     13  C   UNL     1      -0.768  10.851  21.445  0.00  0.00    +0.000 C 
ENDBRANCH  11  13
ENDBRANCH   5  11
ENDBRANCH   1   7
BRANCH   2  14
ATOM     14  C   UNL     1       2.542   4.368  18.835  0.00  0.00    +0.000 A 
ATOM     15  C   UNL     1       1.318   3.842  19.312  0.00  0.00    +0.000 A 
ATOM     16  C   UNL     1       0.908   2.550  18.998  0.00  0.00    +0.000 A 
ATOM     17  C   UNL     1       1.703   1.762  18.186  0.00  0.00    +0.000 A 
ATOM     18  C   UNL     1       2.914   2.265  17.706  0.00  0.00    +0.000 A 
ATOM     19  C   UNL     1       3.381   3.574  18.004  0.00  0.00    +0.000 A 
BRANCH  19  20
ATOM     20  C   UNL     1       4.712   3.977  17.457  0.00  0.00    +0.000 A 
ATOM     21  C   UNL     1       5.795   4.284  18.308  0.00  0.00    +0.000 A 
ATOM     22  C   UNL     1       7.037   4.694  17.810  0.00  0.00    +0.000 A 
ATOM     23  C   UNL     1       7.247   4.762  16.437  0.00  0.00    +0.000 A 
ATOM     24  C   UNL     1       6.206   4.460  15.561  0.00  0.00    +0.000 A 
ATOM     25  C   UNL     1       6.409   4.446  14.076  0.00  0.00    +0.000 C 
ATOM     26  C   UNL     1       4.947   4.115  16.080  0.00  0.00    +0.000 A 
ENDBRANCH  19  20
ENDBRANCH   2  14
TORSDOF 5
ENDMDL
