MODEL 1
REMARK VINA RESULT:      -8.7      0.000      0.000
REMARK  Name = 
REMARK  6 active torsions:
REMARK  status: ('A' for Active; 'I' for Inactive)
REMARK    1  A    between atoms: C_5  and  N_6
REMARK    2  A    between atoms: N_6  and  C_7
REMARK    3  A    between atoms: C_7  and  C_8
REMARK    4  A    between atoms: N_12  and  C_13
REMARK    5  A    between atoms: C_13  and  C_14
REMARK    6  A    between atoms: C_17  and  C_18
REMARK                            x       y       z     vdW  Elec       q    Type
REMARK                         _______ _______ _______ _____ _____    ______ ____
ROOT
ATOM      1  C   UNL     1       2.110   3.499  19.158  0.00  0.00    +0.000 A 
ATOM      2  C   UNL     1       1.480   2.479  19.855  0.00  0.00    +0.000 A 
ATOM      3  N   UNL     1       1.460   2.722  21.198  0.00  0.00    +0.000 NA
ATOM      4  C   UNL     1       2.056   3.880  21.342  0.00  0.00    +0.000 A 
ATOM      5  N   UNL     1       2.361   4.462  20.130  0.00  0.00    +0.000 N 
ENDROOT
BRANCH   1   6
ATOM      6  C   UNL     1       2.414   3.540  17.684  0.00  0.00    +0.000 C 
BRANCH   6   7
ATOM      7  N   UNL     1       3.801   3.209  17.364  0.00  0.00    +0.000 N 
ATOM      8  H   UNL     1       4.070   2.256  17.587  0.00  0.00    +0.000 HD
BRANCH   7  13
ATOM      9  F   UNL     1       7.825   7.015  16.808  0.00  0.00    +0.000 F 
ATOM     10  C   UNL     1       6.868   6.088  16.973  0.00  0.00    +0.000 A 
ATOM     11  C   UNL     1       5.991   5.836  15.930  0.00  0.00    +0.000 A 
ATOM     12  C   UNL     1       4.993   4.864  16.088  0.00  0.00    +0.000 A 
ATOM     13  C   UNL     1       4.853   4.114  17.274  0.00  0.00    +0.000 A 
ATOM     14  C   UNL     1       5.728   4.425  18.324  0.00  0.00    +0.000 A 
ATOM     15  C   UNL     1       6.739   5.391  18.168  0.00  0.00    +0.000 A 
ATOM     16 CL   UNL     1       7.824   5.703  19.471  0.00  0.00    +0.000 Cl
ENDBRANCH   7  13
ENDBRANCH   6   7
ENDBRANCH   1   6
BRANCH   5  17
ATOM     17  C   UNL     1       3.029   5.772  20.033  0.00  0.00    +0.000 C 
BRANCH  17  18
ATOM     18  C   UNL     1       2.140   7.025  20.031  0.00  0.00    +0.000 A 
ATOM     19  C   UNL     1       1.320   7.393  21.105  0.00  0.00    +0.000 A 
ATOM     20  C   UNL     1       0.533   8.569  21.073  0.00  0.00    +0.000 A 
ATOM     21  C   UNL     1       0.505   9.451  19.976  0.00  0.00    +0.000 A 
ATOM     22  C   UNL     1       1.381   9.127  18.928  0.00  0.00    +0.000 A 
ATOM     23  C   UNL     1       2.174   7.945  18.956  0.00  0.00    +0.000 A 
ATOM     24 CL   UNL     1       3.199   7.660  17.586  0.00  0.00    +0.000 Cl
BRANCH  21  25
ATOM     25  C   UNL     1      -0.483  10.576  19.920  0.00  0.00    +0.000 A 
ATOM     26  C   UNL     1      -1.244  10.926  18.790  0.00  0.00    +0.000 A 
ATOM     27  C   UNL     1      -2.195  11.969  18.830  0.00  0.00    +0.000 A 
ATOM     28  C   UNL     1      -2.415  12.690  20.004  0.00  0.00    +0.000 A 
ATOM     29  C   UNL     1      -1.666  12.382  21.130  0.00  0.00    +0.000 A 
ATOM     30  C   UNL     1      -0.723  11.348  21.081  0.00  0.00    +0.000 A 
ENDBRANCH  21  25
ENDBRANCH  17  18
ENDBRANCH   5  17
TORSDOF 6
ENDMDL
MODEL 2
REMARK VINA RESULT:      -8.7      2.844      4.476
REMARK  Name = 
REMARK  6 active torsions:
REMARK  status: ('A' for Active; 'I' for Inactive)
REMARK    1  A    between atoms: C_5  and  N_6
REMARK    2  A    between atoms: N_6  and  C_7
REMARK    3  A    between atoms: C_7  and  C_8
REMARK    4  A    between atoms: N_12  and  C_13
REMARK    5  A    between atoms: C_13  and  C_14
REMARK    6  A    between atoms: C_17  and  C_18
REMARK                            x       y       z     vdW  Elec       q    Type
REMARK                         _______ _______ _______ _____ _____    ______ ____
ROOT
ATOM      1  C   UNL     1       5.784   5.814  18.033  0.00  0.00    +0.000 A 
ATOM      2  C   UNL     1       6.734   6.242  17.118  0.00  0.00    +0.000 A 
ATOM      3  N   UNL     1       6.160   6.871  16.050  0.00  0.00    +0.000 NA
ATOM      4  C   UNL     1       4.874   6.850  16.297  0.00  0.00    +0.000 A 
ATOM      5  N   UNL     1       4.591   6.335  17.544  0.00  0.00    +0.000 N 
ENDROOT
BRANCH   1   6
ATOM      6  C   UNL     1       6.023   5.000  19.277  0.00  0.00    +0.000 C 
BRANCH   6   7
ATOM      7  N   UNL     1       5.576   3.612  19.160  0.00  0.00    +0.000 N 
ATOM      8  H   UNL     1       6.249   2.986  18.730  0.00  0.00    +0.000 HD
BRANCH   7  13
ATOM      9  F   UNL     1       0.373   1.685  18.718  0.00  0.00    +0.000 F 
ATOM     10  C   UNL     1       1.620   2.161  18.857  0.00  0.00    +0.000 A 
ATOM     11  C   UNL     1       2.469   2.149  17.762  0.00  0.00    +0.000 A 
ATOM     12  C   UNL     1       3.772   2.650  17.893  0.00  0.00    +0.000 A 
ATOM     13  C   UNL     1       4.254   3.186  19.105  0.00  0.00    +0.000 A 
ATOM     14  C   UNL     1       3.385   3.144  20.204  0.00  0.00    +0.000 A 
ATOM     15  C   UNL     1       2.073   2.652  20.076  0.00  0.00    +0.000 A 
ATOM     16 CL   UNL     1       1.023   2.666  21.444  0.00  0.00    +0.000 Cl
ENDBRANCH   7  13
ENDBRANCH   6   7
ENDBRANCH   1   6
BRANCH   5  17
ATOM     17  C   UNL     1       3.213   6.215  18.051  0.00  0.00    +0.000 C 
BRANCH  17  18
ATOM     18  C   UNL     1       2.502   7.504  18.489  0.00  0.00    +0.000 A 
ATOM     19  C   UNL     1       2.378   8.635  17.672  0.00  0.00    +0.000 A 
ATOM     20  C   UNL     1       1.692   9.796  18.103  0.00  0.00    +0.000 A 
ATOM     21  C   UNL     1       1.094   9.912  19.373  0.00  0.00    +0.000 A 
ATOM     22  C   UNL     1       1.150   8.757  20.167  0.00  0.00    +0.000 A 
ATOM     23  C   UNL     1       1.838   7.587  19.736  0.00  0.00    +0.000 A 
ATOM     24 CL   UNL     1       1.842   6.238  20.827  0.00  0.00    +0.000 Cl
BRANCH  21  25
ATOM     25  C   UNL     1       0.548  11.225  19.846  0.00  0.00    +0.000 A 
ATOM     26  C   UNL     1      -0.738  11.417  20.385  0.00  0.00    +0.000 A 
ATOM     27  C   UNL     1      -1.163  12.678  20.857  0.00  0.00    +0.000 A 
ATOM     28  C   UNL     1      -0.313  13.783  20.807  0.00  0.00    +0.000 A 
ATOM     29  C   UNL     1       0.952  13.631  20.262  0.00  0.00    +0.000 A 
ATOM     30  C   UNL     1       1.366  12.378  19.793  0.00  0.00    +0.000 A 
ENDBRANCH  21  25
ENDBRANCH  17  18
ENDBRANCH   5  17
TORSDOF 6
ENDMDL
MODEL 3
REMARK VINA RESULT:      -8.6      3.034      8.147
REMARK  Name = 
REMARK  6 active torsions:
REMARK  status: ('A' for Active; 'I' for Inactive)
REMARK    1  A    between atoms: C_5  and  N_6
REMARK    2  A    between atoms: N_6  and  C_7
REMARK    3  A    between atoms: C_7  and  C_8
REMARK    4  A    between atoms: N_12  and  C_13
REMARK    5  A    between atoms: C_13  and  C_14
REMARK    6  A    between atoms: C_17  and  C_18
REMARK                            x       y       z     vdW  Elec       q    Type
REMARK                         _______ _______ _______ _____ _____    ______ ____
ROOT
ATOM      1  C   UNL     1       2.079   4.621  19.929  0.00  0.00    +0.000 A 
ATOM      2  C   UNL     1       0.899   4.118  20.457  0.00  0.00    +0.000 A 
ATOM      3  N   UNL     1       1.076   2.877  20.998  0.00  0.00    +0.000 NA
ATOM      4  C   UNL     1       2.347   2.610  20.824  0.00  0.00    +0.000 A 
ATOM      5  N   UNL     1       3.036   3.680  20.294  0.00  0.00    +0.000 N 
ENDROOT
BRANCH   1   6
ATOM      6  C   UNL     1       2.257   5.906  19.165  0.00  0.00    +0.000 C 
BRANCH   6   7
ATOM      7  N   UNL     1       2.541   7.058  20.020  0.00  0.00    +0.000 N 
ATOM      8  H   UNL     1       3.216   6.882  20.756  0.00  0.00    +0.000 HD
BRANCH   7  13
ATOM      9  F   UNL     1      -0.986  11.323  20.617  0.00  0.00    +0.000 F 
ATOM     10  C   UNL     1      -0.136  10.290  20.508  0.00  0.00    +0.000 A 
ATOM     11  C   UNL     1       0.443  10.025  19.277  0.00  0.00    +0.000 A 
ATOM     12  C   UNL     1       1.338   8.952  19.152  0.00  0.00    +0.000 A 
ATOM     13  C   UNL     1       1.687   8.132  20.245  0.00  0.00    +0.000 A 
ATOM     14  C   UNL     1       1.050   8.400  21.464  0.00  0.00    +0.000 A 
ATOM     15  C   UNL     1       0.160   9.481  21.599  0.00  0.00    +0.000 A 
ATOM     16 CL   UNL     1      -0.562   9.803  23.132  0.00  0.00    +0.000 Cl
ENDBRANCH   7  13
ENDBRANCH   6   7
ENDBRANCH   1   6
BRANCH   5  17
ATOM     17  C   UNL     1       4.481   3.624  20.014  0.00  0.00    +0.000 C 
BRANCH  17  18
ATOM     18  C   UNL     1       4.934   3.852  18.564  0.00  0.00    +0.000 A 
ATOM     19  C   UNL     1       4.266   3.322  17.453  0.00  0.00    +0.000 A 
ATOM     20  C   UNL     1       4.701   3.576  16.130  0.00  0.00    +0.000 A 
ATOM     21  C   UNL     1       5.827   4.364  15.825  0.00  0.00    +0.000 A 
ATOM     22  C   UNL     1       6.456   4.959  16.929  0.00  0.00    +0.000 A 
ATOM     23  C   UNL     1       6.021   4.706  18.261  0.00  0.00    +0.000 A 
ATOM     24 CL   UNL     1       6.901   5.494  19.532  0.00  0.00    +0.000 Cl
BRANCH  21  25
ATOM     25  C   UNL     1       6.350   4.445  14.423  0.00  0.00    +0.000 A 
ATOM     26  C   UNL     1       7.376   5.306  13.993  0.00  0.00    +0.000 A 
ATOM     27  C   UNL     1       7.851   5.288  12.663  0.00  0.00    +0.000 A 
ATOM     28  C   UNL     1       7.315   4.404  11.726  0.00  0.00    +0.000 A 
ATOM     29  C   UNL     1       6.288   3.558  12.114  0.00  0.00    +0.000 A 
ATOM     30  C   UNL     1       5.821   3.584  13.433  0.00  0.00    +0.000 A 
ENDBRANCH  21  25
ENDBRANCH  17  18
ENDBRANCH   5  17
TORSDOF 6
ENDMDL
MODEL 4
REMARK VINA RESULT:      -8.4      3.210      8.479
REMARK  Name = 
REMARK  6 active torsions:
REMARK  status: ('A' for Active; 'I' for Inactive)
REMARK    1  A    between atoms: C_5  and  N_6
REMARK    2  A    between atoms: N_6  and  C_7
REMARK    3  A    between atoms: C_7  and  C_8
REMARK    4  A    between atoms: N_12  and  C_13
REMARK    5  A    between atoms: C_13  and  C_14
REMARK    6  A    between atoms: C_17  and  C_18
REMARK                            x       y       z     vdW  Elec       q    Type
REMARK                         _______ _______ _______ _____ _____    ______ ____
ROOT
ATOM      1  C   UNL     1       2.159   5.201  20.243  0.00  0.00    +0.000 A 
ATOM      2  C   UNL     1       1.052   4.428  20.559  0.00  0.00    +0.000 A 
ATOM      3  N   UNL     1       1.361   3.100  20.615  0.00  0.00    +0.000 NA
ATOM      4  C   UNL     1       2.643   3.039  20.351  0.00  0.00    +0.000 A 
ATOM      5  N   UNL     1       3.211   4.290  20.241  0.00  0.00    +0.000 N 
ENDROOT
BRANCH   1   6
ATOM      6  C   UNL     1       2.191   6.685  19.993  0.00  0.00    +0.000 C 
BRANCH   6   7
ATOM      7  N   UNL     1       1.743   7.478  21.137  0.00  0.00    +0.000 N 
ATOM      8  H   UNL     1       1.636   6.954  21.999  0.00  0.00    +0.000 HD
BRANCH   7  13
ATOM      9  F   UNL     1      -1.235  12.145  20.553  0.00  0.00    +0.000 F 
ATOM     10  C   UNL     1      -0.524  11.020  20.728  0.00  0.00    +0.000 A 
ATOM     11  C   UNL     1       0.210  10.518  19.665  0.00  0.00    +0.000 A 
ATOM     12  C   UNL     1       0.962   9.347  19.838  0.00  0.00    +0.000 A 
ATOM     13  C   UNL     1       1.014   8.661  21.069  0.00  0.00    +0.000 A 
ATOM     14  C   UNL     1       0.227   9.171  22.110  0.00  0.00    +0.000 A 
ATOM     15  C   UNL     1      -0.521  10.352  21.947  0.00  0.00    +0.000 A 
ATOM     16 CL   UNL     1      -1.435  10.969  23.272  0.00  0.00    +0.000 Cl
ENDBRANCH   7  13
ENDBRANCH   6   7
ENDBRANCH   1   6
BRANCH   5  17
ATOM     17  C   UNL     1       4.644   4.481  19.953  0.00  0.00    +0.000 C 
BRANCH  17  18
ATOM     18  C   UNL     1       5.079   4.487  18.480  0.00  0.00    +0.000 A 
ATOM     19  C   UNL     1       4.227   4.149  17.421  0.00  0.00    +0.000 A 
ATOM     20  C   UNL     1       4.660   4.191  16.074  0.00  0.00    +0.000 A 
ATOM     21  C   UNL     1       5.963   4.565  15.692  0.00  0.00    +0.000 A 
ATOM     22  C   UNL     1       6.797   4.977  16.742  0.00  0.00    +0.000 A 
ATOM     23  C   UNL     1       6.366   4.936  18.099  0.00  0.00    +0.000 A 
ATOM     24 CL   UNL     1       7.507   5.458  19.296  0.00  0.00    +0.000 Cl
BRANCH  21  25
ATOM     25  C   UNL     1       6.420   4.411  14.274  0.00  0.00    +0.000 A 
ATOM     26  C   UNL     1       5.864   3.518  13.339  0.00  0.00    +0.000 A 
ATOM     27  C   UNL     1       6.317   3.467  12.002  0.00  0.00    +0.000 A 
ATOM     28  C   UNL     1       7.336   4.311  11.561  0.00  0.00    +0.000 A 
ATOM     29  C   UNL     1       7.918   5.188  12.463  0.00  0.00    +0.000 A 
ATOM     30  C   UNL     1       7.466   5.230  13.788  0.00  0.00    +0.000 A 
ENDBRANCH  21  25
ENDBRANCH  17  18
ENDBRANCH   5  17
TORSDOF 6
ENDMDL
MODEL 5
REMARK VINA RESULT:      -8.3      2.996      8.291
REMARK  Name = 
REMARK  6 active torsions:
REMARK  status: ('A' for Active; 'I' for Inactive)
REMARK    1  A    between atoms: C_5  and  N_6
REMARK    2  A    between atoms: N_6  and  C_7
REMARK    3  A    between atoms: C_7  and  C_8
REMARK    4  A    between atoms: N_12  and  C_13
REMARK    5  A    between atoms: C_13  and  C_14
REMARK    6  A    between atoms: C_17  and  C_18
REMARK                            x       y       z     vdW  Elec       q    Type
REMARK                         _______ _______ _______ _____ _____    ______ ____
ROOT
ATOM      1  C   UNL     1       2.106   4.846  19.944  0.00  0.00    +0.000 A 
ATOM      2  C   UNL     1       0.934   4.303  20.449  0.00  0.00    +0.000 A 
ATOM      3  N   UNL     1       1.132   3.048  20.948  0.00  0.00    +0.000 NA
ATOM      4  C   UNL     1       2.408   2.810  20.770  0.00  0.00    +0.000 A 
ATOM      5  N   UNL     1       3.079   3.910  20.281  0.00  0.00    +0.000 N 
ENDROOT
BRANCH   1   6
ATOM      6  C   UNL     1       2.264   6.159  19.226  0.00  0.00    +0.000 C 
BRANCH   6   7
ATOM      7  N   UNL     1       2.433   7.299  20.125  0.00  0.00    +0.000 N 
ATOM      8  H   UNL     1       3.113   7.157  20.865  0.00  0.00    +0.000 HD
BRANCH   7  13
ATOM      9  F   UNL     1      -1.263  11.248  21.442  0.00  0.00    +0.000 F 
ATOM     10  C   UNL     1      -0.373  10.307  21.091  0.00  0.00    +0.000 A 
ATOM     11  C   UNL     1       0.006   9.359  22.029  0.00  0.00    +0.000 A 
ATOM     12  C   UNL     1       0.930   8.366  21.671  0.00  0.00    +0.000 A 
ATOM     13  C   UNL     1       1.484   8.284  20.377  0.00  0.00    +0.000 A 
ATOM     14  C   UNL     1       1.112   9.282  19.467  0.00  0.00    +0.000 A 
ATOM     15  C   UNL     1       0.177  10.275  19.815  0.00  0.00    +0.000 A 
ATOM     16 CL   UNL     1      -0.287  11.453  18.645  0.00  0.00    +0.000 Cl
ENDBRANCH   7  13
ENDBRANCH   6   7
ENDBRANCH   1   6
BRANCH   5  17
ATOM     17  C   UNL     1       4.526   3.890  20.005  0.00  0.00    +0.000 C 
BRANCH  17  18
ATOM     18  C   UNL     1       4.973   4.021  18.542  0.00  0.00    +0.000 A 
ATOM     19  C   UNL     1       4.249   3.499  17.462  0.00  0.00    +0.000 A 
ATOM     20  C   UNL     1       4.682   3.663  16.125  0.00  0.00    +0.000 A 
ATOM     21  C   UNL     1       5.862   4.346  15.773  0.00  0.00    +0.000 A 
ATOM     22  C   UNL     1       6.553   4.934  16.843  0.00  0.00    +0.000 A 
ATOM     23  C   UNL     1       6.120   4.773  18.190  0.00  0.00    +0.000 A 
ATOM     24 CL   UNL     1       7.078   5.540  19.415  0.00  0.00    +0.000 Cl
BRANCH  21  25
ATOM     25  C   UNL     1       6.369   4.325  14.363  0.00  0.00    +0.000 A 
ATOM     26  C   UNL     1       5.839   3.535  13.326  0.00  0.00    +0.000 A 
ATOM     27  C   UNL     1       6.338   3.609  12.008  0.00  0.00    +0.000 A 
ATOM     28  C   UNL     1       7.380   4.479  11.687  0.00  0.00    +0.000 A 
ATOM     29  C   UNL     1       7.938   5.256  12.691  0.00  0.00    +0.000 A 
ATOM     30  C   UNL     1       7.439   5.174  13.997  0.00  0.00    +0.000 A 
ENDBRANCH  21  25
ENDBRANCH  17  18
ENDBRANCH   5  17
TORSDOF 6
ENDMDL
MODEL 6
REMARK VINA RESULT:      -8.2      1.673      2.163
REMARK  Name = 
REMARK  6 active torsions:
REMARK  status: ('A' for Active; 'I' for Inactive)
REMARK    1  A    between atoms: C_5  and  N_6
REMARK    2  A    between atoms: N_6  and  C_7
REMARK    3  A    between atoms: C_7  and  C_8
REMARK    4  A    between atoms: N_12  and  C_13
REMARK    5  A    between atoms: C_13  and  C_14
REMARK    6  A    between atoms: C_17  and  C_18
REMARK                            x       y       z     vdW  Elec       q    Type
REMARK                         _______ _______ _______ _____ _____    ______ ____
ROOT
ATOM      1  C   UNL     1       2.338   3.427  18.855  0.00  0.00    +0.000 A 
ATOM      2  C   UNL     1       1.521   2.437  19.380  0.00  0.00    +0.000 A 
ATOM      3  N   UNL     1       1.164   2.707  20.670  0.00  0.00    +0.000 NA
ATOM      4  C   UNL     1       1.737   3.852  20.947  0.00  0.00    +0.000 A 
ATOM      5  N   UNL     1       2.359   4.402  19.847  0.00  0.00    +0.000 N 
ENDROOT
BRANCH   1   6
ATOM      6  C   UNL     1       3.011   3.432  17.508  0.00  0.00    +0.000 C 
BRANCH   6   7
ATOM      7  N   UNL     1       4.461   3.600  17.581  0.00  0.00    +0.000 N 
ATOM      8  H   UNL     1       4.821   3.773  18.514  0.00  0.00    +0.000 HD
BRANCH   7  13
ATOM      9  F   UNL     1       7.999   5.306  13.636  0.00  0.00    +0.000 F 
ATOM     10  C   UNL     1       7.125   4.880  14.562  0.00  0.00    +0.000 A 
ATOM     11  C   UNL     1       7.299   5.275  15.879  0.00  0.00    +0.000 A 
ATOM     12  C   UNL     1       6.389   4.842  16.855  0.00  0.00    +0.000 A 
ATOM     13  C   UNL     1       5.283   4.025  16.543  0.00  0.00    +0.000 A 
ATOM     14  C   UNL     1       5.161   3.609  15.210  0.00  0.00    +0.000 A 
ATOM     15  C   UNL     1       6.064   4.048  14.224  0.00  0.00    +0.000 A 
ATOM     16 CL   UNL     1       5.845   3.551  12.588  0.00  0.00    +0.000 Cl
ENDBRANCH   7  13
ENDBRANCH   6   7
ENDBRANCH   1   6
BRANCH   5  17
ATOM     17  C   UNL     1       3.067   5.693  19.908  0.00  0.00    +0.000 C 
BRANCH  17  18
ATOM     18  C   UNL     1       2.216   6.971  19.938  0.00  0.00    +0.000 A 
ATOM     19  C   UNL     1       1.456   7.368  21.045  0.00  0.00    +0.000 A 
ATOM     20  C   UNL     1       0.703   8.567  21.041  0.00  0.00    +0.000 A 
ATOM     21  C   UNL     1       0.650   9.443  19.940  0.00  0.00    +0.000 A 
ATOM     22  C   UNL     1       1.468   9.089  18.856  0.00  0.00    +0.000 A 
ATOM     23  C   UNL     1       2.227   7.884  18.856  0.00  0.00    +0.000 A 
ATOM     24 CL   UNL     1       3.180   7.563  17.443  0.00  0.00    +0.000 Cl
BRANCH  21  25
ATOM     25  C   UNL     1      -0.307  10.595  19.922  0.00  0.00    +0.000 A 
ATOM     26  C   UNL     1      -0.476  11.520  20.969  0.00  0.00    +0.000 A 
ATOM     27  C   UNL     1      -1.364  12.612  20.857  0.00  0.00    +0.000 A 
ATOM     28  C   UNL     1      -2.105  12.814  19.693  0.00  0.00    +0.000 A 
ATOM     29  C   UNL     1      -1.976  11.908  18.651  0.00  0.00    +0.000 A 
ATOM     30  C   UNL     1      -1.097  10.825  18.771  0.00  0.00    +0.000 A 
ENDBRANCH  21  25
ENDBRANCH  17  18
ENDBRANCH   5  17
TORSDOF 6
ENDMDL
MODEL 7
REMARK VINA RESULT:      -8.1      3.622      7.254
REMARK  Name = 
REMARK  6 active torsions:
REMARK  status: ('A' for Active; 'I' for Inactive)
REMARK    1  A    between atoms: C_5  and  N_6
REMARK    2  A    between atoms: N_6  and  C_7
REMARK    3  A    between atoms: C_7  and  C_8
REMARK    4  A    between atoms: N_12  and  C_13
REMARK    5  A    between atoms: C_13  and  C_14
REMARK    6  A    between atoms: C_17  and  C_18
REMARK                            x       y       z     vdW  Elec       q    Type
REMARK                         _______ _______ _______ _____ _____    ______ ____
ROOT
ATOM      1  C   UNL     1       3.748   4.665  19.284  0.00  0.00    +0.000 A 
ATOM      2  C   UNL     1       3.180   3.809  20.216  0.00  0.00    +0.000 A 
ATOM      3  N   UNL     1       3.791   2.588  20.220  0.00  0.00    +0.000 NA
ATOM      4  C   UNL     1       4.734   2.678  19.315  0.00  0.00    +0.000 A 
ATOM      5  N   UNL     1       4.841   3.953  18.801  0.00  0.00    +0.000 N 
ENDROOT
BRANCH   1   6
ATOM      6  C   UNL     1       3.285   6.050  18.920  0.00  0.00    +0.000 C 
BRANCH   6   7
ATOM      7  N   UNL     1       2.454   6.675  19.948  0.00  0.00    +0.000 N 
ATOM      8  H   UNL     1       1.978   6.023  20.562  0.00  0.00    +0.000 HD
BRANCH   7  13
ATOM      9  F   UNL     1       0.076  11.669  19.322  0.00  0.00    +0.000 F 
ATOM     10  C   UNL     1       0.643  10.467  19.507  0.00  0.00    +0.000 A 
ATOM     11  C   UNL     1       1.289   9.859  18.443  0.00  0.00    +0.000 A 
ATOM     12  C   UNL     1       1.891   8.605  18.626  0.00  0.00    +0.000 A 
ATOM     13  C   UNL     1       1.878   7.939  19.869  0.00  0.00    +0.000 A 
ATOM     14  C   UNL     1       1.179   8.561  20.912  0.00  0.00    +0.000 A 
ATOM     15  C   UNL     1       0.582   9.824  20.738  0.00  0.00    +0.000 A 
ATOM     16 CL   UNL     1      -0.224  10.573  22.065  0.00  0.00    +0.000 Cl
ENDBRANCH   7  13
ENDBRANCH   6   7
ENDBRANCH   1   6
BRANCH   5  17
ATOM     17  C   UNL     1       5.836   4.304  17.772  0.00  0.00    +0.000 C 
BRANCH  17  18
ATOM     18  C   UNL     1       6.572   5.644  17.923  0.00  0.00    +0.000 A 
ATOM     19  C   UNL     1       7.629   5.848  18.819  0.00  0.00    +0.000 A 
ATOM     20  C   UNL     1       8.299   7.092  18.911  0.00  0.00    +0.000 A 
ATOM     21  C   UNL     1       7.960   8.212  18.126  0.00  0.00    +0.000 A 
ATOM     22  C   UNL     1       6.953   7.991  17.175  0.00  0.00    +0.000 A 
ATOM     23  C   UNL     1       6.277   6.741  17.079  0.00  0.00    +0.000 A 
ATOM     24 CL   UNL     1       5.041   6.613  15.869  0.00  0.00    +0.000 Cl
BRANCH  21  25
ATOM     25  C   UNL     1       8.574   9.551  18.396  0.00  0.00    +0.000 A 
ATOM     26  C   UNL     1       9.535   9.813  19.391  0.00  0.00    +0.000 A 
ATOM     27  C   UNL     1      10.106  11.094  19.551  0.00  0.00    +0.000 A 
ATOM     28  C   UNL     1       9.735  12.151  18.719  0.00  0.00    +0.000 A 
ATOM     29  C   UNL     1       8.776  11.930  17.743  0.00  0.00    +0.000 A 
ATOM     30  C   UNL     1       8.211  10.657  17.592  0.00  0.00    +0.000 A 
ENDBRANCH  21  25
ENDBRANCH  17  18
ENDBRANCH   5  17
TORSDOF 6
ENDMDL
MODEL 8
REMARK VINA RESULT:      -8.1      2.734      4.497
REMARK  Name = 
REMARK  6 active torsions:
REMARK  status: ('A' for Active; 'I' for Inactive)
REMARK    1  A    between atoms: C_5  and  N_6
REMARK    2  A    between atoms: N_6  and  C_7
REMARK    3  A    between atoms: C_7  and  C_8
REMARK    4  A    between atoms: N_12  and  C_13
REMARK    5  A    between atoms: C_13  and  C_14
REMARK    6  A    between atoms: C_17  and  C_18
REMARK                            x       y       z     vdW  Elec       q    Type
REMARK                         _______ _______ _______ _____ _____    ______ ____
ROOT
ATOM      1  C   UNL     1       5.926   5.716  18.204  0.00  0.00    +0.000 A 
ATOM      2  C   UNL     1       6.962   6.300  17.492  0.00  0.00    +0.000 A 
ATOM      3  N   UNL     1       6.510   6.941  16.375  0.00  0.00    +0.000 NA
ATOM      4  C   UNL     1       5.210   6.774  16.392  0.00  0.00    +0.000 A 
ATOM      5  N   UNL     1       4.782   6.147  17.542  0.00  0.00    +0.000 N 
ENDROOT
BRANCH   1   6
ATOM      6  C   UNL     1       6.041   4.845  19.427  0.00  0.00    +0.000 C 
BRANCH   6   7
ATOM      7  N   UNL     1       5.559   3.480  19.218  0.00  0.00    +0.000 N 
ATOM      8  H   UNL     1       6.213   2.869  18.740  0.00  0.00    +0.000 HD
BRANCH   7  13
ATOM      9  F   UNL     1       0.311   1.697  18.710  0.00  0.00    +0.000 F 
ATOM     10  C   UNL     1       1.569   2.139  18.864  0.00  0.00    +0.000 A 
ATOM     11  C   UNL     1       2.438   2.078  17.787  0.00  0.00    +0.000 A 
ATOM     12  C   UNL     1       3.753   2.543  17.935  0.00  0.00    +0.000 A 
ATOM     13  C   UNL     1       4.226   3.092  19.145  0.00  0.00    +0.000 A 
ATOM     14  C   UNL     1       3.334   3.099  20.226  0.00  0.00    +0.000 A 
ATOM     15  C   UNL     1       2.011   2.644  20.082  0.00  0.00    +0.000 A 
ATOM     16 CL   UNL     1       0.934   2.719  21.427  0.00  0.00    +0.000 Cl
ENDBRANCH   7  13
ENDBRANCH   6   7
ENDBRANCH   1   6
BRANCH   5  17
ATOM     17  C   UNL     1       3.359   5.854  17.794  0.00  0.00    +0.000 C 
BRANCH  17  18
ATOM     18  C   UNL     1       2.596   6.795  18.738  0.00  0.00    +0.000 A 
ATOM     19  C   UNL     1       2.198   6.438  20.032  0.00  0.00    +0.000 A 
ATOM     20  C   UNL     1       1.517   7.344  20.880  0.00  0.00    +0.000 A 
ATOM     21  C   UNL     1       1.183   8.657  20.498  0.00  0.00    +0.000 A 
ATOM     22  C   UNL     1       1.644   9.046  19.231  0.00  0.00    +0.000 A 
ATOM     23  C   UNL     1       2.330   8.138  18.375  0.00  0.00    +0.000 A 
ATOM     24 CL   UNL     1       2.829   8.747  16.830  0.00  0.00    +0.000 Cl
BRANCH  21  25
ATOM     25  C   UNL     1       0.300   9.506  21.361  0.00  0.00    +0.000 A 
ATOM     26  C   UNL     1       0.052   9.282  22.728  0.00  0.00    +0.000 A 
ATOM     27  C   UNL     1      -0.753  10.157  23.489  0.00  0.00    +0.000 A 
ATOM     28  C   UNL     1      -1.329  11.286  22.906  0.00  0.00    +0.000 A 
ATOM     29  C   UNL     1      -1.121  11.523  21.556  0.00  0.00    +0.000 A 
ATOM     30  C   UNL     1      -0.324  10.648  20.807  0.00  0.00    +0.000 A 
ENDBRANCH  21  25
ENDBRANCH  17  18
ENDBRANCH   5  17
TORSDOF 6
ENDMDL
MODEL 9
REMARK VINA RESULT:      -8.1      2.769      7.935
REMARK  Name = 
REMARK  6 active torsions:
REMARK  status: ('A' for Active; 'I' for Inactive)
REMARK    1  A    between atoms: C_5  and  N_6
REMARK    2  A    between atoms: N_6  and  C_7
REMARK    3  A    between atoms: C_7  and  C_8
REMARK    4  A    between atoms: N_12  and  C_13
REMARK    5  A    between atoms: C_13  and  C_14
REMARK    6  A    between atoms: C_17  and  C_18
REMARK                            x       y       z     vdW  Elec       q    Type
REMARK                         _______ _______ _______ _____ _____    ______ ____
ROOT
ATOM      1  C   UNL     1       2.024   4.484  20.449  0.00  0.00    +0.000 A 
ATOM      2  C   UNL     1       0.863   3.726  20.499  0.00  0.00    +0.000 A 
ATOM      3  N   UNL     1       1.086   2.435  20.116  0.00  0.00    +0.000 NA
ATOM      4  C   UNL     1       2.367   2.379  19.843  0.00  0.00    +0.000 A 
ATOM      5  N   UNL     1       3.015   3.557  20.145  0.00  0.00    +0.000 N 
ENDROOT
BRANCH   1   6
ATOM      6  C   UNL     1       2.155   5.963  20.699  0.00  0.00    +0.000 C 
BRANCH   6   7
ATOM      7  N   UNL     1       2.298   6.751  19.476  0.00  0.00    +0.000 N 
ATOM      8  H   UNL     1       3.027   6.428  18.848  0.00  0.00    +0.000 HD
BRANCH   7  13
ATOM      9  F   UNL     1       0.802  12.029  18.532  0.00  0.00    +0.000 F 
ATOM     10  C   UNL     1       1.151  10.759  18.792  0.00  0.00    +0.000 A 
ATOM     11  C   UNL     1       1.868  10.052  17.841  0.00  0.00    +0.000 A 
ATOM     12  C   UNL     1       2.244   8.727  18.105  0.00  0.00    +0.000 A 
ATOM     13  C   UNL     1       1.932   8.083  19.320  0.00  0.00    +0.000 A 
ATOM     14  C   UNL     1       1.169   8.812  20.242  0.00  0.00    +0.000 A 
ATOM     15  C   UNL     1       0.798  10.145  19.989  0.00  0.00    +0.000 A 
ATOM     16 CL   UNL     1      -0.098  11.019  21.175  0.00  0.00    +0.000 Cl
ENDBRANCH   7  13
ENDBRANCH   6   7
ENDBRANCH   1   6
BRANCH   5  17
ATOM     17  C   UNL     1       4.462   3.736  19.931  0.00  0.00    +0.000 C 
BRANCH  17  18
ATOM     18  C   UNL     1       4.945   3.955  18.490  0.00  0.00    +0.000 A 
ATOM     19  C   UNL     1       4.264   3.476  17.364  0.00  0.00    +0.000 A 
ATOM     20  C   UNL     1       4.730   3.722  16.050  0.00  0.00    +0.000 A 
ATOM     21  C   UNL     1       5.902   4.450  15.769  0.00  0.00    +0.000 A 
ATOM     22  C   UNL     1       6.548   4.996  16.888  0.00  0.00    +0.000 A 
ATOM     23  C   UNL     1       6.082   4.752  18.212  0.00  0.00    +0.000 A 
ATOM     24 CL   UNL     1       6.987   5.474  19.503  0.00  0.00    +0.000 Cl
BRANCH  21  25
ATOM     25  C   UNL     1       6.447   4.518  14.375  0.00  0.00    +0.000 A 
ATOM     26  C   UNL     1       7.469   5.387  13.950  0.00  0.00    +0.000 A 
ATOM     27  C   UNL     1       7.966   5.357  12.629  0.00  0.00    +0.000 A 
ATOM     28  C   UNL     1       7.457   4.453  11.695  0.00  0.00    +0.000 A 
ATOM     29  C   UNL     1       6.435   3.598  12.078  0.00  0.00    +0.000 A 
ATOM     30  C   UNL     1       5.946   3.637  13.389  0.00  0.00    +0.000 A 
ENDBRANCH  21  25
ENDBRANCH  17  18
ENDBRANCH   5  17
TORSDOF 6
ENDMDL
