MODEL 1
REMARK VINA RESULT:      -7.1      0.000      0.000
REMARK  Name = 
REMARK  3 active torsions:
REMARK  status: ('A' for Active; 'I' for Inactive)
REMARK    1  A    between atoms: N_3  and  C_4
REMARK    2  A    between atoms: C_4  and  C_5
REMARK    3  A    between atoms: N_11  and  C_12
REMARK                            x       y       z     vdW  Elec       q    Type
REMARK                         _______ _______ _______ _____ _____    ______ ____
ROOT
ATOM      1  O   UNL     1       5.510   4.059  17.843  0.00  0.00    +0.000 OA
ATOM      2  C   UNL     1       4.847   4.958  17.345  0.00  0.00    +0.000 C 
ATOM      3  N   UNL     1       5.330   5.735  16.316  0.00  0.00    +0.000 N 
ATOM      4  N   UNL     1       3.551   5.291  17.680  0.00  0.00    +0.000 N 
ATOM      5  H   UNL     1       4.907   6.636  16.168  0.00  0.00    +0.000 HD
ATOM      6  H   UNL     1       3.047   5.837  16.998  0.00  0.00    +0.000 HD
ENDROOT
BRANCH   4   7
ATOM      7  C   UNL     1       2.793   4.687  18.709  0.00  0.00    +0.000 A 
ATOM      8  C   UNL     1       2.997   4.969  20.068  0.00  0.00    +0.000 A 
ATOM      9  C   UNL     1       2.264   4.307  21.057  0.00  0.00    +0.000 A 
ATOM     10  C   UNL     1       1.313   3.367  20.687  0.00  0.00    +0.000 A 
ATOM     11  F   UNL     1       0.628   2.717  21.638  0.00  0.00    +0.000 F 
ATOM     12  C   UNL     1       1.078   3.105  19.346  0.00  0.00    +0.000 A 
ATOM     13  F   UNL     1       0.156   2.198  18.990  0.00  0.00    +0.000 F 
ATOM     14  C   UNL     1       1.802   3.765  18.351  0.00  0.00    +0.000 A 
ENDBRANCH   4   7
BRANCH   3  15
ATOM     15  C   UNL     1       6.684   5.548  15.839  0.00  0.00    +0.000 C 
BRANCH  15  16
ATOM     16  C   UNL     1       6.723   4.937  14.463  0.00  0.00    +0.000 A 
ATOM     17  C   UNL     1       7.676   5.347  13.524  0.00  0.00    +0.000 A 
ATOM     18  C   UNL     1       7.679   4.752  12.273  0.00  0.00    +0.000 A 
ATOM     19  N   UNL     1       6.806   3.793  11.895  0.00  0.00    +0.000 NA
ATOM     20  C   UNL     1       5.886   3.419  12.809  0.00  0.00    +0.000 A 
ATOM     21  C   UNL     1       5.803   3.956  14.086  0.00  0.00    +0.000 A 
ENDBRANCH  15  16
ENDBRANCH   3  15
TORSDOF 3
ENDMDL
MODEL 2
REMARK VINA RESULT:      -7.1      0.136      1.086
REMARK  Name = 
REMARK  3 active torsions:
REMARK  status: ('A' for Active; 'I' for Inactive)
REMARK    1  A    between atoms: N_3  and  C_4
REMARK    2  A    between atoms: C_4  and  C_5
REMARK    3  A    between atoms: N_11  and  C_12
REMARK                            x       y       z     vdW  Elec       q    Type
REMARK                         _______ _______ _______ _____ _____    ______ ____
ROOT
ATOM      1  O   UNL     1       5.533   3.959  17.739  0.00  0.00    +0.000 OA
ATOM      2  C   UNL     1       4.952   4.947  17.313  0.00  0.00    +0.000 C 
ATOM      3  N   UNL     1       5.500   5.753  16.341  0.00  0.00    +0.000 N 
ATOM      4  N   UNL     1       3.690   5.366  17.680  0.00  0.00    +0.000 N 
ATOM      5  H   UNL     1       5.157   6.696  16.262  0.00  0.00    +0.000 HD
ATOM      6  H   UNL     1       3.235   6.003  17.043  0.00  0.00    +0.000 HD
ENDROOT
BRANCH   4   7
ATOM      7  C   UNL     1       2.882   4.755  18.667  0.00  0.00    +0.000 A 
ATOM      8  C   UNL     1       2.990   5.060  20.031  0.00  0.00    +0.000 A 
ATOM      9  C   UNL     1       2.211   4.393  20.981  0.00  0.00    +0.000 A 
ATOM     10  C   UNL     1       1.310   3.423  20.564  0.00  0.00    +0.000 A 
ATOM     11  F   UNL     1       0.582   2.767  21.478  0.00  0.00    +0.000 F 
ATOM     12  C   UNL     1       1.170   3.137  19.214  0.00  0.00    +0.000 A 
ATOM     13  F   UNL     1       0.296   2.202  18.813  0.00  0.00    +0.000 F 
ATOM     14  C   UNL     1       1.940   3.803  18.259  0.00  0.00    +0.000 A 
ENDBRANCH   4   7
BRANCH   3  15
ATOM     15  C   UNL     1       6.833   5.484  15.843  0.00  0.00    +0.000 C 
BRANCH  15  16
ATOM     16  C   UNL     1       6.814   4.900  14.455  0.00  0.00    +0.000 A 
ATOM     17  C   UNL     1       5.905   3.891  14.115  0.00  0.00    +0.000 A 
ATOM     18  C   UNL     1       5.919   3.388  12.824  0.00  0.00    +0.000 A 
ATOM     19  N   UNL     1       6.768   3.811  11.862  0.00  0.00    +0.000 NA
ATOM     20  C   UNL     1       7.645   4.774  12.211  0.00  0.00    +0.000 A 
ATOM     21  C   UNL     1       7.708   5.340  13.477  0.00  0.00    +0.000 A 
ENDBRANCH  15  16
ENDBRANCH   3  15
TORSDOF 3
ENDMDL
MODEL 3
REMARK VINA RESULT:      -7.0      4.142      7.909
REMARK  Name = 
REMARK  3 active torsions:
REMARK  status: ('A' for Active; 'I' for Inactive)
REMARK    1  A    between atoms: N_3  and  C_4
REMARK    2  A    between atoms: C_4  and  C_5
REMARK    3  A    between atoms: N_11  and  C_12
REMARK                            x       y       z     vdW  Elec       q    Type
REMARK                         _______ _______ _______ _____ _____    ______ ____
ROOT
ATOM      1  O   UNL     1       5.109   5.583  16.742  0.00  0.00    +0.000 OA
ATOM      2  C   UNL     1       5.496   4.441  16.946  0.00  0.00    +0.000 C 
ATOM      3  N   UNL     1       5.337   3.826  18.167  0.00  0.00    +0.000 N 
ATOM      4  N   UNL     1       6.081   3.605  16.018  0.00  0.00    +0.000 N 
ATOM      5  H   UNL     1       5.939   3.049  18.385  0.00  0.00    +0.000 HD
ATOM      6  H   UNL     1       6.071   2.622  16.244  0.00  0.00    +0.000 HD
ENDROOT
BRANCH   4   7
ATOM      7  C   UNL     1       6.392   3.957  14.684  0.00  0.00    +0.000 A 
ATOM      8  C   UNL     1       5.705   3.429  13.581  0.00  0.00    +0.000 A 
ATOM      9  C   UNL     1       6.081   3.760  12.276  0.00  0.00    +0.000 A 
ATOM     10  C   UNL     1       7.142   4.632  12.071  0.00  0.00    +0.000 A 
ATOM     11  F   UNL     1       7.515   4.929  10.819  0.00  0.00    +0.000 F 
ATOM     12  C   UNL     1       7.805   5.187  13.155  0.00  0.00    +0.000 A 
ATOM     13  F   UNL     1       8.827   6.032  12.956  0.00  0.00    +0.000 F 
ATOM     14  C   UNL     1       7.433   4.866  14.462  0.00  0.00    +0.000 A 
ENDBRANCH   4   7
BRANCH   3  15
ATOM     15  C   UNL     1       4.760   4.554  19.277  0.00  0.00    +0.000 C 
BRANCH  15  16
ATOM     16  C   UNL     1       3.390   4.044  19.642  0.00  0.00    +0.000 A 
ATOM     17  C   UNL     1       2.489   4.851  20.346  0.00  0.00    +0.000 A 
ATOM     18  C   UNL     1       1.238   4.342  20.653  0.00  0.00    +0.000 A 
ATOM     19  N   UNL     1       0.829   3.099  20.317  0.00  0.00    +0.000 NA
ATOM     20  C   UNL     1       1.715   2.331  19.650  0.00  0.00    +0.000 A 
ATOM     21  C   UNL     1       2.990   2.751  19.298  0.00  0.00    +0.000 A 
ENDBRANCH  15  16
ENDBRANCH   3  15
TORSDOF 3
ENDMDL
MODEL 4
REMARK VINA RESULT:      -7.0      5.496      7.178
REMARK  Name = 
REMARK  3 active torsions:
REMARK  status: ('A' for Active; 'I' for Inactive)
REMARK    1  A    between atoms: N_3  and  C_4
REMARK    2  A    between atoms: C_4  and  C_5
REMARK    3  A    between atoms: N_11  and  C_12
REMARK                            x       y       z     vdW  Elec       q    Type
REMARK                         _______ _______ _______ _____ _____    ______ ____
ROOT
ATOM      1  O   UNL     1       8.392   7.425  18.810  0.00  0.00    +0.000 OA
ATOM      2  C   UNL     1       7.908   8.163  17.964  0.00  0.00    +0.000 C 
ATOM      3  N   UNL     1       8.312   9.470  17.821  0.00  0.00    +0.000 N 
ATOM      4  N   UNL     1       6.962   7.808  17.025  0.00  0.00    +0.000 N 
ATOM      5  H   UNL     1       7.685  10.110  17.361  0.00  0.00    +0.000 HD
ATOM      6  H   UNL     1       6.884   8.420  16.226  0.00  0.00    +0.000 HD
ENDROOT
BRANCH   4   7
ATOM      7  C   UNL     1       6.342   6.541  16.929  0.00  0.00    +0.000 A 
ATOM      8  C   UNL     1       6.951   5.444  16.304  0.00  0.00    +0.000 A 
ATOM      9  C   UNL     1       6.281   4.223  16.181  0.00  0.00    +0.000 A 
ATOM     10  C   UNL     1       4.998   4.094  16.696  0.00  0.00    +0.000 A 
ATOM     11  F   UNL     1       4.348   2.931  16.556  0.00  0.00    +0.000 F 
ATOM     12  C   UNL     1       4.399   5.163  17.347  0.00  0.00    +0.000 A 
ATOM     13  F   UNL     1       3.161   5.035  17.846  0.00  0.00    +0.000 F 
ATOM     14  C   UNL     1       5.064   6.384  17.479  0.00  0.00    +0.000 A 
ENDBRANCH   4   7
BRANCH   3  15
ATOM     15  C   UNL     1       9.287  10.033  18.732  0.00  0.00    +0.000 C 
BRANCH  15  16
ATOM     16  C   UNL     1       9.775  11.384  18.279  0.00  0.00    +0.000 A 
ATOM     17  C   UNL     1       8.913  12.486  18.253  0.00  0.00    +0.000 A 
ATOM     18  C   UNL     1       9.408  13.711  17.836  0.00  0.00    +0.000 A 
ATOM     19  N   UNL     1      10.684  13.910  17.442  0.00  0.00    +0.000 NA
ATOM     20  C   UNL     1      11.498  12.834  17.461  0.00  0.00    +0.000 A 
ATOM     21  C   UNL     1      11.095  11.569  17.862  0.00  0.00    +0.000 A 
ENDBRANCH  15  16
ENDBRANCH   3  15
TORSDOF 3
ENDMDL
MODEL 5
REMARK VINA RESULT:      -7.0      5.531      7.158
REMARK  Name = 
REMARK  3 active torsions:
REMARK  status: ('A' for Active; 'I' for Inactive)
REMARK    1  A    between atoms: N_3  and  C_4
REMARK    2  A    between atoms: C_4  and  C_5
REMARK    3  A    between atoms: N_11  and  C_12
REMARK                            x       y       z     vdW  Elec       q    Type
REMARK                         _______ _______ _______ _____ _____    ______ ____
ROOT
ATOM      1  O   UNL     1       8.435   7.476  18.799  0.00  0.00    +0.000 OA
ATOM      2  C   UNL     1       7.906   8.223  17.989  0.00  0.00    +0.000 C 
ATOM      3  N   UNL     1       8.280   9.542  17.863  0.00  0.00    +0.000 N 
ATOM      4  N   UNL     1       6.931   7.872  17.079  0.00  0.00    +0.000 N 
ATOM      5  H   UNL     1       7.624  10.179  17.442  0.00  0.00    +0.000 HD
ATOM      6  H   UNL     1       6.812   8.501  16.298  0.00  0.00    +0.000 HD
ENDROOT
BRANCH   4   7
ATOM      7  C   UNL     1       6.332   6.597  16.976  0.00  0.00    +0.000 A 
ATOM      8  C   UNL     1       6.981   5.497  16.396  0.00  0.00    +0.000 A 
ATOM      9  C   UNL     1       6.332   4.266  16.263  0.00  0.00    +0.000 A 
ATOM     10  C   UNL     1       5.029   4.129  16.723  0.00  0.00    +0.000 A 
ATOM     11  F   UNL     1       4.401   2.956  16.573  0.00  0.00    +0.000 F 
ATOM     12  C   UNL     1       4.389   5.200  17.329  0.00  0.00    +0.000 A 
ATOM     13  F   UNL     1       3.132   5.064  17.775  0.00  0.00    +0.000 F 
ATOM     14  C   UNL     1       5.033   6.431  17.471  0.00  0.00    +0.000 A 
ENDBRANCH   4   7
BRANCH   3  15
ATOM     15  C   UNL     1       9.278  10.102  18.750  0.00  0.00    +0.000 C 
BRANCH  15  16
ATOM     16  C   UNL     1       9.767  11.446  18.279  0.00  0.00    +0.000 A 
ATOM     17  C   UNL     1      11.060  11.597  17.762  0.00  0.00    +0.000 A 
ATOM     18  C   UNL     1      11.465  12.850  17.334  0.00  0.00    +0.000 A 
ATOM     19  N   UNL     1      10.684  13.951  17.388  0.00  0.00    +0.000 NA
ATOM     20  C   UNL     1       9.446  13.789  17.900  0.00  0.00    +0.000 A 
ATOM     21  C   UNL     1       8.951  12.576  18.355  0.00  0.00    +0.000 A 
ENDBRANCH  15  16
ENDBRANCH   3  15
TORSDOF 3
ENDMDL
MODEL 6
REMARK VINA RESULT:      -6.9      6.930      9.090
REMARK  Name = 
REMARK  3 active torsions:
REMARK  status: ('A' for Active; 'I' for Inactive)
REMARK    1  A    between atoms: N_3  and  C_4
REMARK    2  A    between atoms: C_4  and  C_5
REMARK    3  A    between atoms: N_11  and  C_12
REMARK                            x       y       z     vdW  Elec       q    Type
REMARK                         _______ _______ _______ _____ _____    ______ ____
ROOT
ATOM      1  O   UNL     1       8.587   7.612  18.740  0.00  0.00    +0.000 OA
ATOM      2  C   UNL     1       8.013   8.343  17.945  0.00  0.00    +0.000 C 
ATOM      3  N   UNL     1       7.008   7.881  17.126  0.00  0.00    +0.000 N 
ATOM      4  N   UNL     1       8.231   9.695  17.782  0.00  0.00    +0.000 N 
ATOM      5  H   UNL     1       6.801   8.404  16.291  0.00  0.00    +0.000 HD
ATOM      6  H   UNL     1       7.495  10.207  17.318  0.00  0.00    +0.000 HD
ENDROOT
BRANCH   4   7
ATOM      7  C   UNL     1       9.209  10.452  18.467  0.00  0.00    +0.000 A 
ATOM      8  C   UNL     1       9.198  10.625  19.858  0.00  0.00    +0.000 A 
ATOM      9  C   UNL     1      10.152  11.428  20.490  0.00  0.00    +0.000 A 
ATOM     10  C   UNL     1      11.131  12.052  19.729  0.00  0.00    +0.000 A 
ATOM     11  F   UNL     1      12.030  12.840  20.334  0.00  0.00    +0.000 F 
ATOM     12  C   UNL     1      11.173  11.860  18.356  0.00  0.00    +0.000 A 
ATOM     13  F   UNL     1      12.122  12.460  17.623  0.00  0.00    +0.000 F 
ATOM     14  C   UNL     1      10.227  11.055  17.718  0.00  0.00    +0.000 A 
ENDBRANCH   4   7
BRANCH   3  15
ATOM     15  C   UNL     1       6.649   6.477  17.138  0.00  0.00    +0.000 C 
BRANCH  15  16
ATOM     16  C   UNL     1       5.341   6.231  17.844  0.00  0.00    +0.000 A 
ATOM     17  C   UNL     1       4.175   6.894  17.443  0.00  0.00    +0.000 A 
ATOM     18  C   UNL     1       2.994   6.631  18.117  0.00  0.00    +0.000 A 
ATOM     19  N   UNL     1       2.895   5.768  19.152  0.00  0.00    +0.000 NA
ATOM     20  C   UNL     1       4.031   5.148  19.532  0.00  0.00    +0.000 A 
ATOM     21  C   UNL     1       5.261   5.346  18.921  0.00  0.00    +0.000 A 
ENDBRANCH  15  16
ENDBRANCH   3  15
TORSDOF 3
ENDMDL
MODEL 7
REMARK VINA RESULT:      -6.9      5.538      7.078
REMARK  Name = 
REMARK  3 active torsions:
REMARK  status: ('A' for Active; 'I' for Inactive)
REMARK    1  A    between atoms: N_3  and  C_4
REMARK    2  A    between atoms: C_4  and  C_5
REMARK    3  A    between atoms: N_11  and  C_12
REMARK                            x       y       z     vdW  Elec       q    Type
REMARK                         _______ _______ _______ _____ _____    ______ ____
ROOT
ATOM      1  O   UNL     1       8.283   7.246  18.732  0.00  0.00    +0.000 OA
ATOM      2  C   UNL     1       7.757   8.026  17.950  0.00  0.00    +0.000 C 
ATOM      3  N   UNL     1       8.188   9.326  17.818  0.00  0.00    +0.000 N 
ATOM      4  N   UNL     1       6.729   7.730  17.079  0.00  0.00    +0.000 N 
ATOM      5  H   UNL     1       7.546   9.998  17.430  0.00  0.00    +0.000 HD
ATOM      6  H   UNL     1       6.608   8.371  16.308  0.00  0.00    +0.000 HD
ENDROOT
BRANCH   4   7
ATOM      7  C   UNL     1       6.065   6.486  16.992  0.00  0.00    +0.000 A 
ATOM      8  C   UNL     1       4.987   6.141  17.820  0.00  0.00    +0.000 A 
ATOM      9  C   UNL     1       4.393   4.878  17.739  0.00  0.00    +0.000 A 
ATOM     10  C   UNL     1       4.873   3.956  16.818  0.00  0.00    +0.000 A 
ATOM     11  F   UNL     1       4.318   2.738  16.760  0.00  0.00    +0.000 F 
ATOM     12  C   UNL     1       5.916   4.298  15.970  0.00  0.00    +0.000 A 
ATOM     13  F   UNL     1       6.374   3.408  15.079  0.00  0.00    +0.000 F 
ATOM     14  C   UNL     1       6.510   5.560  16.040  0.00  0.00    +0.000 A 
ENDBRANCH   4   7
BRANCH   3  15
ATOM     15  C   UNL     1       9.247   9.830  18.667  0.00  0.00    +0.000 C 
BRANCH  15  16
ATOM     16  C   UNL     1       9.721  11.193  18.236  0.00  0.00    +0.000 A 
ATOM     17  C   UNL     1      11.078  11.438  17.997  0.00  0.00    +0.000 A 
ATOM     18  C   UNL     1      11.467  12.705  17.596  0.00  0.00    +0.000 A 
ATOM     19  N   UNL     1      10.609  13.735  17.423  0.00  0.00    +0.000 NA
ATOM     20  C   UNL     1       9.307  13.484  17.669  0.00  0.00    +0.000 A 
ATOM     21  C   UNL     1       8.821  12.249  18.075  0.00  0.00    +0.000 A 
ENDBRANCH  15  16
ENDBRANCH   3  15
TORSDOF 3
ENDMDL
MODEL 8
REMARK VINA RESULT:      -6.9      5.524      7.107
REMARK  Name = 
REMARK  3 active torsions:
REMARK  status: ('A' for Active; 'I' for Inactive)
REMARK    1  A    between atoms: N_3  and  C_4
REMARK    2  A    between atoms: C_4  and  C_5
REMARK    3  A    between atoms: N_11  and  C_12
REMARK                            x       y       z     vdW  Elec       q    Type
REMARK                         _______ _______ _______ _____ _____    ______ ____
ROOT
ATOM      1  O   UNL     1       8.280   7.223  18.761  0.00  0.00    +0.000 OA
ATOM      2  C   UNL     1       7.765   7.996  17.965  0.00  0.00    +0.000 C 
ATOM      3  N   UNL     1       8.203   9.292  17.821  0.00  0.00    +0.000 N 
ATOM      4  N   UNL     1       6.745   7.694  17.087  0.00  0.00    +0.000 N 
ATOM      5  H   UNL     1       7.569   9.963  17.419  0.00  0.00    +0.000 HD
ATOM      6  H   UNL     1       6.635   8.326  16.308  0.00  0.00    +0.000 HD
ENDROOT
BRANCH   4   7
ATOM      7  C   UNL     1       6.076   6.452  17.008  0.00  0.00    +0.000 A 
ATOM      8  C   UNL     1       5.014   6.107  17.856  0.00  0.00    +0.000 A 
ATOM      9  C   UNL     1       4.416   4.845  17.782  0.00  0.00    +0.000 A 
ATOM     10  C   UNL     1       4.874   3.926  16.848  0.00  0.00    +0.000 A 
ATOM     11  F   UNL     1       4.316   2.710  16.796  0.00  0.00    +0.000 F 
ATOM     12  C   UNL     1       5.901   4.269  15.981  0.00  0.00    +0.000 A 
ATOM     13  F   UNL     1       6.340   3.381  15.077  0.00  0.00    +0.000 F 
ATOM     14  C   UNL     1       6.500   5.529  16.044  0.00  0.00    +0.000 A 
ENDBRANCH   4   7
BRANCH   3  15
ATOM     15  C   UNL     1       9.257   9.801  18.675  0.00  0.00    +0.000 C 
BRANCH  15  16
ATOM     16  C   UNL     1       9.726  11.167  18.246  0.00  0.00    +0.000 A 
ATOM     17  C   UNL     1       8.809  12.199  18.014  0.00  0.00    +0.000 A 
ATOM     18  C   UNL     1       9.286  13.441  17.628  0.00  0.00    +0.000 A 
ATOM     19  N   UNL     1      10.596  13.721  17.453  0.00  0.00    +0.000 NA
ATOM     20  C   UNL     1      11.464  12.711  17.669  0.00  0.00    +0.000 A 
ATOM     21  C   UNL     1      11.083  11.435  18.057  0.00  0.00    +0.000 A 
ENDBRANCH  15  16
ENDBRANCH   3  15
TORSDOF 3
ENDMDL
MODEL 9
REMARK VINA RESULT:      -6.9      4.053      7.839
REMARK  Name = 
REMARK  3 active torsions:
REMARK  status: ('A' for Active; 'I' for Inactive)
REMARK    1  A    between atoms: N_3  and  C_4
REMARK    2  A    between atoms: C_4  and  C_5
REMARK    3  A    between atoms: N_11  and  C_12
REMARK                            x       y       z     vdW  Elec       q    Type
REMARK                         _______ _______ _______ _____ _____    ______ ____
ROOT
ATOM      1  O   UNL     1       4.452   5.656  16.691  0.00  0.00    +0.000 OA
ATOM      2  C   UNL     1       5.159   4.767  17.145  0.00  0.00    +0.000 C 
ATOM      3  N   UNL     1       5.097   4.390  18.467  0.00  0.00    +0.000 N 
ATOM      4  N   UNL     1       6.053   3.998  16.429  0.00  0.00    +0.000 N 
ATOM      5  H   UNL     1       5.892   3.911  18.858  0.00  0.00    +0.000 HD
ATOM      6  H   UNL     1       6.333   3.131  16.863  0.00  0.00    +0.000 HD
ENDROOT
BRANCH   4   7
ATOM      7  C   UNL     1       6.351   4.158  15.056  0.00  0.00    +0.000 A 
ATOM      8  C   UNL     1       5.633   3.506  14.043  0.00  0.00    +0.000 A 
ATOM      9  C   UNL     1       5.995   3.647  12.700  0.00  0.00    +0.000 A 
ATOM     10  C   UNL     1       7.074   4.453  12.366  0.00  0.00    +0.000 A 
ATOM     11  F   UNL     1       7.434   4.568  11.081  0.00  0.00    +0.000 F 
ATOM     12  C   UNL     1       7.770   5.130  13.356  0.00  0.00    +0.000 A 
ATOM     13  F   UNL     1       8.810   5.912  13.031  0.00  0.00    +0.000 F 
ATOM     14  C   UNL     1       7.411   5.000  14.699  0.00  0.00    +0.000 A 
ENDBRANCH   4   7
BRANCH   3  15
ATOM     15  C   UNL     1       4.229   5.098  19.384  0.00  0.00    +0.000 C 
BRANCH  15  16
ATOM     16  C   UNL     1       2.976   4.321  19.695  0.00  0.00    +0.000 A 
ATOM     17  C   UNL     1       2.136   3.874  18.669  0.00  0.00    +0.000 A 
ATOM     18  C   UNL     1       0.999   3.156  19.002  0.00  0.00    +0.000 A 
ATOM     19  N   UNL     1       0.643   2.861  20.271  0.00  0.00    +0.000 NA
ATOM     20  C   UNL     1       1.458   3.311  21.248  0.00  0.00    +0.000 A 
ATOM     21  C   UNL     1       2.616   4.037  21.014  0.00  0.00    +0.000 A 
ENDBRANCH  15  16
ENDBRANCH   3  15
TORSDOF 3
ENDMDL
