MODEL 1
REMARK VINA RESULT:      -8.2      0.000      0.000
REMARK  Name = 
REMARK  7 active torsions:
REMARK  status: ('A' for Active; 'I' for Inactive)
REMARK    1  A    between atoms: C_2  and  O_21
REMARK    2  A    between atoms: N_3  and  C_4
REMARK    3  A    between atoms: C_7  and  C_8
REMARK    4  A    between atoms: C_11  and  O_12
REMARK    5  A    between atoms: O_12  and  C_13
REMARK    6  A    between atoms: O_21  and  C_22
REMARK    7  A    between atoms: C_27  and  N_28
REMARK                            x       y       z     vdW  Elec       q    Type
REMARK                         _______ _______ _______ _____ _____    ______ ____
ROOT
ATOM      1  O   UNL     1       1.071   5.837  20.841  0.00  0.00    +0.000 OA
ATOM      2  C   UNL     1       2.032   6.439  20.387  0.00  0.00    +0.000 C 
ATOM      3  N   UNL     1       2.202   7.794  20.281  0.00  0.00    +0.000 N 
ATOM      4  H   UNL     1       3.008   8.092  19.751  0.00  0.00    +0.000 HD
ENDROOT
BRANCH   3   5
ATOM      5  C   UNL     1       1.308   8.772  20.753  0.00  0.00    +0.000 A 
ATOM      6  C   UNL     1       0.650   9.654  19.899  0.00  0.00    +0.000 A 
ATOM      7  C   UNL     1      -0.207  10.631  20.400  0.00  0.00    +0.000 A 
ATOM      8  C   UNL     1      -0.461  10.758  21.770  0.00  0.00    +0.000 A 
ATOM      9  C   UNL     1       0.190   9.849  22.624  0.00  0.00    +0.000 A 
ATOM     10  C   UNL     1       1.060   8.864  22.129  0.00  0.00    +0.000 A 
BRANCH   8  11
ATOM     11  C   UNL     1      -1.374  11.808  22.270  0.00  0.00    +0.000 A 
ATOM     12  C   UNL     1      -2.293  11.548  23.304  0.00  0.00    +0.000 A 
ATOM     13  C   UNL     1      -3.174  12.530  23.763  0.00  0.00    +0.000 A 
ATOM     14  C   UNL     1      -3.145  13.814  23.222  0.00  0.00    +0.000 A 
ATOM     15  C   UNL     1      -2.275  14.082  22.170  0.00  0.00    +0.000 A 
ATOM     16  C   UNL     1      -1.393  13.095  21.711  0.00  0.00    +0.000 A 
BRANCH  14  17
ATOM     17  O   UNL     1      -4.042  14.684  23.754  0.00  0.00    +0.000 OA
BRANCH  17  18
ATOM     18  C   UNL     1      -3.583  15.714  24.617  0.00  0.00    +0.000 C 
ATOM     19  F   UNL     1      -2.840  16.666  24.013  0.00  0.00    +0.000 F 
ATOM     20  F   UNL     1      -4.647  16.305  25.203  0.00  0.00    +0.000 F 
ATOM     21  F   UNL     1      -2.824  15.156  25.587  0.00  0.00    +0.000 F 
ENDBRANCH  17  18
ENDBRANCH  14  17
ENDBRANCH   8  11
ENDBRANCH   3   5
BRANCH   2  22
ATOM     22  O   UNL     1       3.111   5.799  19.868  0.00  0.00    +0.000 OA
BRANCH  22  23
ATOM     23  C   UNL     1       2.876   5.143  18.595  0.00  0.00    +0.000 C 
ATOM     24  C   UNL     1       3.358   3.679  18.656  0.00  0.00    +0.000 C 
ATOM     25  O   UNL     1       4.076   3.148  17.549  0.00  0.00    +0.000 OA
ATOM     26  C   UNL     1       4.741   4.004  16.791  0.00  0.00    +0.000 A 
ATOM     27  N   UNL     1       5.654   3.649  15.919  0.00  0.00    +0.000 NA
ATOM     28  C   UNL     1       5.999   4.824  15.288  0.00  0.00    +0.000 A 
ATOM     29  C   UNL     1       5.279   5.892  15.784  0.00  0.00    +0.000 A 
ATOM     30  N   UNL     1       4.501   5.341  16.750  0.00  0.00    +0.000 N 
ATOM     31  C   UNL     1       3.535   6.028  17.553  0.00  0.00    +0.000 C 
BRANCH  28  32
ATOM     32  N   UNL     1       6.984   4.857  14.238  0.00  0.00    +0.000 N 
ATOM     33  O   UNL     1       7.963   5.603  14.418  0.00  0.00    +0.000 OA
ATOM     34  O   UNL     1       6.793   4.142  13.245  0.00  0.00    +0.000 OA
ENDBRANCH  28  32
ENDBRANCH  22  23
ENDBRANCH   2  22
TORSDOF 7
ENDMDL
MODEL 2
REMARK VINA RESULT:      -8.2      1.171      1.589
REMARK  Name = 
REMARK  7 active torsions:
REMARK  status: ('A' for Active; 'I' for Inactive)
REMARK    1  A    between atoms: C_2  and  O_21
REMARK    2  A    between atoms: N_3  and  C_4
REMARK    3  A    between atoms: C_7  and  C_8
REMARK    4  A    between atoms: C_11  and  O_12
REMARK    5  A    between atoms: O_12  and  C_13
REMARK    6  A    between atoms: O_21  and  C_22
REMARK    7  A    between atoms: C_27  and  N_28
REMARK                            x       y       z     vdW  Elec       q    Type
REMARK                         _______ _______ _______ _____ _____    ______ ____
ROOT
ATOM      1  O   UNL     1       0.913   5.819  20.739  0.00  0.00    +0.000 OA
ATOM      2  C   UNL     1       1.923   6.397  20.369  0.00  0.00    +0.000 C 
ATOM      3  N   UNL     1       2.148   7.747  20.319  0.00  0.00    +0.000 N 
ATOM      4  H   UNL     1       2.997   8.031  19.853  0.00  0.00    +0.000 HD
ENDROOT
BRANCH   3   5
ATOM      5  C   UNL     1       1.260   8.744  20.763  0.00  0.00    +0.000 A 
ATOM      6  C   UNL     1       0.984   8.947  22.114  0.00  0.00    +0.000 A 
ATOM      7  C   UNL     1       0.077   9.922  22.521  0.00  0.00    +0.000 A 
ATOM      8  C   UNL     1      -0.577  10.752  21.602  0.00  0.00    +0.000 A 
ATOM      9  C   UNL     1      -0.275  10.555  20.242  0.00  0.00    +0.000 A 
ATOM     10  C   UNL     1       0.633   9.570  19.821  0.00  0.00    +0.000 A 
BRANCH   8  11
ATOM     11  C   UNL     1      -1.537  11.775  22.066  0.00  0.00    +0.000 A 
ATOM     12  C   UNL     1      -2.222  11.636  23.288  0.00  0.00    +0.000 A 
ATOM     13  C   UNL     1      -3.148  12.589  23.720  0.00  0.00    +0.000 A 
ATOM     14  C   UNL     1      -3.398  13.727  22.958  0.00  0.00    +0.000 A 
ATOM     15  C   UNL     1      -2.766  13.865  21.726  0.00  0.00    +0.000 A 
ATOM     16  C   UNL     1      -1.838  12.909  21.295  0.00  0.00    +0.000 A 
BRANCH  14  17
ATOM     17  O   UNL     1      -4.311  14.584  23.484  0.00  0.00    +0.000 OA
BRANCH  17  18
ATOM     18  C   UNL     1      -5.692  14.368  23.231  0.00  0.00    +0.000 C 
ATOM     19  F   UNL     1      -5.961  13.751  22.062  0.00  0.00    +0.000 F 
ATOM     20  F   UNL     1      -6.215  13.634  24.237  0.00  0.00    +0.000 F 
ATOM     21  F   UNL     1      -6.318  15.567  23.215  0.00  0.00    +0.000 F 
ENDBRANCH  17  18
ENDBRANCH  14  17
ENDBRANCH   8  11
ENDBRANCH   3   5
BRANCH   2  22
ATOM     22  O   UNL     1       3.011   5.734  19.901  0.00  0.00    +0.000 OA
BRANCH  22  23
ATOM     23  C   UNL     1       2.806   5.040  18.643  0.00  0.00    +0.000 C 
ATOM     24  C   UNL     1       3.352   3.600  18.735  0.00  0.00    +0.000 C 
ATOM     25  O   UNL     1       4.094   3.077  17.641  0.00  0.00    +0.000 OA
ATOM     26  C   UNL     1       4.722   3.945  16.864  0.00  0.00    +0.000 A 
ATOM     27  N   UNL     1       5.651   3.611  16.000  0.00  0.00    +0.000 NA
ATOM     28  C   UNL     1       5.945   4.787  15.344  0.00  0.00    +0.000 A 
ATOM     29  C   UNL     1       5.178   5.832  15.816  0.00  0.00    +0.000 A 
ATOM     30  N   UNL     1       4.424   5.269  16.794  0.00  0.00    +0.000 N 
ATOM     31  C   UNL     1       3.427   5.930  17.581  0.00  0.00    +0.000 C 
BRANCH  28  32
ATOM     32  N   UNL     1       6.928   4.840  14.294  0.00  0.00    +0.000 N 
ATOM     33  O   UNL     1       7.942   5.525  14.517  0.00  0.00    +0.000 OA
ATOM     34  O   UNL     1       6.702   4.200  13.258  0.00  0.00    +0.000 OA
ENDBRANCH  28  32
ENDBRANCH  22  23
ENDBRANCH   2  22
TORSDOF 7
ENDMDL
MODEL 3
REMARK VINA RESULT:      -8.1      6.622     12.737
REMARK  Name = 
REMARK  7 active torsions:
REMARK  status: ('A' for Active; 'I' for Inactive)
REMARK    1  A    between atoms: C_2  and  O_21
REMARK    2  A    between atoms: N_3  and  C_4
REMARK    3  A    between atoms: C_7  and  C_8
REMARK    4  A    between atoms: C_11  and  O_12
REMARK    5  A    between atoms: O_12  and  C_13
REMARK    6  A    between atoms: O_21  and  C_22
REMARK    7  A    between atoms: C_27  and  N_28
REMARK                            x       y       z     vdW  Elec       q    Type
REMARK                         _______ _______ _______ _____ _____    ______ ____
ROOT
ATOM      1  O   UNL     1       1.999   9.613  22.759  0.00  0.00    +0.000 OA
ATOM      2  C   UNL     1       0.862   9.551  22.318  0.00  0.00    +0.000 C 
ATOM      3  N   UNL     1       0.440   8.956  21.159  0.00  0.00    +0.000 N 
ATOM      4  H   UNL     1      -0.520   9.133  20.902  0.00  0.00    +0.000 HD
ENDROOT
BRANCH   3   5
ATOM      5  C   UNL     1       1.249   8.224  20.271  0.00  0.00    +0.000 A 
ATOM      6  C   UNL     1       1.718   6.947  20.571  0.00  0.00    +0.000 A 
ATOM      7  C   UNL     1       2.543   6.260  19.684  0.00  0.00    +0.000 A 
ATOM      8  C   UNL     1       2.918   6.806  18.451  0.00  0.00    +0.000 A 
ATOM      9  C   UNL     1       2.422   8.086  18.146  0.00  0.00    +0.000 A 
ATOM     10  C   UNL     1       1.595   8.790  19.037  0.00  0.00    +0.000 A 
BRANCH   8  11
ATOM     11  C   UNL     1       3.797   6.051  17.533  0.00  0.00    +0.000 A 
ATOM     12  C   UNL     1       3.632   4.668  17.333  0.00  0.00    +0.000 A 
ATOM     13  C   UNL     1       4.476   3.945  16.486  0.00  0.00    +0.000 A 
ATOM     14  C   UNL     1       5.495   4.589  15.788  0.00  0.00    +0.000 A 
ATOM     15  C   UNL     1       5.705   5.947  16.003  0.00  0.00    +0.000 A 
ATOM     16  C   UNL     1       4.858   6.669  16.853  0.00  0.00    +0.000 A 
BRANCH  14  17
ATOM     17  O   UNL     1       6.243   3.784  14.989  0.00  0.00    +0.000 OA
BRANCH  17  18
ATOM     18  C   UNL     1       6.094   3.872  13.579  0.00  0.00    +0.000 C 
ATOM     19  F   UNL     1       4.880   4.294  13.166  0.00  0.00    +0.000 F 
ATOM     20  F   UNL     1       7.032   4.710  13.088  0.00  0.00    +0.000 F 
ATOM     21  F   UNL     1       6.304   2.646  13.048  0.00  0.00    +0.000 F 
ENDBRANCH  17  18
ENDBRANCH  14  17
ENDBRANCH   8  11
ENDBRANCH   3   5
BRANCH   2  22
ATOM     22  O   UNL     1      -0.194  10.128  22.947  0.00  0.00    +0.000 OA
BRANCH  22  23
ATOM     23  C   UNL     1      -0.868  11.161  22.182  0.00  0.00    +0.000 C 
ATOM     24  C   UNL     1       0.141  12.250  21.758  0.00  0.00    +0.000 C 
ATOM     25  O   UNL     1      -0.241  13.615  21.862  0.00  0.00    +0.000 OA
ATOM     26  C   UNL     1      -1.162  13.920  22.762  0.00  0.00    +0.000 A 
ATOM     27  N   UNL     1      -1.414  15.144  23.162  0.00  0.00    +0.000 NA
ATOM     28  C   UNL     1      -2.497  15.011  24.003  0.00  0.00    +0.000 A 
ATOM     29  C   UNL     1      -2.902  13.696  24.100  0.00  0.00    +0.000 A 
ATOM     30  N   UNL     1      -2.022  13.024  23.315  0.00  0.00    +0.000 N 
ATOM     31  C   UNL     1      -2.028  11.618  23.048  0.00  0.00    +0.000 C 
BRANCH  28  32
ATOM     32  N   UNL     1      -3.094  16.151  24.651  0.00  0.00    +0.000 N 
ATOM     33  O   UNL     1      -4.259  16.431  24.319  0.00  0.00    +0.000 OA
ATOM     34  O   UNL     1      -2.414  16.760  25.488  0.00  0.00    +0.000 OA
ENDBRANCH  28  32
ENDBRANCH  22  23
ENDBRANCH   2  22
TORSDOF 7
ENDMDL
MODEL 4
REMARK VINA RESULT:      -8.1      0.346      1.045
REMARK  Name = 
REMARK  7 active torsions:
REMARK  status: ('A' for Active; 'I' for Inactive)
REMARK    1  A    between atoms: C_2  and  O_21
REMARK    2  A    between atoms: N_3  and  C_4
REMARK    3  A    between atoms: C_7  and  C_8
REMARK    4  A    between atoms: C_11  and  O_12
REMARK    5  A    between atoms: O_12  and  C_13
REMARK    6  A    between atoms: O_21  and  C_22
REMARK    7  A    between atoms: C_27  and  N_28
REMARK                            x       y       z     vdW  Elec       q    Type
REMARK                         _______ _______ _______ _____ _____    ______ ____
ROOT
ATOM      1  O   UNL     1       1.269   5.605  20.828  0.00  0.00    +0.000 OA
ATOM      2  C   UNL     1       2.188   6.213  20.302  0.00  0.00    +0.000 C 
ATOM      3  N   UNL     1       2.305   7.565  20.116  0.00  0.00    +0.000 N 
ATOM      4  H   UNL     1       3.076   7.861  19.537  0.00  0.00    +0.000 HD
ENDROOT
BRANCH   3   5
ATOM      5  C   UNL     1       1.396   8.537  20.574  0.00  0.00    +0.000 A 
ATOM      6  C   UNL     1       0.712   9.384  19.705  0.00  0.00    +0.000 A 
ATOM      7  C   UNL     1      -0.159  10.357  20.191  0.00  0.00    +0.000 A 
ATOM      8  C   UNL     1      -0.402  10.512  21.561  0.00  0.00    +0.000 A 
ATOM      9  C   UNL     1       0.275   9.637  22.429  0.00  0.00    +0.000 A 
ATOM     10  C   UNL     1       1.160   8.658  21.949  0.00  0.00    +0.000 A 
BRANCH   8  11
ATOM     11  C   UNL     1      -1.330  11.556  22.044  0.00  0.00    +0.000 A 
ATOM     12  C   UNL     1      -1.531  12.748  21.322  0.00  0.00    +0.000 A 
ATOM     13  C   UNL     1      -2.388  13.748  21.786  0.00  0.00    +0.000 A 
ATOM     14  C   UNL     1      -3.096  13.576  22.974  0.00  0.00    +0.000 A 
ATOM     15  C   UNL     1      -2.881  12.426  23.726  0.00  0.00    +0.000 A 
ATOM     16  C   UNL     1      -2.021  11.425  23.258  0.00  0.00    +0.000 A 
BRANCH  14  17
ATOM     17  O   UNL     1      -3.904  14.614  23.318  0.00  0.00    +0.000 OA
BRANCH  17  18
ATOM     18  C   UNL     1      -3.561  15.419  24.436  0.00  0.00    +0.000 C 
ATOM     19  F   UNL     1      -2.519  16.253  24.233  0.00  0.00    +0.000 F 
ATOM     20  F   UNL     1      -4.637  16.153  24.796  0.00  0.00    +0.000 F 
ATOM     21  F   UNL     1      -3.241  14.607  25.469  0.00  0.00    +0.000 F 
ENDBRANCH  17  18
ENDBRANCH  14  17
ENDBRANCH   8  11
ENDBRANCH   3   5
BRANCH   2  22
ATOM     22  O   UNL     1       3.268   5.583  19.772  0.00  0.00    +0.000 OA
BRANCH  22  23
ATOM     23  C   UNL     1       3.033   4.953  18.485  0.00  0.00    +0.000 C 
ATOM     24  C   UNL     1       3.560   3.503  18.501  0.00  0.00    +0.000 C 
ATOM     25  O   UNL     1       4.277   3.023  17.371  0.00  0.00    +0.000 OA
ATOM     26  C   UNL     1       4.905   3.918  16.626  0.00  0.00    +0.000 A 
ATOM     27  N   UNL     1       5.816   3.614  15.732  0.00  0.00    +0.000 NA
ATOM     28  C   UNL     1       6.116   4.815  15.128  0.00  0.00    +0.000 A 
ATOM     29  C   UNL     1       5.372   5.847  15.661  0.00  0.00    +0.000 A 
ATOM     30  N   UNL     1       4.625   5.248  16.624  0.00  0.00    +0.000 N 
ATOM     31  C   UNL     1       3.650   5.884  17.457  0.00  0.00    +0.000 C 
BRANCH  28  32
ATOM     32  N   UNL     1       7.084   4.905  14.066  0.00  0.00    +0.000 N 
ATOM     33  O   UNL     1       6.849   4.238  13.043  0.00  0.00    +0.000 OA
ATOM     34  O   UNL     1       8.066   5.639  14.241  0.00  0.00    +0.000 OA
ENDBRANCH  28  32
ENDBRANCH  22  23
ENDBRANCH   2  22
TORSDOF 7
ENDMDL
MODEL 5
REMARK VINA RESULT:      -8.1      6.684     12.930
REMARK  Name = 
REMARK  7 active torsions:
REMARK  status: ('A' for Active; 'I' for Inactive)
REMARK    1  A    between atoms: C_2  and  O_21
REMARK    2  A    between atoms: N_3  and  C_4
REMARK    3  A    between atoms: C_7  and  C_8
REMARK    4  A    between atoms: C_11  and  O_12
REMARK    5  A    between atoms: O_12  and  C_13
REMARK    6  A    between atoms: O_21  and  C_22
REMARK    7  A    between atoms: C_27  and  N_28
REMARK                            x       y       z     vdW  Elec       q    Type
REMARK                         _______ _______ _______ _____ _____    ______ ____
ROOT
ATOM      1  O   UNL     1       1.321  11.714  21.268  0.00  0.00    +0.000 OA
ATOM      2  C   UNL     1       0.335  11.033  21.500  0.00  0.00    +0.000 C 
ATOM      3  N   UNL     1       0.054   9.774  21.039  0.00  0.00    +0.000 N 
ATOM      4  H   UNL     1      -0.877   9.436  21.234  0.00  0.00    +0.000 HD
ENDROOT
BRANCH   3   5
ATOM      5  C   UNL     1       0.906   8.982  20.248  0.00  0.00    +0.000 A 
ATOM      6  C   UNL     1       1.251   9.332  18.944  0.00  0.00    +0.000 A 
ATOM      7  C   UNL     1       2.072   8.511  18.175  0.00  0.00    +0.000 A 
ATOM      8  C   UNL     1       2.604   7.319  18.680  0.00  0.00    +0.000 A 
ATOM      9  C   UNL     1       2.270   6.985  20.004  0.00  0.00    +0.000 A 
ATOM     10  C   UNL     1       1.437   7.802  20.785  0.00  0.00    +0.000 A 
BRANCH   8  11
ATOM     11  C   UNL     1       3.471   6.469  17.837  0.00  0.00    +0.000 A 
ATOM     12  C   UNL     1       3.292   5.074  17.776  0.00  0.00    +0.000 A 
ATOM     13  C   UNL     1       4.124   4.263  17.000  0.00  0.00    +0.000 A 
ATOM     14  C   UNL     1       5.144   4.825  16.236  0.00  0.00    +0.000 A 
ATOM     15  C   UNL     1       5.367   6.195  16.314  0.00  0.00    +0.000 A 
ATOM     16  C   UNL     1       4.532   7.006  17.092  0.00  0.00    +0.000 A 
BRANCH  14  17
ATOM     17  O   UNL     1       5.880   3.937  15.517  0.00  0.00    +0.000 OA
BRANCH  17  18
ATOM     18  C   UNL     1       6.025   4.129  14.117  0.00  0.00    +0.000 C 
ATOM     19  F   UNL     1       6.897   5.098  13.767  0.00  0.00    +0.000 F 
ATOM     20  F   UNL     1       6.423   2.968  13.553  0.00  0.00    +0.000 F 
ATOM     21  F   UNL     1       4.819   4.457  13.601  0.00  0.00    +0.000 F 
ENDBRANCH  17  18
ENDBRANCH  14  17
ENDBRANCH   8  11
ENDBRANCH   3   5
BRANCH   2  22
ATOM     22  O   UNL     1      -0.690  11.478  22.272  0.00  0.00    +0.000 OA
BRANCH  22  23
ATOM     23  C   UNL     1      -1.218  12.776  21.893  0.00  0.00    +0.000 C 
ATOM     24  C   UNL     1      -0.989  13.794  23.029  0.00  0.00    +0.000 C 
ATOM     25  O   UNL     1      -2.040  14.689  23.369  0.00  0.00    +0.000 OA
ATOM     26  C   UNL     1      -3.277  14.300  23.106  0.00  0.00    +0.000 A 
ATOM     27  N   UNL     1      -4.345  14.879  23.601  0.00  0.00    +0.000 NA
ATOM     28  C   UNL     1      -5.397  14.234  22.990  0.00  0.00    +0.000 A 
ATOM     29  C   UNL     1      -4.954  13.264  22.115  0.00  0.00    +0.000 A 
ATOM     30  N   UNL     1      -3.602  13.318  22.225  0.00  0.00    +0.000 N 
ATOM     31  C   UNL     1      -2.661  12.527  21.491  0.00  0.00    +0.000 C 
BRANCH  28  32
ATOM     32  N   UNL     1      -6.764  14.593  23.264  0.00  0.00    +0.000 N 
ATOM     33  O   UNL     1      -6.957  15.729  23.731  0.00  0.00    +0.000 OA
ATOM     34  O   UNL     1      -7.642  13.757  23.012  0.00  0.00    +0.000 OA
ENDBRANCH  28  32
ENDBRANCH  22  23
ENDBRANCH   2  22
TORSDOF 7
ENDMDL
MODEL 6
REMARK VINA RESULT:      -8.0      0.663      1.456
REMARK  Name = 
REMARK  7 active torsions:
REMARK  status: ('A' for Active; 'I' for Inactive)
REMARK    1  A    between atoms: C_2  and  O_21
REMARK    2  A    between atoms: N_3  and  C_4
REMARK    3  A    between atoms: C_7  and  C_8
REMARK    4  A    between atoms: C_11  and  O_12
REMARK    5  A    between atoms: O_12  and  C_13
REMARK    6  A    between atoms: O_21  and  C_22
REMARK    7  A    between atoms: C_27  and  N_28
REMARK                            x       y       z     vdW  Elec       q    Type
REMARK                         _______ _______ _______ _____ _____    ______ ____
ROOT
ATOM      1  O   UNL     1       1.424   5.590  21.028  0.00  0.00    +0.000 OA
ATOM      2  C   UNL     1       2.284   6.182  20.394  0.00  0.00    +0.000 C 
ATOM      3  N   UNL     1       2.339   7.517  20.093  0.00  0.00    +0.000 N 
ATOM      4  H   UNL     1       3.060   7.788  19.441  0.00  0.00    +0.000 HD
ENDROOT
BRANCH   3   5
ATOM      5  C   UNL     1       1.427   8.494  20.532  0.00  0.00    +0.000 A 
ATOM      6  C   UNL     1       0.955   8.538  21.842  0.00  0.00    +0.000 A 
ATOM      7  C   UNL     1       0.029   9.500  22.238  0.00  0.00    +0.000 A 
ATOM      8  C   UNL     1      -0.448  10.473  21.353  0.00  0.00    +0.000 A 
ATOM      9  C   UNL     1       0.051  10.436  20.039  0.00  0.00    +0.000 A 
ATOM     10  C   UNL     1       0.979   9.466  19.628  0.00  0.00    +0.000 A 
BRANCH   8  11
ATOM     11  C   UNL     1      -1.433  11.479  21.804  0.00  0.00    +0.000 A 
ATOM     12  C   UNL     1      -2.001  12.402  20.906  0.00  0.00    +0.000 A 
ATOM     13  C   UNL     1      -2.914  13.370  21.332  0.00  0.00    +0.000 A 
ATOM     14  C   UNL     1      -3.311  13.428  22.666  0.00  0.00    +0.000 A 
ATOM     15  C   UNL     1      -2.730  12.555  23.580  0.00  0.00    +0.000 A 
ATOM     16  C   UNL     1      -1.815  11.585  23.151  0.00  0.00    +0.000 A 
BRANCH  14  17
ATOM     17  O   UNL     1      -4.208  14.406  22.958  0.00  0.00    +0.000 OA
BRANCH  17  18
ATOM     18  C   UNL     1      -3.778  15.548  23.686  0.00  0.00    +0.000 C 
ATOM     19  F   UNL     1      -4.479  16.673  23.433  0.00  0.00    +0.000 F 
ATOM     20  F   UNL     1      -3.853  15.281  25.008  0.00  0.00    +0.000 F 
ATOM     21  F   UNL     1      -2.484  15.792  23.377  0.00  0.00    +0.000 F 
ENDBRANCH  17  18
ENDBRANCH  14  17
ENDBRANCH   8  11
ENDBRANCH   3   5
BRANCH   2  22
ATOM     22  O   UNL     1       3.349   5.544  19.844  0.00  0.00    +0.000 OA
BRANCH  22  23
ATOM     23  C   UNL     1       3.083   4.902  18.570  0.00  0.00    +0.000 C 
ATOM     24  C   UNL     1       3.620   3.456  18.581  0.00  0.00    +0.000 C 
ATOM     25  O   UNL     1       4.308   2.972  17.434  0.00  0.00    +0.000 OA
ATOM     26  C   UNL     1       4.908   3.867  16.665  0.00  0.00    +0.000 A 
ATOM     27  N   UNL     1       5.794   3.561  15.747  0.00  0.00    +0.000 NA
ATOM     28  C   UNL     1       6.068   4.760  15.126  0.00  0.00    +0.000 A 
ATOM     29  C   UNL     1       5.332   5.791  15.673  0.00  0.00    +0.000 A 
ATOM     30  N   UNL     1       4.617   5.194  16.661  0.00  0.00    +0.000 N 
ATOM     31  C   UNL     1       3.663   5.830  17.517  0.00  0.00    +0.000 C 
BRANCH  28  32
ATOM     32  N   UNL     1       7.004   4.849  14.035  0.00  0.00    +0.000 N 
ATOM     33  O   UNL     1       6.761   4.148  13.037  0.00  0.00    +0.000 OA
ATOM     34  O   UNL     1       7.969   5.613  14.164  0.00  0.00    +0.000 OA
ENDBRANCH  28  32
ENDBRANCH  22  23
ENDBRANCH   2  22
TORSDOF 7
ENDMDL
MODEL 7
REMARK VINA RESULT:      -8.0      6.772     12.747
REMARK  Name = 
REMARK  7 active torsions:
REMARK  status: ('A' for Active; 'I' for Inactive)
REMARK    1  A    between atoms: C_2  and  O_21
REMARK    2  A    between atoms: N_3  and  C_4
REMARK    3  A    between atoms: C_7  and  C_8
REMARK    4  A    between atoms: C_11  and  O_12
REMARK    5  A    between atoms: O_12  and  C_13
REMARK    6  A    between atoms: O_21  and  C_22
REMARK    7  A    between atoms: C_27  and  N_28
REMARK                            x       y       z     vdW  Elec       q    Type
REMARK                         _______ _______ _______ _____ _____    ______ ____
ROOT
ATOM      1  O   UNL     1      -1.034   9.998  19.208  0.00  0.00    +0.000 OA
ATOM      2  C   UNL     1      -0.470  10.042  20.290  0.00  0.00    +0.000 C 
ATOM      3  N   UNL     1       0.684   9.407  20.665  0.00  0.00    +0.000 N 
ATOM      4  H   UNL     1       0.914   9.460  21.646  0.00  0.00    +0.000 HD
ENDROOT
BRANCH   3   5
ATOM      5  C   UNL     1       1.495   8.619  19.827  0.00  0.00    +0.000 A 
ATOM      6  C   UNL     1       1.924   9.060  18.577  0.00  0.00    +0.000 A 
ATOM      7  C   UNL     1       2.701   8.245  17.757  0.00  0.00    +0.000 A 
ATOM      8  C   UNL     1       3.104   6.965  18.158  0.00  0.00    +0.000 A 
ATOM      9  C   UNL     1       2.686   6.537  19.431  0.00  0.00    +0.000 A 
ATOM     10  C   UNL     1       1.897   7.349  20.261  0.00  0.00    +0.000 A 
BRANCH   8  11
ATOM     11  C   UNL     1       3.926   6.124  17.263  0.00  0.00    +0.000 A 
ATOM     12  C   UNL     1       3.829   4.720  17.284  0.00  0.00    +0.000 A 
ATOM     13  C   UNL     1       4.621   3.919  16.458  0.00  0.00    +0.000 A 
ATOM     14  C   UNL     1       5.518   4.499  15.563  0.00  0.00    +0.000 A 
ATOM     15  C   UNL     1       5.663   5.882  15.555  0.00  0.00    +0.000 A 
ATOM     16  C   UNL     1       4.867   6.682  16.384  0.00  0.00    +0.000 A 
BRANCH  14  17
ATOM     17  O   UNL     1       6.226   3.619  14.807  0.00  0.00    +0.000 OA
BRANCH  17  18
ATOM     18  C   UNL     1       6.165   3.713  13.391  0.00  0.00    +0.000 C 
ATOM     19  F   UNL     1       6.474   2.574  12.736  0.00  0.00    +0.000 F 
ATOM     20  F   UNL     1       4.921   4.095  13.029  0.00  0.00    +0.000 F 
ATOM     21  F   UNL     1       7.034   4.668  12.986  0.00  0.00    +0.000 F 
ENDBRANCH  17  18
ENDBRANCH  14  17
ENDBRANCH   8  11
ENDBRANCH   3   5
BRANCH   2  22
ATOM     22  O   UNL     1      -0.963  10.750  21.339  0.00  0.00    +0.000 OA
BRANCH  22  23
ATOM     23  C   UNL     1      -1.133  12.170  21.089  0.00  0.00    +0.000 C 
ATOM     24  C   UNL     1       0.243  12.851  20.941  0.00  0.00    +0.000 C 
ATOM     25  O   UNL     1       0.458  14.106  21.572  0.00  0.00    +0.000 OA
ATOM     26  C   UNL     1      -0.274  14.381  22.640  0.00  0.00    +0.000 A 
ATOM     27  N   UNL     1      -0.006  15.355  23.477  0.00  0.00    +0.000 NA
ATOM     28  C   UNL     1      -1.065  15.348  24.358  0.00  0.00    +0.000 A 
ATOM     29  C   UNL     1      -1.979  14.365  24.040  0.00  0.00    +0.000 A 
ATOM     30  N   UNL     1      -1.439  13.755  22.954  0.00  0.00    +0.000 N 
ATOM     31  C   UNL     1      -2.020  12.678  22.212  0.00  0.00    +0.000 C 
BRANCH  28  32
ATOM     32  N   UNL     1      -1.151  16.292  25.442  0.00  0.00    +0.000 N 
ATOM     33  O   UNL     1      -1.187  15.817  26.590  0.00  0.00    +0.000 OA
ATOM     34  O   UNL     1      -1.176  17.497  25.158  0.00  0.00    +0.000 OA
ENDBRANCH  28  32
ENDBRANCH  22  23
ENDBRANCH   2  22
TORSDOF 7
ENDMDL
MODEL 8
REMARK VINA RESULT:      -7.9      6.659     12.559
REMARK  Name = 
REMARK  7 active torsions:
REMARK  status: ('A' for Active; 'I' for Inactive)
REMARK    1  A    between atoms: C_2  and  O_21
REMARK    2  A    between atoms: N_3  and  C_4
REMARK    3  A    between atoms: C_7  and  C_8
REMARK    4  A    between atoms: C_11  and  O_12
REMARK    5  A    between atoms: O_12  and  C_13
REMARK    6  A    between atoms: O_21  and  C_22
REMARK    7  A    between atoms: C_27  and  N_28
REMARK                            x       y       z     vdW  Elec       q    Type
REMARK                         _______ _______ _______ _____ _____    ______ ____
ROOT
ATOM      1  O   UNL     1       2.279   9.602  22.622  0.00  0.00    +0.000 OA
ATOM      2  C   UNL     1       1.120   9.503  22.252  0.00  0.00    +0.000 C 
ATOM      3  N   UNL     1       0.644   8.863  21.138  0.00  0.00    +0.000 N 
ATOM      4  H   UNL     1      -0.333   9.012  20.933  0.00  0.00    +0.000 HD
ENDROOT
BRANCH   3   5
ATOM      5  C   UNL     1       1.417   8.121  20.227  0.00  0.00    +0.000 A 
ATOM      6  C   UNL     1       1.738   6.782  20.440  0.00  0.00    +0.000 A 
ATOM      7  C   UNL     1       2.530   6.082  19.534  0.00  0.00    +0.000 A 
ATOM      8  C   UNL     1       3.018   6.678  18.365  0.00  0.00    +0.000 A 
ATOM      9  C   UNL     1       2.670   8.023  18.146  0.00  0.00    +0.000 A 
ATOM     10  C   UNL     1       1.877   8.740  19.057  0.00  0.00    +0.000 A 
BRANCH   8  11
ATOM     11  C   UNL     1       3.859   5.908  17.425  0.00  0.00    +0.000 A 
ATOM     12  C   UNL     1       3.806   4.502  17.378  0.00  0.00    +0.000 A 
ATOM     13  C   UNL     1       4.616   3.768  16.508  0.00  0.00    +0.000 A 
ATOM     14  C   UNL     1       5.485   4.419  15.636  0.00  0.00    +0.000 A 
ATOM     15  C   UNL     1       5.587   5.805  15.694  0.00  0.00    +0.000 A 
ATOM     16  C   UNL     1       4.774   6.538  16.567  0.00  0.00    +0.000 A 
BRANCH  14  17
ATOM     17  O   UNL     1       6.215   3.600  14.833  0.00  0.00    +0.000 OA
BRANCH  17  18
ATOM     18  C   UNL     1       6.174   3.790  13.426  0.00  0.00    +0.000 C 
ATOM     19  F   UNL     1       6.548   2.714  12.701  0.00  0.00    +0.000 F 
ATOM     20  F   UNL     1       4.920   4.138  13.066  0.00  0.00    +0.000 F 
ATOM     21  F   UNL     1       7.003   4.809  13.106  0.00  0.00    +0.000 F 
ENDBRANCH  17  18
ENDBRANCH  14  17
ENDBRANCH   8  11
ENDBRANCH   3   5
BRANCH   2  22
ATOM     22  O   UNL     1       0.090  10.078  22.925  0.00  0.00    +0.000 OA
BRANCH  22  23
ATOM     23  C   UNL     1      -0.637  11.088  22.177  0.00  0.00    +0.000 C 
ATOM     24  C   UNL     1       0.339  11.914  21.314  0.00  0.00    +0.000 C 
ATOM     25  O   UNL     1       0.174  13.325  21.255  0.00  0.00    +0.000 OA
ATOM     26  C   UNL     1      -0.413  13.911  22.286  0.00  0.00    +0.000 A 
ATOM     27  N   UNL     1      -0.389  15.205  22.501  0.00  0.00    +0.000 NA
ATOM     28  C   UNL     1      -1.201  15.383  23.599  0.00  0.00    +0.000 A 
ATOM     29  C   UNL     1      -1.722  14.185  24.041  0.00  0.00    +0.000 A 
ATOM     30  N   UNL     1      -1.188  13.265  23.197  0.00  0.00    +0.000 N 
ATOM     31  C   UNL     1      -1.443  11.857  23.208  0.00  0.00    +0.000 C 
BRANCH  28  32
ATOM     32  N   UNL     1      -1.446  16.690  24.153  0.00  0.00    +0.000 N 
ATOM     33  O   UNL     1      -0.473  17.263  24.673  0.00  0.00    +0.000 OA
ATOM     34  O   UNL     1      -2.593  17.148  24.065  0.00  0.00    +0.000 OA
ENDBRANCH  28  32
ENDBRANCH  22  23
ENDBRANCH   2  22
TORSDOF 7
ENDMDL
MODEL 9
REMARK VINA RESULT:      -7.9      3.425      4.445
REMARK  Name = 
REMARK  7 active torsions:
REMARK  status: ('A' for Active; 'I' for Inactive)
REMARK    1  A    between atoms: C_2  and  O_21
REMARK    2  A    between atoms: N_3  and  C_4
REMARK    3  A    between atoms: C_7  and  C_8
REMARK    4  A    between atoms: C_11  and  O_12
REMARK    5  A    between atoms: O_12  and  C_13
REMARK    6  A    between atoms: O_21  and  C_22
REMARK    7  A    between atoms: C_27  and  N_28
REMARK                            x       y       z     vdW  Elec       q    Type
REMARK                         _______ _______ _______ _____ _____    ______ ____
ROOT
ATOM      1  O   UNL     1       0.840   3.914  17.640  0.00  0.00    +0.000 OA
ATOM      2  C   UNL     1       1.573   3.636  18.576  0.00  0.00    +0.000 C 
ATOM      3  N   UNL     1       2.205   4.497  19.434  0.00  0.00    +0.000 N 
ATOM      4  H   UNL     1       2.878   4.076  20.057  0.00  0.00    +0.000 HD
ENDROOT
BRANCH   3   5
ATOM      5  C   UNL     1       2.066   5.897  19.441  0.00  0.00    +0.000 A 
ATOM      6  C   UNL     1       1.607   6.595  20.555  0.00  0.00    +0.000 A 
ATOM      7  C   UNL     1       1.451   7.979  20.521  0.00  0.00    +0.000 A 
ATOM      8  C   UNL     1       1.768   8.728  19.382  0.00  0.00    +0.000 A 
ATOM      9  C   UNL     1       2.252   8.019  18.269  0.00  0.00    +0.000 A 
ATOM     10  C   UNL     1       2.406   6.623  18.292  0.00  0.00    +0.000 A 
BRANCH   8  11
ATOM     11  C   UNL     1       1.589  10.195  19.377  0.00  0.00    +0.000 A 
ATOM     12  C   UNL     1       2.162  11.000  18.373  0.00  0.00    +0.000 A 
ATOM     13  C   UNL     1       2.016  12.389  18.377  0.00  0.00    +0.000 A 
ATOM     14  C   UNL     1       1.268  13.017  19.370  0.00  0.00    +0.000 A 
ATOM     15  C   UNL     1       0.729  12.248  20.396  0.00  0.00    +0.000 A 
ATOM     16  C   UNL     1       0.877  10.856  20.390  0.00  0.00    +0.000 A 
BRANCH  14  17
ATOM     17  O   UNL     1       1.191  14.370  19.264  0.00  0.00    +0.000 OA
BRANCH  17  18
ATOM     18  C   UNL     1      -0.039  14.968  18.878  0.00  0.00    +0.000 C 
ATOM     19  F   UNL     1      -0.796  14.216  18.051  0.00  0.00    +0.000 F 
ATOM     20  F   UNL     1      -0.759  15.246  19.987  0.00  0.00    +0.000 F 
ATOM     21  F   UNL     1       0.229  16.132  18.245  0.00  0.00    +0.000 F 
ENDBRANCH  17  18
ENDBRANCH  14  17
ENDBRANCH   8  11
ENDBRANCH   3   5
BRANCH   2  22
ATOM     22  O   UNL     1       1.901   2.356  18.888  0.00  0.00    +0.000 OA
BRANCH  22  23
ATOM     23  C   UNL     1       3.309   2.035  18.739  0.00  0.00    +0.000 C 
ATOM     24  C   UNL     1       4.109   2.589  19.937  0.00  0.00    +0.000 C 
ATOM     25  O   UNL     1       5.356   3.226  19.691  0.00  0.00    +0.000 OA
ATOM     26  C   UNL     1       5.531   3.778  18.501  0.00  0.00    +0.000 A 
ATOM     27  N   UNL     1       6.496   4.623  18.225  0.00  0.00    +0.000 NA
ATOM     28  C   UNL     1       6.370   4.853  16.872  0.00  0.00    +0.000 A 
ATOM     29  C   UNL     1       5.324   4.132  16.334  0.00  0.00    +0.000 A 
ATOM     30  N   UNL     1       4.799   3.473  17.398  0.00  0.00    +0.000 N 
ATOM     31  C   UNL     1       3.702   2.554  17.367  0.00  0.00    +0.000 C 
BRANCH  28  32
ATOM     32  N   UNL     1       7.266   5.734  16.170  0.00  0.00    +0.000 N 
ATOM     33  O   UNL     1       7.594   5.392  15.020  0.00  0.00    +0.000 OA
ATOM     34  O   UNL     1       7.636   6.764  16.750  0.00  0.00    +0.000 OA
ENDBRANCH  28  32
ENDBRANCH  22  23
ENDBRANCH   2  22
TORSDOF 7
ENDMDL
