MODEL 1
REMARK VINA RESULT:      -7.5      0.000      0.000
REMARK  Name = 
REMARK  15 active torsions:
REMARK  status: ('A' for Active; 'I' for Inactive)
REMARK    1  A    between atoms: C_1  and  C_2
REMARK    2  A    between atoms: C_2  and  C_3
REMARK    3  A    between atoms: C_3  and  N_4
REMARK    4  A    between atoms: C_5  and  C_6
REMARK    5  A    between atoms: C_6  and  C_7
REMARK    6  A    between atoms: C_6  and  C_8
REMARK    7  A    between atoms: C_6  and  C_9
REMARK    8  A    between atoms: C_11  and  C_12
REMARK    9  A    between atoms: N_14  and  C_15
REMARK   10  A    between atoms: C_15  and  C_16
REMARK   11  A    between atoms: C_15  and  C_20
REMARK   12  A    between atoms: C_16  and  C_17
REMARK   13  A    between atoms: C_17  and  O_19
REMARK   14  A    between atoms: C_25  and  N_26
REMARK   15  A    between atoms: C_29  and  C_30
REMARK                            x       y       z     vdW  Elec       q    Type
REMARK                         _______ _______ _______ _____ _____    ______ ____
ROOT
ATOM      1  C   UNL     1       1.836   8.976  18.266  0.00  0.00    +0.000 C 
ATOM      2  O   UNL     1       2.391   9.731  17.469  0.00  0.00    +0.000 OA
ATOM      3  N   UNL     1       0.672   9.321  18.911  0.00  0.00    +0.000 N 
ATOM      4  H   UNL     1       0.287   8.679  19.595  0.00  0.00    +0.000 HD
ENDROOT
BRANCH   1   8
ATOM      5  N   UNL     1       2.731   5.694  19.675  0.00  0.00    +0.000 N 
ATOM      6  C   UNL     1       3.327   5.544  18.425  0.00  0.00    +0.000 A 
ATOM      7  C   UNL     1       3.091   6.745  17.757  0.00  0.00    +0.000 A 
ATOM      8  C   UNL     1       2.331   7.626  18.576  0.00  0.00    +0.000 A 
ATOM      9  C   UNL     1       2.133   6.947  19.770  0.00  0.00    +0.000 A 
ATOM     10  C   UNL     1       1.421   7.418  21.001  0.00  0.00    +0.000 C 
BRANCH   6  11
ATOM     11  C   UNL     1       4.070   4.299  17.882  0.00  0.00    +0.000 C 
ATOM     12  C   UNL     1       5.030   3.711  18.934  0.00  0.00    +0.000 C 
ATOM     13  C   UNL     1       3.056   3.178  17.526  0.00  0.00    +0.000 C 
ATOM     14  C   UNL     1       4.841   4.584  16.582  0.00  0.00    +0.000 C 
ENDBRANCH   6  11
BRANCH   5  15
ATOM     15  C   UNL     1       2.680   4.721  20.764  0.00  0.00    +0.000 C 
BRANCH  15  17
ATOM     16  C   UNL     1       1.568   2.599  21.555  0.00  0.00    +0.000 C 
ATOM     17  C   UNL     1       1.405   3.876  20.749  0.00  0.00    +0.000 C 
ENDBRANCH  15  17
ENDBRANCH   5  15
ENDBRANCH   1   8
BRANCH   3  18
ATOM     18  C   UNL     1       0.025  10.623  18.762  0.00  0.00    +0.000 C 
BRANCH  18  19
ATOM     19  C   UNL     1      -0.132  11.358  20.095  0.00  0.00    +0.000 A 
ATOM     20  C   UNL     1      -0.835  10.749  21.152  0.00  0.00    +0.000 A 
ATOM     21  C   UNL     1      -1.078  11.415  22.358  0.00  0.00    +0.000 A 
ATOM     22  C   UNL     1      -0.637  12.721  22.542  0.00  0.00    +0.000 A 
ATOM     23  C   UNL     1       0.093  13.347  21.537  0.00  0.00    +0.000 A 
ATOM     24  C   UNL     1       0.360  12.659  20.339  0.00  0.00    +0.000 A 
BRANCH  24  25
ATOM     25  N   UNL     1       1.188  13.369  19.368  0.00  0.00    +0.000 N 
ATOM     26  O   UNL     1       0.627  14.187  18.628  0.00  0.00    +0.000 OA
ATOM     27  O   UNL     1       2.403  13.140  19.386  0.00  0.00    +0.000 OA
ENDBRANCH  24  25
ENDBRANCH  18  19
BRANCH  18  28
ATOM     28  C   UNL     1      -1.316  10.474  18.011  0.00  0.00    +0.000 C 
BRANCH  28  29
ATOM     29  C   UNL     1      -2.050  11.776  17.813  0.00  0.00    +0.000 C 
ATOM     30  O   UNL     1      -3.194  11.992  18.190  0.00  0.00    +0.000 OA
BRANCH  29  31
ATOM     31  O   UNL     1      -1.345  12.685  17.102  0.00  0.00    +0.000 OA
ATOM     32  H   UNL     1      -1.758  12.955  16.259  0.00  0.00    +0.000 HD
ENDBRANCH  29  31
ENDBRANCH  28  29
ENDBRANCH  18  28
ENDBRANCH   3  18
TORSDOF 10
ENDMDL
MODEL 2
REMARK VINA RESULT:      -7.4      0.745      1.226
REMARK  Name = 
REMARK  15 active torsions:
REMARK  status: ('A' for Active; 'I' for Inactive)
REMARK    1  A    between atoms: C_1  and  C_2
REMARK    2  A    between atoms: C_2  and  C_3
REMARK    3  A    between atoms: C_3  and  N_4
REMARK    4  A    between atoms: C_5  and  C_6
REMARK    5  A    between atoms: C_6  and  C_7
REMARK    6  A    between atoms: C_6  and  C_8
REMARK    7  A    between atoms: C_6  and  C_9
REMARK    8  A    between atoms: C_11  and  C_12
REMARK    9  A    between atoms: N_14  and  C_15
REMARK   10  A    between atoms: C_15  and  C_16
REMARK   11  A    between atoms: C_15  and  C_20
REMARK   12  A    between atoms: C_16  and  C_17
REMARK   13  A    between atoms: C_17  and  O_19
REMARK   14  A    between atoms: C_25  and  N_26
REMARK   15  A    between atoms: C_29  and  C_30
REMARK                            x       y       z     vdW  Elec       q    Type
REMARK                         _______ _______ _______ _____ _____    ______ ____
ROOT
ATOM      1  C   UNL     1       1.777   9.287  18.216  0.00  0.00    +0.000 C 
ATOM      2  O   UNL     1       2.319  10.241  17.659  0.00  0.00    +0.000 OA
ATOM      3  N   UNL     1       0.489   9.354  18.690  0.00  0.00    +0.000 N 
ATOM      4  H   UNL     1       0.112   8.553  19.187  0.00  0.00    +0.000 HD
ENDROOT
BRANCH   1   8
ATOM      5  N   UNL     1       3.055   6.007  19.297  0.00  0.00    +0.000 N 
ATOM      6  C   UNL     1       3.668   6.058  18.047  0.00  0.00    +0.000 A 
ATOM      7  C   UNL     1       3.292   7.285  17.502  0.00  0.00    +0.000 A 
ATOM      8  C   UNL     1       2.430   7.981  18.394  0.00  0.00    +0.000 A 
ATOM      9  C   UNL     1       2.310   7.164  19.510  0.00  0.00    +0.000 A 
ATOM     10  C   UNL     1       1.544   7.417  20.771  0.00  0.00    +0.000 C 
BRANCH   6  11
ATOM     11  C   UNL     1       4.556   4.973  17.391  0.00  0.00    +0.000 C 
ATOM     12  C   UNL     1       3.735   3.728  17.007  0.00  0.00    +0.000 C 
ATOM     13  C   UNL     1       5.189   5.513  16.080  0.00  0.00    +0.000 C 
ATOM     14  C   UNL     1       5.741   4.556  18.279  0.00  0.00    +0.000 C 
ENDBRANCH   6  11
BRANCH   5  15
ATOM     15  C   UNL     1       3.117   4.928  20.280  0.00  0.00    +0.000 C 
BRANCH  15  17
ATOM     16  C   UNL     1       1.143   3.577  19.476  0.00  0.00    +0.000 C 
ATOM     17  C   UNL     1       1.739   4.363  20.631  0.00  0.00    +0.000 C 
ENDBRANCH  15  17
ENDBRANCH   5  15
ENDBRANCH   1   8
BRANCH   3  18
ATOM     18  C   UNL     1      -0.329  10.564  18.635  0.00  0.00    +0.000 C 
BRANCH  18  19
ATOM     19  C   UNL     1      -0.352  11.320  19.965  0.00  0.00    +0.000 A 
ATOM     20  C   UNL     1      -0.731  10.650  21.145  0.00  0.00    +0.000 A 
ATOM     21  C   UNL     1      -0.850  11.319  22.367  0.00  0.00    +0.000 A 
ATOM     22  C   UNL     1      -0.609  12.686  22.448  0.00  0.00    +0.000 A 
ATOM     23  C   UNL     1      -0.197  13.379  21.315  0.00  0.00    +0.000 A 
ATOM     24  C   UNL     1      -0.049  12.693  20.095  0.00  0.00    +0.000 A 
BRANCH  24  25
ATOM     25  N   UNL     1       0.449  13.486  18.975  0.00  0.00    +0.000 N 
ATOM     26  O   UNL     1       1.652  13.396  18.701  0.00  0.00    +0.000 OA
ATOM     27  O   UNL     1      -0.377  14.156  18.345  0.00  0.00    +0.000 OA
ENDBRANCH  24  25
ENDBRANCH  18  19
BRANCH  18  28
ATOM     28  C   UNL     1      -1.746  10.231  18.121  0.00  0.00    +0.000 C 
BRANCH  28  29
ATOM     29  C   UNL     1      -2.511  11.433  17.627  0.00  0.00    +0.000 C 
ATOM     30  O   UNL     1      -3.661  11.702  17.943  0.00  0.00    +0.000 OA
BRANCH  29  31
ATOM     31  O   UNL     1      -1.825  12.169  16.723  0.00  0.00    +0.000 OA
ATOM     32  H   UNL     1      -1.507  11.670  15.946  0.00  0.00    +0.000 HD
ENDBRANCH  29  31
ENDBRANCH  28  29
ENDBRANCH  18  28
ENDBRANCH   3  18
TORSDOF 10
ENDMDL
MODEL 3
REMARK VINA RESULT:      -7.4      0.798      1.145
REMARK  Name = 
REMARK  15 active torsions:
REMARK  status: ('A' for Active; 'I' for Inactive)
REMARK    1  A    between atoms: C_1  and  C_2
REMARK    2  A    between atoms: C_2  and  C_3
REMARK    3  A    between atoms: C_3  and  N_4
REMARK    4  A    between atoms: C_5  and  C_6
REMARK    5  A    between atoms: C_6  and  C_7
REMARK    6  A    between atoms: C_6  and  C_8
REMARK    7  A    between atoms: C_6  and  C_9
REMARK    8  A    between atoms: C_11  and  C_12
REMARK    9  A    between atoms: N_14  and  C_15
REMARK   10  A    between atoms: C_15  and  C_16
REMARK   11  A    between atoms: C_15  and  C_20
REMARK   12  A    between atoms: C_16  and  C_17
REMARK   13  A    between atoms: C_17  and  O_19
REMARK   14  A    between atoms: C_25  and  N_26
REMARK   15  A    between atoms: C_29  and  C_30
REMARK                            x       y       z     vdW  Elec       q    Type
REMARK                         _______ _______ _______ _____ _____    ______ ____
ROOT
ATOM      1  C   UNL     1       1.788   9.336  18.168  0.00  0.00    +0.000 C 
ATOM      2  O   UNL     1       2.321  10.312  17.639  0.00  0.00    +0.000 OA
ATOM      3  N   UNL     1       0.492   9.369  18.624  0.00  0.00    +0.000 N 
ATOM      4  H   UNL     1       0.123   8.551  19.098  0.00  0.00    +0.000 HD
ENDROOT
BRANCH   1   8
ATOM      5  N   UNL     1       3.117   6.061  19.202  0.00  0.00    +0.000 N 
ATOM      6  C   UNL     1       3.733   6.143  17.955  0.00  0.00    +0.000 A 
ATOM      7  C   UNL     1       3.339   7.372  17.428  0.00  0.00    +0.000 A 
ATOM      8  C   UNL     1       2.462   8.039  18.328  0.00  0.00    +0.000 A 
ATOM      9  C   UNL     1       2.352   7.202  19.430  0.00  0.00    +0.000 A 
ATOM     10  C   UNL     1       1.577   7.423  20.692  0.00  0.00    +0.000 C 
BRANCH   6  11
ATOM     11  C   UNL     1       4.642   5.083  17.286  0.00  0.00    +0.000 C 
ATOM     12  C   UNL     1       5.276   5.621  15.989  0.00  0.00    +0.000 C 
ATOM     13  C   UNL     1       5.813   4.702  18.231  0.00  0.00    +0.000 C 
ATOM     14  C   UNL     1       3.904   3.765  16.993  0.00  0.00    +0.000 C 
ENDBRANCH   6  11
BRANCH   5  15
ATOM     15  C   UNL     1       3.193   4.968  20.168  0.00  0.00    +0.000 C 
BRANCH  15  17
ATOM     16  C   UNL     1       2.407   2.571  20.197  0.00  0.00    +0.000 C 
ATOM     17  C   UNL     1       1.988   4.028  20.100  0.00  0.00    +0.000 C 
ENDBRANCH  15  17
ENDBRANCH   5  15
ENDBRANCH   1   8
BRANCH   3  18
ATOM     18  C   UNL     1      -0.347  10.566  18.582  0.00  0.00    +0.000 C 
BRANCH  18  19
ATOM     19  C   UNL     1      -0.365  11.319  19.914  0.00  0.00    +0.000 A 
ATOM     20  C   UNL     1      -0.715  10.640  21.098  0.00  0.00    +0.000 A 
ATOM     21  C   UNL     1      -0.829  11.304  22.323  0.00  0.00    +0.000 A 
ATOM     22  C   UNL     1      -0.612  12.675  22.404  0.00  0.00    +0.000 A 
ATOM     23  C   UNL     1      -0.229  13.378  21.266  0.00  0.00    +0.000 A 
ATOM     24  C   UNL     1      -0.086  12.697  20.043  0.00  0.00    +0.000 A 
BRANCH  24  25
ATOM     25  N   UNL     1       0.382  13.500  18.918  0.00  0.00    +0.000 N 
ATOM     26  O   UNL     1      -0.468  14.116  18.263  0.00  0.00    +0.000 OA
ATOM     27  O   UNL     1       1.602  13.551  18.727  0.00  0.00    +0.000 OA
ENDBRANCH  24  25
ENDBRANCH  18  19
BRANCH  18  28
ATOM     28  C   UNL     1      -1.766  10.210  18.087  0.00  0.00    +0.000 C 
BRANCH  28  29
ATOM     29  C   UNL     1      -2.529  11.386  17.533  0.00  0.00    +0.000 C 
ATOM     30  O   UNL     1      -3.658  11.705  17.877  0.00  0.00    +0.000 OA
BRANCH  29  31
ATOM     31  O   UNL     1      -1.870  12.032  16.544  0.00  0.00    +0.000 OA
ATOM     32  H   UNL     1      -2.438  12.357  15.818  0.00  0.00    +0.000 HD
ENDBRANCH  29  31
ENDBRANCH  28  29
ENDBRANCH  18  28
ENDBRANCH   3  18
TORSDOF 10
ENDMDL
MODEL 4
REMARK VINA RESULT:      -7.3      1.392      1.868
REMARK  Name = 
REMARK  15 active torsions:
REMARK  status: ('A' for Active; 'I' for Inactive)
REMARK    1  A    between atoms: C_1  and  C_2
REMARK    2  A    between atoms: C_2  and  C_3
REMARK    3  A    between atoms: C_3  and  N_4
REMARK    4  A    between atoms: C_5  and  C_6
REMARK    5  A    between atoms: C_6  and  C_7
REMARK    6  A    between atoms: C_6  and  C_8
REMARK    7  A    between atoms: C_6  and  C_9
REMARK    8  A    between atoms: C_11  and  C_12
REMARK    9  A    between atoms: N_14  and  C_15
REMARK   10  A    between atoms: C_15  and  C_16
REMARK   11  A    between atoms: C_15  and  C_20
REMARK   12  A    between atoms: C_16  and  C_17
REMARK   13  A    between atoms: C_17  and  O_19
REMARK   14  A    between atoms: C_25  and  N_26
REMARK   15  A    between atoms: C_29  and  C_30
REMARK                            x       y       z     vdW  Elec       q    Type
REMARK                         _______ _______ _______ _____ _____    ______ ____
ROOT
ATOM      1  C   UNL     1       1.574   9.393  18.355  0.00  0.00    +0.000 C 
ATOM      2  O   UNL     1       1.945  10.400  17.751  0.00  0.00    +0.000 OA
ATOM      3  N   UNL     1       0.371   9.340  19.018  0.00  0.00    +0.000 N 
ATOM      4  H   UNL     1       0.142   8.501  19.540  0.00  0.00    +0.000 HD
ENDROOT
BRANCH   1   8
ATOM      5  N   UNL     1       3.176   6.159  19.085  0.00  0.00    +0.000 N 
ATOM      6  C   UNL     1       3.766   6.399  17.846  0.00  0.00    +0.000 A 
ATOM      7  C   UNL     1       3.267   7.633  17.433  0.00  0.00    +0.000 A 
ATOM      8  C   UNL     1       2.352   8.146  18.395  0.00  0.00    +0.000 A 
ATOM      9  C   UNL     1       2.326   7.210  19.419  0.00  0.00    +0.000 A 
ATOM     10  C   UNL     1       1.554   7.256  20.701  0.00  0.00    +0.000 C 
BRANCH   6  11
ATOM     11  C   UNL     1       4.747   5.479  17.080  0.00  0.00    +0.000 C 
ATOM     12  C   UNL     1       5.231   6.135  15.772  0.00  0.00    +0.000 C 
ATOM     13  C   UNL     1       6.012   5.205  17.937  0.00  0.00    +0.000 C 
ATOM     14  C   UNL     1       4.150   4.095  16.773  0.00  0.00    +0.000 C 
ENDBRANCH   6  11
BRANCH   5  15
ATOM     15  C   UNL     1       3.354   4.995  19.950  0.00  0.00    +0.000 C 
BRANCH  15  17
ATOM     16  C   UNL     1       1.781   3.485  21.219  0.00  0.00    +0.000 C 
ATOM     17  C   UNL     1       2.200   3.997  19.851  0.00  0.00    +0.000 C 
ENDBRANCH  15  17
ENDBRANCH   5  15
ENDBRANCH   1   8
BRANCH   3  18
ATOM     18  C   UNL     1      -0.543  10.476  19.120  0.00  0.00    +0.000 C 
BRANCH  18  19
ATOM     19  C   UNL     1      -0.807  10.889  20.570  0.00  0.00    +0.000 A 
ATOM     20  C   UNL     1      -0.394  10.051  21.623  0.00  0.00    +0.000 A 
ATOM     21  C   UNL     1      -0.689  10.344  22.959  0.00  0.00    +0.000 A 
ATOM     22  C   UNL     1      -1.421  11.480  23.285  0.00  0.00    +0.000 A 
ATOM     23  C   UNL     1      -1.817  12.355  22.278  0.00  0.00    +0.000 A 
ATOM     24  C   UNL     1      -1.489  12.069  20.940  0.00  0.00    +0.000 A 
BRANCH  24  25
ATOM     25  N   UNL     1      -1.888  13.073  19.959  0.00  0.00    +0.000 N 
ATOM     26  O   UNL     1      -3.082  13.118  19.639  0.00  0.00    +0.000 OA
ATOM     27  O   UNL     1      -1.012  13.845  19.551  0.00  0.00    +0.000 OA
ENDBRANCH  24  25
ENDBRANCH  18  19
BRANCH  18  28
ATOM     28  C   UNL     1      -1.846  10.189  18.343  0.00  0.00    +0.000 C 
BRANCH  28  29
ATOM     29  C   UNL     1      -1.947  10.927  17.033  0.00  0.00    +0.000 C 
ATOM     30  O   UNL     1      -2.303  10.422  15.978  0.00  0.00    +0.000 OA
BRANCH  29  31
ATOM     31  O   UNL     1      -1.532  12.212  17.110  0.00  0.00    +0.000 OA
ATOM     32  H   UNL     1      -1.916  12.808  16.438  0.00  0.00    +0.000 HD
ENDBRANCH  29  31
ENDBRANCH  28  29
ENDBRANCH  18  28
ENDBRANCH   3  18
TORSDOF 10
ENDMDL
MODEL 5
REMARK VINA RESULT:      -7.2      1.956      3.846
REMARK  Name = 
REMARK  15 active torsions:
REMARK  status: ('A' for Active; 'I' for Inactive)
REMARK    1  A    between atoms: C_1  and  C_2
REMARK    2  A    between atoms: C_2  and  C_3
REMARK    3  A    between atoms: C_3  and  N_4
REMARK    4  A    between atoms: C_5  and  C_6
REMARK    5  A    between atoms: C_6  and  C_7
REMARK    6  A    between atoms: C_6  and  C_8
REMARK    7  A    between atoms: C_6  and  C_9
REMARK    8  A    between atoms: C_11  and  C_12
REMARK    9  A    between atoms: N_14  and  C_15
REMARK   10  A    between atoms: C_15  and  C_16
REMARK   11  A    between atoms: C_15  and  C_20
REMARK   12  A    between atoms: C_16  and  C_17
REMARK   13  A    between atoms: C_17  and  O_19
REMARK   14  A    between atoms: C_25  and  N_26
REMARK   15  A    between atoms: C_29  and  C_30
REMARK                            x       y       z     vdW  Elec       q    Type
REMARK                         _______ _______ _______ _____ _____    ______ ____
ROOT
ATOM      1  C   UNL     1       1.438   8.427  20.369  0.00  0.00    +0.000 C 
ATOM      2  O   UNL     1       1.606   8.864  21.507  0.00  0.00    +0.000 OA
ATOM      3  N   UNL     1       0.838   9.171  19.381  0.00  0.00    +0.000 N 
ATOM      4  H   UNL     1       0.681   8.740  18.476  0.00  0.00    +0.000 HD
ENDROOT
BRANCH   1   8
ATOM      5  N   UNL     1       2.889   5.454  18.751  0.00  0.00    +0.000 N 
ATOM      6  C   UNL     1       2.318   4.823  19.854  0.00  0.00    +0.000 A 
ATOM      7  C   UNL     1       1.691   5.837  20.576  0.00  0.00    +0.000 A 
ATOM      8  C   UNL     1       1.893   7.095  19.942  0.00  0.00    +0.000 A 
ATOM      9  C   UNL     1       2.634   6.822  18.801  0.00  0.00    +0.000 A 
ATOM     10  C   UNL     1       3.103   7.776  17.746  0.00  0.00    +0.000 C 
BRANCH   6  11
ATOM     11  C   UNL     1       2.386   3.319  20.215  0.00  0.00    +0.000 C 
ATOM     12  C   UNL     1       1.756   3.040  21.593  0.00  0.00    +0.000 C 
ATOM     13  C   UNL     1       1.589   2.479  19.181  0.00  0.00    +0.000 C 
ATOM     14  C   UNL     1       3.820   2.762  20.180  0.00  0.00    +0.000 C 
ENDBRANCH   6  11
BRANCH   5  15
ATOM     15  C   UNL     1       3.671   4.845  17.678  0.00  0.00    +0.000 C 
BRANCH  15  17
ATOM     16  C   UNL     1       5.965   4.420  16.716  0.00  0.00    +0.000 C 
ATOM     17  C   UNL     1       5.180   4.979  17.891  0.00  0.00    +0.000 C 
ENDBRANCH  15  17
ENDBRANCH   5  15
ENDBRANCH   1   8
BRANCH   3  18
ATOM     18  C   UNL     1       0.294  10.510  19.600  0.00  0.00    +0.000 C 
BRANCH  18  19
ATOM     19  C   UNL     1      -1.065  10.710  18.925  0.00  0.00    +0.000 A 
ATOM     20  C   UNL     1      -1.404   9.944  17.793  0.00  0.00    +0.000 A 
ATOM     21  C   UNL     1      -2.597  10.151  17.093  0.00  0.00    +0.000 A 
ATOM     22  C   UNL     1      -3.485  11.143  17.492  0.00  0.00    +0.000 A 
ATOM     23  C   UNL     1      -3.207  11.898  18.627  0.00  0.00    +0.000 A 
ATOM     24  C   UNL     1      -2.019  11.663  19.345  0.00  0.00    +0.000 A 
BRANCH  24  25
ATOM     25  N   UNL     1      -1.841  12.456  20.557  0.00  0.00    +0.000 N 
ATOM     26  O   UNL     1      -1.992  11.882  21.643  0.00  0.00    +0.000 OA
ATOM     27  O   UNL     1      -1.501  13.636  20.416  0.00  0.00    +0.000 OA
ENDBRANCH  24  25
ENDBRANCH  18  19
BRANCH  18  28
ATOM     28  C   UNL     1       1.322  11.583  19.181  0.00  0.00    +0.000 C 
BRANCH  28  29
ATOM     29  C   UNL     1       1.764  12.475  20.313  0.00  0.00    +0.000 C 
ATOM     30  O   UNL     1       2.598  13.365  20.210  0.00  0.00    +0.000 OA
BRANCH  29  31
ATOM     31  O   UNL     1       1.200  12.154  21.499  0.00  0.00    +0.000 OA
ATOM     32  H   UNL     1       1.272  12.843  22.188  0.00  0.00    +0.000 HD
ENDBRANCH  29  31
ENDBRANCH  28  29
ENDBRANCH  18  28
ENDBRANCH   3  18
TORSDOF 10
ENDMDL
MODEL 6
REMARK VINA RESULT:      -7.2      1.991      3.818
REMARK  Name = 
REMARK  15 active torsions:
REMARK  status: ('A' for Active; 'I' for Inactive)
REMARK    1  A    between atoms: C_1  and  C_2
REMARK    2  A    between atoms: C_2  and  C_3
REMARK    3  A    between atoms: C_3  and  N_4
REMARK    4  A    between atoms: C_5  and  C_6
REMARK    5  A    between atoms: C_6  and  C_7
REMARK    6  A    between atoms: C_6  and  C_8
REMARK    7  A    between atoms: C_6  and  C_9
REMARK    8  A    between atoms: C_11  and  C_12
REMARK    9  A    between atoms: N_14  and  C_15
REMARK   10  A    between atoms: C_15  and  C_16
REMARK   11  A    between atoms: C_15  and  C_20
REMARK   12  A    between atoms: C_16  and  C_17
REMARK   13  A    between atoms: C_17  and  O_19
REMARK   14  A    between atoms: C_25  and  N_26
REMARK   15  A    between atoms: C_29  and  C_30
REMARK                            x       y       z     vdW  Elec       q    Type
REMARK                         _______ _______ _______ _____ _____    ______ ____
ROOT
ATOM      1  C   UNL     1       1.490   8.365  20.343  0.00  0.00    +0.000 C 
ATOM      2  O   UNL     1       1.527   8.737  21.515  0.00  0.00    +0.000 OA
ATOM      3  N   UNL     1       1.067   9.189  19.327  0.00  0.00    +0.000 N 
ATOM      4  H   UNL     1       1.010   8.811  18.387  0.00  0.00    +0.000 HD
ENDROOT
BRANCH   1   8
ATOM      5  N   UNL     1       2.894   5.382  18.702  0.00  0.00    +0.000 N 
ATOM      6  C   UNL     1       2.326   4.753  19.808  0.00  0.00    +0.000 A 
ATOM      7  C   UNL     1       1.717   5.772  20.539  0.00  0.00    +0.000 A 
ATOM      8  C   UNL     1       1.927   7.030  19.908  0.00  0.00    +0.000 A 
ATOM      9  C   UNL     1       2.654   6.753  18.758  0.00  0.00    +0.000 A 
ATOM     10  C   UNL     1       3.124   7.705  17.703  0.00  0.00    +0.000 C 
BRANCH   6  11
ATOM     11  C   UNL     1       2.382   3.248  20.163  0.00  0.00    +0.000 C 
ATOM     12  C   UNL     1       3.834   2.738  20.234  0.00  0.00    +0.000 C 
ATOM     13  C   UNL     1       1.751   2.999  21.560  0.00  0.00    +0.000 C 
ATOM     14  C   UNL     1       1.575   2.375  19.186  0.00  0.00    +0.000 C 
ENDBRANCH   6  11
BRANCH   5  15
ATOM     15  C   UNL     1       3.660   4.769  17.620  0.00  0.00    +0.000 C 
BRANCH  15  17
ATOM     16  C   UNL     1       5.822   5.390  16.477  0.00  0.00    +0.000 C 
ATOM     17  C   UNL     1       5.170   4.955  17.779  0.00  0.00    +0.000 C 
ENDBRANCH  15  17
ENDBRANCH   5  15
ENDBRANCH   1   8
BRANCH   3  18
ATOM     18  C   UNL     1       0.570  10.546  19.545  0.00  0.00    +0.000 C 
BRANCH  18  19
ATOM     19  C   UNL     1      -0.841  10.752  18.990  0.00  0.00    +0.000 A 
ATOM     20  C   UNL     1      -1.250  10.051  17.840  0.00  0.00    +0.000 A 
ATOM     21  C   UNL     1      -2.498  10.270  17.247  0.00  0.00    +0.000 A 
ATOM     22  C   UNL     1      -3.374  11.211  17.777  0.00  0.00    +0.000 A 
ATOM     23  C   UNL     1      -3.024  11.899  18.934  0.00  0.00    +0.000 A 
ATOM     24  C   UNL     1      -1.780  11.651  19.543  0.00  0.00    +0.000 A 
BRANCH  24  25
ATOM     25  N   UNL     1      -1.525  12.370  20.787  0.00  0.00    +0.000 N 
ATOM     26  O   UNL     1      -1.332  13.589  20.713  0.00  0.00    +0.000 OA
ATOM     27  O   UNL     1      -1.570  11.718  21.836  0.00  0.00    +0.000 OA
ENDBRANCH  24  25
ENDBRANCH  18  19
BRANCH  18  28
ATOM     28  C   UNL     1       1.576  11.581  18.996  0.00  0.00    +0.000 C 
BRANCH  28  29
ATOM     29  C   UNL     1       1.963  12.642  19.995  0.00  0.00    +0.000 C 
ATOM     30  O   UNL     1       2.659  13.615  19.739  0.00  0.00    +0.000 OA
BRANCH  29  31
ATOM     31  O   UNL     1       1.524  12.383  21.248  0.00  0.00    +0.000 OA
ATOM     32  H   UNL     1       0.597  12.638  21.418  0.00  0.00    +0.000 HD
ENDBRANCH  29  31
ENDBRANCH  28  29
ENDBRANCH  18  28
ENDBRANCH   3  18
TORSDOF 10
ENDMDL
MODEL 7
REMARK VINA RESULT:      -7.2      2.812      8.187
REMARK  Name = 
REMARK  15 active torsions:
REMARK  status: ('A' for Active; 'I' for Inactive)
REMARK    1  A    between atoms: C_1  and  C_2
REMARK    2  A    between atoms: C_2  and  C_3
REMARK    3  A    between atoms: C_3  and  N_4
REMARK    4  A    between atoms: C_5  and  C_6
REMARK    5  A    between atoms: C_6  and  C_7
REMARK    6  A    between atoms: C_6  and  C_8
REMARK    7  A    between atoms: C_6  and  C_9
REMARK    8  A    between atoms: C_11  and  C_12
REMARK    9  A    between atoms: N_14  and  C_15
REMARK   10  A    between atoms: C_15  and  C_16
REMARK   11  A    between atoms: C_15  and  C_20
REMARK   12  A    between atoms: C_16  and  C_17
REMARK   13  A    between atoms: C_17  and  O_19
REMARK   14  A    between atoms: C_25  and  N_26
REMARK   15  A    between atoms: C_29  and  C_30
REMARK                            x       y       z     vdW  Elec       q    Type
REMARK                         _______ _______ _______ _____ _____    ______ ____
ROOT
ATOM      1  C   UNL     1       2.043   7.895  18.484  0.00  0.00    +0.000 C 
ATOM      2  O   UNL     1       1.787   7.533  17.336  0.00  0.00    +0.000 OA
ATOM      3  N   UNL     1       2.804   7.132  19.338  0.00  0.00    +0.000 N 
ATOM      4  H   UNL     1       2.940   7.458  20.290  0.00  0.00    +0.000 HD
ENDROOT
BRANCH   1   8
ATOM      5  N   UNL     1       0.734  10.720  20.451  0.00  0.00    +0.000 N 
ATOM      6  C   UNL     1       1.191  11.438  19.348  0.00  0.00    +0.000 A 
ATOM      7  C   UNL     1       1.710  10.483  18.475  0.00  0.00    +0.000 A 
ATOM      8  C   UNL     1       1.601   9.182  19.040  0.00  0.00    +0.000 A 
ATOM      9  C   UNL     1       0.978   9.361  20.268  0.00  0.00    +0.000 A 
ATOM     10  C   UNL     1       0.588   8.322  21.273  0.00  0.00    +0.000 C 
BRANCH   6  11
ATOM     11  C   UNL     1       1.154  12.973  19.147  0.00  0.00    +0.000 C 
ATOM     12  C   UNL     1       1.542  13.721  20.436  0.00  0.00    +0.000 C 
ATOM     13  C   UNL     1       2.176  13.399  18.058  0.00  0.00    +0.000 C 
ATOM     14  C   UNL     1      -0.211  13.476  18.648  0.00  0.00    +0.000 C 
ENDBRANCH   6  11
BRANCH   5  15
ATOM     15  C   UNL     1       0.107  11.243  21.662  0.00  0.00    +0.000 C 
BRANCH  15  17
ATOM     16  C   UNL     1      -1.956  12.286  22.673  0.00  0.00    +0.000 C 
ATOM     17  C   UNL     1      -1.383  11.539  21.480  0.00  0.00    +0.000 C 
ENDBRANCH  15  17
ENDBRANCH   5  15
ENDBRANCH   1   8
BRANCH   3  18
ATOM     18  C   UNL     1       3.324   5.810  18.992  0.00  0.00    +0.000 C 
BRANCH  18  19
ATOM     19  C   UNL     1       2.560   4.679  19.684  0.00  0.00    +0.000 A 
ATOM     20  C   UNL     1       2.558   4.592  21.089  0.00  0.00    +0.000 A 
ATOM     21  C   UNL     1       1.947   3.529  21.762  0.00  0.00    +0.000 A 
ATOM     22  C   UNL     1       1.330   2.507  21.050  0.00  0.00    +0.000 A 
ATOM     23  C   UNL     1       1.277   2.572  19.662  0.00  0.00    +0.000 A 
ATOM     24  C   UNL     1       1.866   3.661  18.993  0.00  0.00    +0.000 A 
BRANCH  24  25
ATOM     25  N   UNL     1       1.706   3.680  17.543  0.00  0.00    +0.000 N 
ATOM     26  O   UNL     1       0.790   4.369  17.077  0.00  0.00    +0.000 OA
ATOM     27  O   UNL     1       2.529   3.044  16.874  0.00  0.00    +0.000 OA
ENDBRANCH  24  25
ENDBRANCH  18  19
BRANCH  18  28
ATOM     28  C   UNL     1       4.843   5.744  19.258  0.00  0.00    +0.000 C 
BRANCH  28  29
ATOM     29  C   UNL     1       5.584   4.824  18.321  0.00  0.00    +0.000 C 
ATOM     30  O   UNL     1       6.649   4.281  18.581  0.00  0.00    +0.000 OA
BRANCH  29  31
ATOM     31  O   UNL     1       4.993   4.704  17.111  0.00  0.00    +0.000 OA
ATOM     32  H   UNL     1       5.330   5.317  16.428  0.00  0.00    +0.000 HD
ENDBRANCH  29  31
ENDBRANCH  28  29
ENDBRANCH  18  28
ENDBRANCH   3  18
TORSDOF 10
ENDMDL
MODEL 8
REMARK VINA RESULT:      -7.1      1.894      3.644
REMARK  Name = 
REMARK  15 active torsions:
REMARK  status: ('A' for Active; 'I' for Inactive)
REMARK    1  A    between atoms: C_1  and  C_2
REMARK    2  A    between atoms: C_2  and  C_3
REMARK    3  A    between atoms: C_3  and  N_4
REMARK    4  A    between atoms: C_5  and  C_6
REMARK    5  A    between atoms: C_6  and  C_7
REMARK    6  A    between atoms: C_6  and  C_8
REMARK    7  A    between atoms: C_6  and  C_9
REMARK    8  A    between atoms: C_11  and  C_12
REMARK    9  A    between atoms: N_14  and  C_15
REMARK   10  A    between atoms: C_15  and  C_16
REMARK   11  A    between atoms: C_15  and  C_20
REMARK   12  A    between atoms: C_16  and  C_17
REMARK   13  A    between atoms: C_17  and  O_19
REMARK   14  A    between atoms: C_25  and  N_26
REMARK   15  A    between atoms: C_29  and  C_30
REMARK                            x       y       z     vdW  Elec       q    Type
REMARK                         _______ _______ _______ _____ _____    ______ ____
ROOT
ATOM      1  C   UNL     1       1.383   8.337  20.782  0.00  0.00    +0.000 C 
ATOM      2  O   UNL     1       1.481   8.594  21.982  0.00  0.00    +0.000 OA
ATOM      3  N   UNL     1       0.859   9.235  19.883  0.00  0.00    +0.000 N 
ATOM      4  H   UNL     1       0.755   8.948  18.915  0.00  0.00    +0.000 HD
ENDROOT
BRANCH   1   8
ATOM      5  N   UNL     1       2.786   5.601  18.757  0.00  0.00    +0.000 N 
ATOM      6  C   UNL     1       2.354   4.844  19.843  0.00  0.00    +0.000 A 
ATOM      7  C   UNL     1       1.761   5.755  20.716  0.00  0.00    +0.000 A 
ATOM      8  C   UNL     1       1.847   7.074  20.189  0.00  0.00    +0.000 A 
ATOM      9  C   UNL     1       2.481   6.944  18.961  0.00  0.00    +0.000 A 
ATOM     10  C   UNL     1       2.804   8.013  17.963  0.00  0.00    +0.000 C 
BRANCH   6  11
ATOM     11  C   UNL     1       2.520   3.319  20.050  0.00  0.00    +0.000 C 
ATOM     12  C   UNL     1       1.993   2.875  21.428  0.00  0.00    +0.000 C 
ATOM     13  C   UNL     1       1.701   2.537  18.987  0.00  0.00    +0.000 C 
ATOM     14  C   UNL     1       3.974   2.848  19.878  0.00  0.00    +0.000 C 
ENDBRANCH   6  11
BRANCH   5  15
ATOM     15  C   UNL     1       3.482   5.133  17.561  0.00  0.00    +0.000 C 
BRANCH  15  17
ATOM     16  C   UNL     1       5.452   6.011  16.251  0.00  0.00    +0.000 C 
ATOM     17  C   UNL     1       4.979   5.447  17.581  0.00  0.00    +0.000 C 
ENDBRANCH  15  17
ENDBRANCH   5  15
ENDBRANCH   1   8
BRANCH   3  18
ATOM     18  C   UNL     1       0.319  10.538  20.267  0.00  0.00    +0.000 C 
BRANCH  18  19
ATOM     19  C   UNL     1      -0.993  10.865  19.550  0.00  0.00    +0.000 A 
ATOM     20  C   UNL     1      -1.331  10.186  18.363  0.00  0.00    +0.000 A 
ATOM     21  C   UNL     1      -2.475  10.511  17.627  0.00  0.00    +0.000 A 
ATOM     22  C   UNL     1      -3.313  11.539  18.045  0.00  0.00    +0.000 A 
ATOM     23  C   UNL     1      -3.036  12.211  19.231  0.00  0.00    +0.000 A 
ATOM     24  C   UNL     1      -1.900  11.857  19.983  0.00  0.00    +0.000 A 
BRANCH  24  25
ATOM     25  N   UNL     1      -1.724  12.570  21.244  0.00  0.00    +0.000 N 
ATOM     26  O   UNL     1      -2.078  11.994  22.281  0.00  0.00    +0.000 OA
ATOM     27  O   UNL     1      -1.187  13.682  21.195  0.00  0.00    +0.000 OA
ENDBRANCH  24  25
ENDBRANCH  18  19
BRANCH  18  28
ATOM     28  C   UNL     1       1.385  11.638  20.076  0.00  0.00    +0.000 C 
BRANCH  28  29
ATOM     29  C   UNL     1       1.475  12.159  18.664  0.00  0.00    +0.000 C 
ATOM     30  O   UNL     1       1.024  13.232  18.290  0.00  0.00    +0.000 OA
BRANCH  29  31
ATOM     31  O   UNL     1       2.050  11.284  17.807  0.00  0.00    +0.000 OA
ATOM     32  H   UNL     1       2.362  10.454  18.217  0.00  0.00    +0.000 HD
ENDBRANCH  29  31
ENDBRANCH  28  29
ENDBRANCH  18  28
ENDBRANCH   3  18
TORSDOF 10
ENDMDL
MODEL 9
REMARK VINA RESULT:      -7.1      2.025      3.378
REMARK  Name = 
REMARK  15 active torsions:
REMARK  status: ('A' for Active; 'I' for Inactive)
REMARK    1  A    between atoms: C_1  and  C_2
REMARK    2  A    between atoms: C_2  and  C_3
REMARK    3  A    between atoms: C_3  and  N_4
REMARK    4  A    between atoms: C_5  and  C_6
REMARK    5  A    between atoms: C_6  and  C_7
REMARK    6  A    between atoms: C_6  and  C_8
REMARK    7  A    between atoms: C_6  and  C_9
REMARK    8  A    between atoms: C_11  and  C_12
REMARK    9  A    between atoms: N_14  and  C_15
REMARK   10  A    between atoms: C_15  and  C_16
REMARK   11  A    between atoms: C_15  and  C_20
REMARK   12  A    between atoms: C_16  and  C_17
REMARK   13  A    between atoms: C_17  and  O_19
REMARK   14  A    between atoms: C_25  and  N_26
REMARK   15  A    between atoms: C_29  and  C_30
REMARK                            x       y       z     vdW  Elec       q    Type
REMARK                         _______ _______ _______ _____ _____    ______ ____
ROOT
ATOM      1  C   UNL     1       1.734   8.415  19.766  0.00  0.00    +0.000 C 
ATOM      2  O   UNL     1       1.472   8.538  20.962  0.00  0.00    +0.000 OA
ATOM      3  N   UNL     1       1.402   9.378  18.842  0.00  0.00    +0.000 N 
ATOM      4  H   UNL     1       1.598   9.199  17.863  0.00  0.00    +0.000 HD
ENDROOT
BRANCH   1   8
ATOM      5  N   UNL     1       3.114   5.132  18.830  0.00  0.00    +0.000 N 
ATOM      6  C   UNL     1       3.863   5.920  17.958  0.00  0.00    +0.000 A 
ATOM      7  C   UNL     1       3.464   7.231  18.211  0.00  0.00    +0.000 A 
ATOM      8  C   UNL     1       2.455   7.259  19.214  0.00  0.00    +0.000 A 
ATOM      9  C   UNL     1       2.267   5.936  19.589  0.00  0.00    +0.000 A 
ATOM     10  C   UNL     1       1.343   5.387  20.631  0.00  0.00    +0.000 C 
BRANCH   6  11
ATOM     11  C   UNL     1       4.898   5.439  16.913  0.00  0.00    +0.000 C 
ATOM     12  C   UNL     1       4.365   4.246  16.097  0.00  0.00    +0.000 C 
ATOM     13  C   UNL     1       5.207   6.572  15.898  0.00  0.00    +0.000 C 
ATOM     14  C   UNL     1       6.253   5.070  17.542  0.00  0.00    +0.000 C 
ENDBRANCH   6  11
BRANCH   5  15
ATOM     15  C   UNL     1       3.141   3.678  18.969  0.00  0.00    +0.000 C 
BRANCH  15  17
ATOM     16  C   UNL     1       1.092   2.207  18.906  0.00  0.00    +0.000 C 
ATOM     17  C   UNL     1       2.110   2.977  18.082  0.00  0.00    +0.000 C 
ENDBRANCH  15  17
ENDBRANCH   5  15
ENDBRANCH   1   8
BRANCH   3  18
ATOM     18  C   UNL     1       0.663  10.595  19.176  0.00  0.00    +0.000 C 
BRANCH  18  19
ATOM     19  C   UNL     1      -0.748  10.607  18.584  0.00  0.00    +0.000 A 
ATOM     20  C   UNL     1      -1.052   9.786  17.481  0.00  0.00    +0.000 A 
ATOM     21  C   UNL     1      -2.300   9.826  16.853  0.00  0.00    +0.000 A 
ATOM     22  C   UNL     1      -3.285  10.702  17.298  0.00  0.00    +0.000 A 
ATOM     23  C   UNL     1      -3.039  11.504  18.407  0.00  0.00    +0.000 A 
ATOM     24  C   UNL     1      -1.791  11.436  19.053  0.00  0.00    +0.000 A 
BRANCH  24  25
ATOM     25  N   UNL     1      -1.644  12.264  20.246  0.00  0.00    +0.000 N 
ATOM     26  O   UNL     1      -1.663  11.694  21.344  0.00  0.00    +0.000 OA
ATOM     27  O   UNL     1      -1.462  13.475  20.075  0.00  0.00    +0.000 OA
ENDBRANCH  24  25
ENDBRANCH  18  19
BRANCH  18  28
ATOM     28  C   UNL     1       1.479  11.844  18.780  0.00  0.00    +0.000 C 
BRANCH  28  29
ATOM     29  C   UNL     1       1.933  12.672  19.956  0.00  0.00    +0.000 C 
ATOM     30  O   UNL     1       2.778  13.554  19.899  0.00  0.00    +0.000 OA
BRANCH  29  31
ATOM     31  O   UNL     1       1.363  12.298  21.124  0.00  0.00    +0.000 OA
ATOM     32  H   UNL     1       0.633  12.872  21.426  0.00  0.00    +0.000 HD
ENDBRANCH  29  31
ENDBRANCH  28  29
ENDBRANCH  18  28
ENDBRANCH   3  18
TORSDOF 10
ENDMDL
