MODEL 1
REMARK VINA RESULT:      -6.9      0.000      0.000
REMARK  Name = 
REMARK  13 active torsions:
REMARK  status: ('A' for Active; 'I' for Inactive)
REMARK    1  A    between atoms: C_1  and  C_2
REMARK    2  A    between atoms: C_2  and  C_3
REMARK    3  A    between atoms: C_3  and  N_4
REMARK    4  A    between atoms: N_4  and  C_5
REMARK    5  A    between atoms: N_4  and  C_6
REMARK    6  A    between atoms: C_6  and  C_7
REMARK    7  A    between atoms: C_11  and  C_12
REMARK    8  A    between atoms: C_13  and  C_14
REMARK    9  A    between atoms: N_26  and  C_27
REMARK   10  A    between atoms: C_27  and  C_28
REMARK   11  A    between atoms: C_27  and  C_29
REMARK   12  A    between atoms: C_29  and  O_30
REMARK   13  A    between atoms: C_32  and  C_33
REMARK                            x       y       z     vdW  Elec       q    Type
REMARK                         _______ _______ _______ _____ _____    ______ ____
ROOT
ATOM      1  C   UNL     1      -0.513  13.089  19.398  0.00  0.00    +0.000 C 
ATOM      2  O   UNL     1       0.717  12.380  19.548  0.00  0.00    +0.000 OA
ATOM      3  C   UNL     1       0.694  11.166  20.163  0.00  0.00    +0.000 A 
ATOM      4  C   UNL     1       1.500  10.233  19.499  0.00  0.00    +0.000 A 
ATOM      5  C   UNL     1       1.396   8.877  19.791  0.00  0.00    +0.000 A 
ATOM      6  C   UNL     1       0.537   8.443  20.795  0.00  0.00    +0.000 A 
ATOM      7  C   UNL     1      -0.185   9.378  21.539  0.00  0.00    +0.000 A 
ATOM      8  C   UNL     1      -0.114  10.747  21.224  0.00  0.00    +0.000 A 
ATOM      9  S   UNL     1      -0.897  11.886  22.322  0.00  0.00    +0.000 S 
ATOM     10  O   UNL     1      -1.232  11.139  23.521  0.00  0.00    +0.000 OA
ATOM     11  O   UNL     1      -0.035  13.040  22.458  0.00  0.00    +0.000 OA
ATOM     12  N   UNL     1      -2.386  12.377  21.654  0.00  0.00    +0.000 NA
ATOM     13  C   UNL     1      -2.810  12.389  20.218  0.00  0.00    +0.000 C 
ATOM     14  C   UNL     1      -1.791  12.265  19.073  0.00  0.00    +0.000 C 
ATOM     15  C   UNL     1      -1.713  10.824  18.549  0.00  0.00    +0.000 C 
ENDROOT
BRANCH   5  16
ATOM     16  C   UNL     1       2.133   7.936  19.012  0.00  0.00    +0.000 C 
ATOM     17  C   UNL     1       2.785   7.163  18.366  0.00  0.00    +0.000 C 
BRANCH  17  18
ATOM     18  C   UNL     1       3.579   6.223  17.639  0.00  0.00    +0.000 A 
ATOM     19  C   UNL     1       4.634   6.686  16.861  0.00  0.00    +0.000 A 
ATOM     20  C   UNL     1       5.379   5.757  16.157  0.00  0.00    +0.000 A 
ATOM     21  N   UNL     1       5.136   4.428  16.185  0.00  0.00    +0.000 NA
ATOM     22  C   UNL     1       4.103   4.010  16.949  0.00  0.00    +0.000 A 
ATOM     23  C   UNL     1       3.301   4.861  17.689  0.00  0.00    +0.000 A 
ENDBRANCH  17  18
ENDBRANCH   5  16
BRANCH  12  24
ATOM     24  C   UNL     1      -3.168  13.404  22.463  0.00  0.00    +0.000 C 
ATOM     25  C   UNL     1      -4.667  13.084  22.492  0.00  0.00    +0.000 C 
BRANCH  24  26
ATOM     26  C   UNL     1      -2.910  14.858  22.036  0.00  0.00    +0.000 C 
BRANCH  26  27
ATOM     27  O   UNL     1      -1.965  15.472  22.916  0.00  0.00    +0.000 OA
ATOM     28  H   UNL     1      -1.630  16.268  22.467  0.00  0.00    +0.000 HD
ENDBRANCH  26  27
ENDBRANCH  24  26
ENDBRANCH  12  24
BRANCH   1  29
ATOM     29  C   UNL     1      -0.299  14.244  18.368  0.00  0.00    +0.000 C 
BRANCH  29  30
ATOM     30  N   UNL     1       0.324  15.482  18.912  0.00  0.00    +0.000 NA
ATOM     31  C   UNL     1       0.247  15.543  20.375  0.00  0.00    +0.000 C 
BRANCH  30  32
ATOM     32  C   UNL     1      -0.302  16.666  18.292  0.00  0.00    +0.000 C 
BRANCH  32  34
ATOM     33  C   UNL     1       0.089  18.518  16.619  0.00  0.00    +0.000 C 
ATOM     34  C   UNL     1       0.709  17.670  17.717  0.00  0.00    +0.000 C 
ENDBRANCH  32  34
ENDBRANCH  30  32
ENDBRANCH  29  30
ENDBRANCH   1  29
TORSDOF 9
ENDMDL
MODEL 2
REMARK VINA RESULT:      -6.9      1.321      1.562
REMARK  Name = 
REMARK  13 active torsions:
REMARK  status: ('A' for Active; 'I' for Inactive)
REMARK    1  A    between atoms: C_1  and  C_2
REMARK    2  A    between atoms: C_2  and  C_3
REMARK    3  A    between atoms: C_3  and  N_4
REMARK    4  A    between atoms: N_4  and  C_5
REMARK    5  A    between atoms: N_4  and  C_6
REMARK    6  A    between atoms: C_6  and  C_7
REMARK    7  A    between atoms: C_11  and  C_12
REMARK    8  A    between atoms: C_13  and  C_14
REMARK    9  A    between atoms: N_26  and  C_27
REMARK   10  A    between atoms: C_27  and  C_28
REMARK   11  A    between atoms: C_27  and  C_29
REMARK   12  A    between atoms: C_29  and  O_30
REMARK   13  A    between atoms: C_32  and  C_33
REMARK                            x       y       z     vdW  Elec       q    Type
REMARK                         _______ _______ _______ _____ _____    ______ ____
ROOT
ATOM      1  C   UNL     1       0.052  13.121  19.899  0.00  0.00    +0.000 C 
ATOM      2  O   UNL     1       1.072  12.230  20.353  0.00  0.00    +0.000 OA
ATOM      3  C   UNL     1       0.696  11.060  20.939  0.00  0.00    +0.000 A 
ATOM      4  C   UNL     1       1.478   9.985  20.499  0.00  0.00    +0.000 A 
ATOM      5  C   UNL     1       1.083   8.676  20.751  0.00  0.00    +0.000 A 
ATOM      6  C   UNL     1      -0.060   8.424  21.504  0.00  0.00    +0.000 A 
ATOM      7  C   UNL     1      -0.781   9.491  22.043  0.00  0.00    +0.000 A 
ATOM      8  C   UNL     1      -0.409  10.818  21.760  0.00  0.00    +0.000 A 
ATOM      9  S   UNL     1      -1.244  12.109  22.627  0.00  0.00    +0.000 S 
ATOM     10  O   UNL     1      -1.986  11.473  23.701  0.00  0.00    +0.000 OA
ATOM     11  O   UNL     1      -0.266  13.115  22.980  0.00  0.00    +0.000 OA
ATOM     12  N   UNL     1      -2.416  12.805  21.606  0.00  0.00    +0.000 NA
ATOM     13  C   UNL     1      -2.459  12.829  20.109  0.00  0.00    +0.000 C 
ATOM     14  C   UNL     1      -1.222  12.499  19.259  0.00  0.00    +0.000 C 
ATOM     15  C   UNL     1      -1.253  11.045  18.768  0.00  0.00    +0.000 C 
ENDROOT
BRANCH   5  16
ATOM     16  C   UNL     1       1.826   7.600  20.181  0.00  0.00    +0.000 C 
ATOM     17  C   UNL     1       2.422   6.686  19.681  0.00  0.00    +0.000 C 
BRANCH  17  18
ATOM     18  C   UNL     1       3.134   5.625  19.042  0.00  0.00    +0.000 A 
ATOM     19  C   UNL     1       2.519   4.919  18.014  0.00  0.00    +0.000 A 
ATOM     20  C   UNL     1       3.225   3.887  17.422  0.00  0.00    +0.000 A 
ATOM     21  N   UNL     1       4.476   3.530  17.788  0.00  0.00    +0.000 NA
ATOM     22  C   UNL     1       5.045   4.234  18.791  0.00  0.00    +0.000 A 
ATOM     23  C   UNL     1       4.421   5.281  19.445  0.00  0.00    +0.000 A 
ENDBRANCH  17  18
ENDBRANCH   5  16
BRANCH  12  24
ATOM     24  C   UNL     1      -3.196  13.975  22.192  0.00  0.00    +0.000 C 
ATOM     25  C   UNL     1      -4.710  13.735  22.140  0.00  0.00    +0.000 C 
BRANCH  24  26
ATOM     26  C   UNL     1      -2.820  15.337  21.589  0.00  0.00    +0.000 C 
BRANCH  26  27
ATOM     27  O   UNL     1      -1.456  15.650  21.884  0.00  0.00    +0.000 OA
ATOM     28  H   UNL     1      -1.339  15.551  22.845  0.00  0.00    +0.000 HD
ENDBRANCH  26  27
ENDBRANCH  24  26
ENDBRANCH  12  24
BRANCH   1  29
ATOM     29  C   UNL     1       0.704  14.185  18.960  0.00  0.00    +0.000 C 
BRANCH  29  30
ATOM     30  N   UNL     1       0.518  15.603  19.370  0.00  0.00    +0.000 NA
ATOM     31  C   UNL     1      -0.454  16.302  18.521  0.00  0.00    +0.000 C 
BRANCH  30  32
ATOM     32  C   UNL     1       1.821  16.295  19.373  0.00  0.00    +0.000 C 
BRANCH  32  34
ATOM     33  C   UNL     1       3.361  16.150  17.376  0.00  0.00    +0.000 C 
ATOM     34  C   UNL     1       2.203  16.899  18.013  0.00  0.00    +0.000 C 
ENDBRANCH  32  34
ENDBRANCH  30  32
ENDBRANCH  29  30
ENDBRANCH   1  29
TORSDOF 9
ENDMDL
MODEL 3
REMARK VINA RESULT:      -6.8      7.800      9.813
REMARK  Name = 
REMARK  13 active torsions:
REMARK  status: ('A' for Active; 'I' for Inactive)
REMARK    1  A    between atoms: C_1  and  C_2
REMARK    2  A    between atoms: C_2  and  C_3
REMARK    3  A    between atoms: C_3  and  N_4
REMARK    4  A    between atoms: N_4  and  C_5
REMARK    5  A    between atoms: N_4  and  C_6
REMARK    6  A    between atoms: C_6  and  C_7
REMARK    7  A    between atoms: C_11  and  C_12
REMARK    8  A    between atoms: C_13  and  C_14
REMARK    9  A    between atoms: N_26  and  C_27
REMARK   10  A    between atoms: C_27  and  C_28
REMARK   11  A    between atoms: C_27  and  C_29
REMARK   12  A    between atoms: C_29  and  O_30
REMARK   13  A    between atoms: C_32  and  C_33
REMARK                            x       y       z     vdW  Elec       q    Type
REMARK                         _______ _______ _______ _____ _____    ______ ____
ROOT
ATOM      1  C   UNL     1       8.244  15.004  19.818  0.00  0.00    +0.000 C 
ATOM      2  O   UNL     1       7.891  14.127  18.748  0.00  0.00    +0.000 OA
ATOM      3  C   UNL     1       8.806  13.207  18.335  0.00  0.00    +0.000 A 
ATOM      4  C   UNL     1       8.217  11.959  18.101  0.00  0.00    +0.000 A 
ATOM      5  C   UNL     1       9.006  10.824  17.951  0.00  0.00    +0.000 A 
ATOM      6  C   UNL     1      10.393  10.931  17.964  0.00  0.00    +0.000 A 
ATOM      7  C   UNL     1      10.988  12.189  18.083  0.00  0.00    +0.000 A 
ATOM      8  C   UNL     1      10.197  13.336  18.273  0.00  0.00    +0.000 A 
ATOM      9  S   UNL     1      10.999  14.907  18.222  0.00  0.00    +0.000 S 
ATOM     10  O   UNL     1      12.332  14.673  17.696  0.00  0.00    +0.000 OA
ATOM     11  O   UNL     1      10.139  15.825  17.508  0.00  0.00    +0.000 OA
ATOM     12  N   UNL     1      11.225  15.476  19.813  0.00  0.00    +0.000 NA
ATOM     13  C   UNL     1      10.459  15.124  21.050  0.00  0.00    +0.000 C 
ATOM     14  C   UNL     1       9.093  14.422  20.984  0.00  0.00    +0.000 C 
ATOM     15  C   UNL     1       9.231  12.909  21.206  0.00  0.00    +0.000 C 
ENDROOT
BRANCH   5  16
ATOM     16  C   UNL     1       8.380   9.547  17.842  0.00  0.00    +0.000 C 
ATOM     17  C   UNL     1       7.886   8.457  17.758  0.00  0.00    +0.000 C 
BRANCH  17  18
ATOM     18  C   UNL     1       7.305   7.152  17.706  0.00  0.00    +0.000 A 
ATOM     19  C   UNL     1       7.839   6.140  18.497  0.00  0.00    +0.000 A 
ATOM     20  C   UNL     1       7.266   4.884  18.419  0.00  0.00    +0.000 A 
ATOM     21  N   UNL     1       6.219   4.588  17.617  0.00  0.00    +0.000 NA
ATOM     22  C   UNL     1       5.724   5.593  16.861  0.00  0.00    +0.000 A 
ATOM     23  C   UNL     1       6.227   6.881  16.869  0.00  0.00    +0.000 A 
ENDBRANCH  17  18
ENDBRANCH   5  16
BRANCH  12  24
ATOM     24  C   UNL     1      11.865  16.851  19.940  0.00  0.00    +0.000 C 
ATOM     25  C   UNL     1      12.330  17.133  21.374  0.00  0.00    +0.000 C 
BRANCH  24  26
ATOM     26  C   UNL     1      10.996  17.994  19.394  0.00  0.00    +0.000 C 
BRANCH  26  27
ATOM     27  O   UNL     1      11.499  18.442  18.133  0.00  0.00    +0.000 OA
ATOM     28  H   UNL     1      12.229  17.845  17.887  0.00  0.00    +0.000 HD
ENDBRANCH  26  27
ENDBRANCH  24  26
ENDBRANCH  12  24
BRANCH   1  29
ATOM     29  C   UNL     1       6.946  15.695  20.344  0.00  0.00    +0.000 C 
BRANCH  29  30
ATOM     30  N   UNL     1       5.785  15.672  19.412  0.00  0.00    +0.000 NA
ATOM     31  C   UNL     1       5.470  17.006  18.889  0.00  0.00    +0.000 C 
BRANCH  30  32
ATOM     32  C   UNL     1       4.618  15.073  20.088  0.00  0.00    +0.000 C 
BRANCH  32  34
ATOM     33  C   UNL     1       3.081  14.005  18.391  0.00  0.00    +0.000 C 
ATOM     34  C   UNL     1       3.308  15.205  19.294  0.00  0.00    +0.000 C 
ENDBRANCH  32  34
ENDBRANCH  30  32
ENDBRANCH  29  30
ENDBRANCH   1  29
TORSDOF 9
ENDMDL
MODEL 4
REMARK VINA RESULT:      -6.7      1.038      1.659
REMARK  Name = 
REMARK  13 active torsions:
REMARK  status: ('A' for Active; 'I' for Inactive)
REMARK    1  A    between atoms: C_1  and  C_2
REMARK    2  A    between atoms: C_2  and  C_3
REMARK    3  A    between atoms: C_3  and  N_4
REMARK    4  A    between atoms: N_4  and  C_5
REMARK    5  A    between atoms: N_4  and  C_6
REMARK    6  A    between atoms: C_6  and  C_7
REMARK    7  A    between atoms: C_11  and  C_12
REMARK    8  A    between atoms: C_13  and  C_14
REMARK    9  A    between atoms: N_26  and  C_27
REMARK   10  A    between atoms: C_27  and  C_28
REMARK   11  A    between atoms: C_27  and  C_29
REMARK   12  A    between atoms: C_29  and  O_30
REMARK   13  A    between atoms: C_32  and  C_33
REMARK                            x       y       z     vdW  Elec       q    Type
REMARK                         _______ _______ _______ _____ _____    ______ ____
ROOT
ATOM      1  C   UNL     1      -0.437  12.943  19.330  0.00  0.00    +0.000 C 
ATOM      2  O   UNL     1       0.786  12.232  19.521  0.00  0.00    +0.000 OA
ATOM      3  C   UNL     1       0.748  11.044  20.187  0.00  0.00    +0.000 A 
ATOM      4  C   UNL     1       1.553  10.078  19.571  0.00  0.00    +0.000 A 
ATOM      5  C   UNL     1       1.436   8.737  19.918  0.00  0.00    +0.000 A 
ATOM      6  C   UNL     1       0.565   8.352  20.931  0.00  0.00    +0.000 A 
ATOM      7  C   UNL     1      -0.158   9.323  21.629  0.00  0.00    +0.000 A 
ATOM      8  C   UNL     1      -0.073  10.677  21.257  0.00  0.00    +0.000 A 
ATOM      9  S   UNL     1      -0.857  11.867  22.298  0.00  0.00    +0.000 S 
ATOM     10  O   UNL     1      -1.208  11.174  23.525  0.00  0.00    +0.000 OA
ATOM     11  O   UNL     1       0.012  13.019  22.394  0.00  0.00    +0.000 OA
ATOM     12  N   UNL     1      -2.336  12.340  21.596  0.00  0.00    +0.000 NA
ATOM     13  C   UNL     1      -2.746  12.294  20.157  0.00  0.00    +0.000 C 
ATOM     14  C   UNL     1      -1.719  12.115  19.028  0.00  0.00    +0.000 C 
ATOM     15  C   UNL     1      -1.647  10.653  18.566  0.00  0.00    +0.000 C 
ENDROOT
BRANCH   5  16
ATOM     16  C   UNL     1       2.173   7.759  19.186  0.00  0.00    +0.000 C 
ATOM     17  C   UNL     1       2.765   6.934  18.547  0.00  0.00    +0.000 C 
BRANCH  17  18
ATOM     18  C   UNL     1       3.477   5.987  17.749  0.00  0.00    +0.000 A 
ATOM     19  C   UNL     1       3.112   4.645  17.802  0.00  0.00    +0.000 A 
ATOM     20  C   UNL     1       3.825   3.747  17.030  0.00  0.00    +0.000 A 
ATOM     21  N   UNL     1       4.855   4.101  16.230  0.00  0.00    +0.000 NA
ATOM     22  C   UNL     1       5.186   5.411  16.202  0.00  0.00    +0.000 A 
ATOM     23  C   UNL     1       4.534   6.384  16.936  0.00  0.00    +0.000 A 
ENDBRANCH  17  18
ENDBRANCH   5  16
BRANCH  12  24
ATOM     24  C   UNL     1      -3.117  13.406  22.353  0.00  0.00    +0.000 C 
ATOM     25  C   UNL     1      -2.217  14.205  23.304  0.00  0.00    +0.000 C 
BRANCH  24  26
ATOM     26  C   UNL     1      -4.363  12.868  23.075  0.00  0.00    +0.000 C 
BRANCH  26  27
ATOM     27  O   UNL     1      -3.982  11.951  24.104  0.00  0.00    +0.000 OA
ATOM     28  H   UNL     1      -4.299  11.070  23.836  0.00  0.00    +0.000 HD
ENDBRANCH  26  27
ENDBRANCH  24  26
ENDBRANCH  12  24
BRANCH   1  29
ATOM     29  C   UNL     1      -0.205  14.051  18.254  0.00  0.00    +0.000 C 
BRANCH  29  30
ATOM     30  N   UNL     1       0.069  15.414  18.786  0.00  0.00    +0.000 NA
ATOM     31  C   UNL     1       1.502  15.730  18.786  0.00  0.00    +0.000 C 
BRANCH  30  32
ATOM     32  C   UNL     1      -0.508  15.545  20.138  0.00  0.00    +0.000 C 
BRANCH  32  34
ATOM     33  C   UNL     1      -1.774  17.538  19.239  0.00  0.00    +0.000 C 
ATOM     34  C   UNL     1      -1.821  16.342  20.175  0.00  0.00    +0.000 C 
ENDBRANCH  32  34
ENDBRANCH  30  32
ENDBRANCH  29  30
ENDBRANCH   1  29
TORSDOF 9
ENDMDL
MODEL 5
REMARK VINA RESULT:      -6.7      0.706      1.314
REMARK  Name = 
REMARK  13 active torsions:
REMARK  status: ('A' for Active; 'I' for Inactive)
REMARK    1  A    between atoms: C_1  and  C_2
REMARK    2  A    between atoms: C_2  and  C_3
REMARK    3  A    between atoms: C_3  and  N_4
REMARK    4  A    between atoms: N_4  and  C_5
REMARK    5  A    between atoms: N_4  and  C_6
REMARK    6  A    between atoms: C_6  and  C_7
REMARK    7  A    between atoms: C_11  and  C_12
REMARK    8  A    between atoms: C_13  and  C_14
REMARK    9  A    between atoms: N_26  and  C_27
REMARK   10  A    between atoms: C_27  and  C_28
REMARK   11  A    between atoms: C_27  and  C_29
REMARK   12  A    between atoms: C_29  and  O_30
REMARK   13  A    between atoms: C_32  and  C_33
REMARK                            x       y       z     vdW  Elec       q    Type
REMARK                         _______ _______ _______ _____ _____    ______ ____
ROOT
ATOM      1  C   UNL     1      -0.395  13.016  19.376  0.00  0.00    +0.000 C 
ATOM      2  O   UNL     1       0.821  12.287  19.547  0.00  0.00    +0.000 OA
ATOM      3  C   UNL     1       0.767  11.070  20.155  0.00  0.00    +0.000 A 
ATOM      4  C   UNL     1       1.572  10.128  19.502  0.00  0.00    +0.000 A 
ATOM      5  C   UNL     1       1.441   8.773  19.784  0.00  0.00    +0.000 A 
ATOM      6  C   UNL     1       0.556   8.347  20.769  0.00  0.00    +0.000 A 
ATOM      7  C   UNL     1      -0.167   9.290  21.504  0.00  0.00    +0.000 A 
ATOM      8  C   UNL     1      -0.068  10.659  21.198  0.00  0.00    +0.000 A 
ATOM      9  S   UNL     1      -0.855  11.804  22.286  0.00  0.00    +0.000 S 
ATOM     10  O   UNL     1      -1.225  11.057  23.474  0.00  0.00    +0.000 OA
ATOM     11  O   UNL     1       0.022  12.944  22.445  0.00  0.00    +0.000 OA
ATOM     12  N   UNL     1      -2.323  12.322  21.592  0.00  0.00    +0.000 NA
ATOM     13  C   UNL     1      -2.718  12.347  20.147  0.00  0.00    +0.000 C 
ATOM     14  C   UNL     1      -1.679  12.214  19.022  0.00  0.00    +0.000 C 
ATOM     15  C   UNL     1      -1.612  10.774  18.492  0.00  0.00    +0.000 C 
ENDROOT
BRANCH   5  16
ATOM     16  C   UNL     1       2.179   7.824  19.015  0.00  0.00    +0.000 C 
ATOM     17  C   UNL     1       2.813   7.055  18.348  0.00  0.00    +0.000 C 
BRANCH  17  18
ATOM     18  C   UNL     1       3.611   6.156  17.576  0.00  0.00    +0.000 A 
ATOM     19  C   UNL     1       4.631   6.667  16.781  0.00  0.00    +0.000 A 
ATOM     20  C   UNL     1       5.379   5.776  16.032  0.00  0.00    +0.000 A 
ATOM     21  N   UNL     1       5.172   4.440  16.032  0.00  0.00    +0.000 NA
ATOM     22  C   UNL     1       4.172   3.976  16.813  0.00  0.00    +0.000 A 
ATOM     23  C   UNL     1       3.370   4.785  17.597  0.00  0.00    +0.000 A 
ENDBRANCH  17  18
ENDBRANCH   5  16
BRANCH  12  24
ATOM     24  C   UNL     1      -3.104  13.357  22.390  0.00  0.00    +0.000 C 
ATOM     25  C   UNL     1      -4.572  12.950  22.567  0.00  0.00    +0.000 C 
BRANCH  24  26
ATOM     26  C   UNL     1      -2.978  14.788  21.844  0.00  0.00    +0.000 C 
BRANCH  26  27
ATOM     27  O   UNL     1      -2.010  15.522  22.598  0.00  0.00    +0.000 OA
ATOM     28  H   UNL     1      -1.259  14.925  22.761  0.00  0.00    +0.000 HD
ENDBRANCH  26  27
ENDBRANCH  24  26
ENDBRANCH  12  24
BRANCH   1  29
ATOM     29  C   UNL     1      -0.143  14.172  18.357  0.00  0.00    +0.000 C 
BRANCH  29  30
ATOM     30  N   UNL     1       0.348  15.449  18.943  0.00  0.00    +0.000 NA
ATOM     31  C   UNL     1      -0.473  16.595  18.538  0.00  0.00    +0.000 C 
BRANCH  30  32
ATOM     32  C   UNL     1       1.764  15.651  18.581  0.00  0.00    +0.000 C 
BRANCH  32  34
ATOM     33  C   UNL     1       2.057  15.556  21.088  0.00  0.00    +0.000 C 
ATOM     34  C   UNL     1       2.741  15.400  19.740  0.00  0.00    +0.000 C 
ENDBRANCH  32  34
ENDBRANCH  30  32
ENDBRANCH  29  30
ENDBRANCH   1  29
TORSDOF 9
ENDMDL
MODEL 6
REMARK VINA RESULT:      -6.7      0.682      1.066
REMARK  Name = 
REMARK  13 active torsions:
REMARK  status: ('A' for Active; 'I' for Inactive)
REMARK    1  A    between atoms: C_1  and  C_2
REMARK    2  A    between atoms: C_2  and  C_3
REMARK    3  A    between atoms: C_3  and  N_4
REMARK    4  A    between atoms: N_4  and  C_5
REMARK    5  A    between atoms: N_4  and  C_6
REMARK    6  A    between atoms: C_6  and  C_7
REMARK    7  A    between atoms: C_11  and  C_12
REMARK    8  A    between atoms: C_13  and  C_14
REMARK    9  A    between atoms: N_26  and  C_27
REMARK   10  A    between atoms: C_27  and  C_28
REMARK   11  A    between atoms: C_27  and  C_29
REMARK   12  A    between atoms: C_29  and  O_30
REMARK   13  A    between atoms: C_32  and  C_33
REMARK                            x       y       z     vdW  Elec       q    Type
REMARK                         _______ _______ _______ _____ _____    ______ ____
ROOT
ATOM      1  C   UNL     1      -0.528  13.209  19.560  0.00  0.00    +0.000 C 
ATOM      2  O   UNL     1       0.679  12.476  19.775  0.00  0.00    +0.000 OA
ATOM      3  C   UNL     1       0.599  11.264  20.391  0.00  0.00    +0.000 A 
ATOM      4  C   UNL     1       1.419  10.313  19.772  0.00  0.00    +0.000 A 
ATOM      5  C   UNL     1       1.273   8.961  20.061  0.00  0.00    +0.000 A 
ATOM      6  C   UNL     1       0.355   8.547  21.021  0.00  0.00    +0.000 A 
ATOM      7  C   UNL     1      -0.386   9.500  21.725  0.00  0.00    +0.000 A 
ATOM      8  C   UNL     1      -0.271  10.866  21.410  0.00  0.00    +0.000 A 
ATOM      9  S   UNL     1      -1.086  12.024  22.464  0.00  0.00    +0.000 S 
ATOM     10  O   UNL     1      -1.497  11.288  23.646  0.00  0.00    +0.000 OA
ATOM     11  O   UNL     1      -0.209  13.161  22.641  0.00  0.00    +0.000 OA
ATOM     12  N   UNL     1      -2.528  12.543  21.719  0.00  0.00    +0.000 NA
ATOM     13  C   UNL     1      -2.877  12.558  20.263  0.00  0.00    +0.000 C 
ATOM     14  C   UNL     1      -1.804  12.410  19.172  0.00  0.00    +0.000 C 
ATOM     15  C   UNL     1      -1.728  10.966  18.657  0.00  0.00    +0.000 C 
ENDROOT
BRANCH   5  16
ATOM     16  C   UNL     1       2.030   8.002  19.324  0.00  0.00    +0.000 C 
ATOM     17  C   UNL     1       2.640   7.196  18.677  0.00  0.00    +0.000 C 
BRANCH  17  18
ATOM     18  C   UNL     1       3.375   6.272  17.874  0.00  0.00    +0.000 A 
ATOM     19  C   UNL     1       3.021   4.927  17.892  0.00  0.00    +0.000 A 
ATOM     20  C   UNL     1       3.757   4.051  17.115  0.00  0.00    +0.000 A 
ATOM     21  N   UNL     1       4.799   4.430  16.342  0.00  0.00    +0.000 NA
ATOM     22  C   UNL     1       5.119   5.743  16.348  0.00  0.00    +0.000 A 
ATOM     23  C   UNL     1       4.444   6.695  17.090  0.00  0.00    +0.000 A 
ENDBRANCH  17  18
ENDBRANCH   5  16
BRANCH  12  24
ATOM     24  C   UNL     1      -3.329  13.588  22.484  0.00  0.00    +0.000 C 
ATOM     25  C   UNL     1      -4.401  12.946  23.373  0.00  0.00    +0.000 C 
BRANCH  24  26
ATOM     26  C   UNL     1      -3.923  14.690  21.592  0.00  0.00    +0.000 C 
BRANCH  26  27
ATOM     27  O   UNL     1      -5.017  15.328  22.255  0.00  0.00    +0.000 OA
ATOM     28  H   UNL     1      -4.998  15.040  23.185  0.00  0.00    +0.000 HD
ENDBRANCH  26  27
ENDBRANCH  24  26
ENDBRANCH  12  24
BRANCH   1  29
ATOM     29  C   UNL     1      -0.237  14.355  18.540  0.00  0.00    +0.000 C 
BRANCH  29  30
ATOM     30  N   UNL     1      -0.029  15.705  19.133  0.00  0.00    +0.000 NA
ATOM     31  C   UNL     1      -0.735  15.863  20.409  0.00  0.00    +0.000 C 
BRANCH  30  32
ATOM     32  C   UNL     1      -0.437  16.741  18.164  0.00  0.00    +0.000 C 
BRANCH  32  34
ATOM     33  C   UNL     1       0.297  18.580  16.594  0.00  0.00    +0.000 C 
ATOM     34  C   UNL     1       0.703  17.688  17.755  0.00  0.00    +0.000 C 
ENDBRANCH  32  34
ENDBRANCH  30  32
ENDBRANCH  29  30
ENDBRANCH   1  29
TORSDOF 9
ENDMDL
MODEL 7
REMARK VINA RESULT:      -6.6      1.100      1.743
REMARK  Name = 
REMARK  13 active torsions:
REMARK  status: ('A' for Active; 'I' for Inactive)
REMARK    1  A    between atoms: C_1  and  C_2
REMARK    2  A    between atoms: C_2  and  C_3
REMARK    3  A    between atoms: C_3  and  N_4
REMARK    4  A    between atoms: N_4  and  C_5
REMARK    5  A    between atoms: N_4  and  C_6
REMARK    6  A    between atoms: C_6  and  C_7
REMARK    7  A    between atoms: C_11  and  C_12
REMARK    8  A    between atoms: C_13  and  C_14
REMARK    9  A    between atoms: N_26  and  C_27
REMARK   10  A    between atoms: C_27  and  C_28
REMARK   11  A    between atoms: C_27  and  C_29
REMARK   12  A    between atoms: C_29  and  O_30
REMARK   13  A    between atoms: C_32  and  C_33
REMARK                            x       y       z     vdW  Elec       q    Type
REMARK                         _______ _______ _______ _____ _____    ______ ____
ROOT
ATOM      1  C   UNL     1      -0.469  12.880  19.259  0.00  0.00    +0.000 C 
ATOM      2  O   UNL     1       0.766  12.186  19.443  0.00  0.00    +0.000 OA
ATOM      3  C   UNL     1       0.752  11.009  20.127  0.00  0.00    +0.000 A 
ATOM      4  C   UNL     1       1.560  10.043  19.514  0.00  0.00    +0.000 A 
ATOM      5  C   UNL     1       1.465   8.707  19.883  0.00  0.00    +0.000 A 
ATOM      6  C   UNL     1       0.613   8.327  20.916  0.00  0.00    +0.000 A 
ATOM      7  C   UNL     1      -0.110   9.300  21.609  0.00  0.00    +0.000 A 
ATOM      8  C   UNL     1      -0.047  10.649  21.215  0.00  0.00    +0.000 A 
ATOM      9  S   UNL     1      -0.830  11.845  22.250  0.00  0.00    +0.000 S 
ATOM     10  O   UNL     1      -1.154  11.168  23.492  0.00  0.00    +0.000 OA
ATOM     11  O   UNL     1       0.027  13.009  22.314  0.00  0.00    +0.000 OA
ATOM     12  N   UNL     1      -2.325  12.290  21.564  0.00  0.00    +0.000 NA
ATOM     13  C   UNL     1      -2.757  12.217  20.131  0.00  0.00    +0.000 C 
ATOM     14  C   UNL     1      -1.744  12.032  18.990  0.00  0.00    +0.000 C 
ATOM     15  C   UNL     1      -1.661  10.564  18.550  0.00  0.00    +0.000 C 
ENDROOT
BRANCH   5  16
ATOM     16  C   UNL     1       2.202   7.726  19.156  0.00  0.00    +0.000 C 
ATOM     17  C   UNL     1       2.799   6.905  18.516  0.00  0.00    +0.000 C 
BRANCH  17  18
ATOM     18  C   UNL     1       3.525   5.964  17.723  0.00  0.00    +0.000 A 
ATOM     19  C   UNL     1       3.164   4.621  17.766  0.00  0.00    +0.000 A 
ATOM     20  C   UNL     1       3.891   3.728  16.999  0.00  0.00    +0.000 A 
ATOM     21  N   UNL     1       4.930   4.090  16.214  0.00  0.00    +0.000 NA
ATOM     22  C   UNL     1       5.256   5.402  16.196  0.00  0.00    +0.000 A 
ATOM     23  C   UNL     1       4.590   6.369  16.926  0.00  0.00    +0.000 A 
ENDBRANCH  17  18
ENDBRANCH   5  16
BRANCH  12  24
ATOM     24  C   UNL     1      -3.108  13.358  22.316  0.00  0.00    +0.000 C 
ATOM     25  C   UNL     1      -3.949  12.757  23.448  0.00  0.00    +0.000 C 
BRANCH  24  26
ATOM     26  C   UNL     1      -3.952  14.265  21.407  0.00  0.00    +0.000 C 
BRANCH  26  27
ATOM     27  O   UNL     1      -5.342  14.100  21.695  0.00  0.00    +0.000 OA
ATOM     28  H   UNL     1      -5.619  13.253  21.303  0.00  0.00    +0.000 HD
ENDBRANCH  26  27
ENDBRANCH  24  26
ENDBRANCH  12  24
BRANCH   1  29
ATOM     29  C   UNL     1      -0.266  13.973  18.163  0.00  0.00    +0.000 C 
BRANCH  29  30
ATOM     30  N   UNL     1      -0.114  15.366  18.666  0.00  0.00    +0.000 NA
ATOM     31  C   UNL     1       1.293  15.736  18.853  0.00  0.00    +0.000 C 
BRANCH  30  32
ATOM     32  C   UNL     1      -0.881  15.529  19.917  0.00  0.00    +0.000 C 
BRANCH  32  34
ATOM     33  C   UNL     1      -0.978  16.483  22.254  0.00  0.00    +0.000 C 
ATOM     34  C   UNL     1      -0.124  16.298  21.011  0.00  0.00    +0.000 C 
ENDBRANCH  32  34
ENDBRANCH  30  32
ENDBRANCH  29  30
ENDBRANCH   1  29
TORSDOF 9
ENDMDL
MODEL 8
REMARK VINA RESULT:      -6.6      1.063      1.203
REMARK  Name = 
REMARK  13 active torsions:
REMARK  status: ('A' for Active; 'I' for Inactive)
REMARK    1  A    between atoms: C_1  and  C_2
REMARK    2  A    between atoms: C_2  and  C_3
REMARK    3  A    between atoms: C_3  and  N_4
REMARK    4  A    between atoms: N_4  and  C_5
REMARK    5  A    between atoms: N_4  and  C_6
REMARK    6  A    between atoms: C_6  and  C_7
REMARK    7  A    between atoms: C_11  and  C_12
REMARK    8  A    between atoms: C_13  and  C_14
REMARK    9  A    between atoms: N_26  and  C_27
REMARK   10  A    between atoms: C_27  and  C_28
REMARK   11  A    between atoms: C_27  and  C_29
REMARK   12  A    between atoms: C_29  and  O_30
REMARK   13  A    between atoms: C_32  and  C_33
REMARK                            x       y       z     vdW  Elec       q    Type
REMARK                         _______ _______ _______ _____ _____    ______ ____
ROOT
ATOM      1  C   UNL     1      -0.204  13.086  19.797  0.00  0.00    +0.000 C 
ATOM      2  O   UNL     1       0.887  12.254  20.194  0.00  0.00    +0.000 OA
ATOM      3  C   UNL     1       0.610  11.067  20.800  0.00  0.00    +0.000 A 
ATOM      4  C   UNL     1       1.423  10.035  20.316  0.00  0.00    +0.000 A 
ATOM      5  C   UNL     1       1.115   8.707  20.590  0.00  0.00    +0.000 A 
ATOM      6  C   UNL     1       0.033   8.395  21.406  0.00  0.00    +0.000 A 
ATOM      7  C   UNL     1      -0.715   9.424  21.985  0.00  0.00    +0.000 A 
ATOM      8  C   UNL     1      -0.432  10.768  21.682  0.00  0.00    +0.000 A 
ATOM      9  S   UNL     1      -1.286  12.014  22.594  0.00  0.00    +0.000 S 
ATOM     10  O   UNL     1      -1.930  11.342  23.708  0.00  0.00    +0.000 OA
ATOM     11  O   UNL     1      -0.346  13.073  22.892  0.00  0.00    +0.000 OA
ATOM     12  N   UNL     1      -2.551  12.642  21.641  0.00  0.00    +0.000 NA
ATOM     13  C   UNL     1      -2.679  12.658  20.149  0.00  0.00    +0.000 C 
ATOM     14  C   UNL     1      -1.475  12.394  19.230  0.00  0.00    +0.000 C 
ATOM     15  C   UNL     1      -1.455  10.939  18.742  0.00  0.00    +0.000 C 
ENDROOT
BRANCH   5  16
ATOM     16  C   UNL     1       1.883   7.671  19.980  0.00  0.00    +0.000 C 
ATOM     17  C   UNL     1       2.523   6.779  19.496  0.00  0.00    +0.000 C 
BRANCH  17  18
ATOM     18  C   UNL     1       3.243   5.690  18.916  0.00  0.00    +0.000 A 
ATOM     19  C   UNL     1       2.672   4.985  17.861  0.00  0.00    +0.000 A 
ATOM     20  C   UNL     1       3.384   3.928  17.325  0.00  0.00    +0.000 A 
ATOM     21  N   UNL     1       4.601   3.543  17.771  0.00  0.00    +0.000 NA
ATOM     22  C   UNL     1       5.127   4.247  18.798  0.00  0.00    +0.000 A 
ATOM     23  C   UNL     1       4.494   5.319  19.399  0.00  0.00    +0.000 A 
ENDBRANCH  17  18
ENDBRANCH   5  16
BRANCH  12  24
ATOM     24  C   UNL     1      -3.359  13.769  22.271  0.00  0.00    +0.000 C 
ATOM     25  C   UNL     1      -4.774  13.314  22.647  0.00  0.00    +0.000 C 
BRANCH  24  26
ATOM     26  C   UNL     1      -3.384  15.058  21.434  0.00  0.00    +0.000 C 
BRANCH  26  27
ATOM     27  O   UNL     1      -2.973  16.173  22.229  0.00  0.00    +0.000 OA
ATOM     28  H   UNL     1      -2.982  15.882  23.158  0.00  0.00    +0.000 HD
ENDBRANCH  26  27
ENDBRANCH  24  26
ENDBRANCH  12  24
BRANCH   1  29
ATOM     29  C   UNL     1       0.335  14.181  18.823  0.00  0.00    +0.000 C 
BRANCH  29  30
ATOM     30  N   UNL     1       0.937  15.378  19.472  0.00  0.00    +0.000 NA
ATOM     31  C   UNL     1       0.235  15.751  20.705  0.00  0.00    +0.000 C 
BRANCH  30  32
ATOM     32  C   UNL     1       0.969  16.500  18.514  0.00  0.00    +0.000 C 
BRANCH  32  34
ATOM     33  C   UNL     1      -0.335  18.160  17.125  0.00  0.00    +0.000 C 
ATOM     34  C   UNL     1      -0.423  17.039  18.147  0.00  0.00    +0.000 C 
ENDBRANCH  32  34
ENDBRANCH  30  32
ENDBRANCH  29  30
ENDBRANCH   1  29
TORSDOF 9
ENDMDL
MODEL 9
REMARK VINA RESULT:      -6.6      1.683      2.024
REMARK  Name = 
REMARK  13 active torsions:
REMARK  status: ('A' for Active; 'I' for Inactive)
REMARK    1  A    between atoms: C_1  and  C_2
REMARK    2  A    between atoms: C_2  and  C_3
REMARK    3  A    between atoms: C_3  and  N_4
REMARK    4  A    between atoms: N_4  and  C_5
REMARK    5  A    between atoms: N_4  and  C_6
REMARK    6  A    between atoms: C_6  and  C_7
REMARK    7  A    between atoms: C_11  and  C_12
REMARK    8  A    between atoms: C_13  and  C_14
REMARK    9  A    between atoms: N_26  and  C_27
REMARK   10  A    between atoms: C_27  and  C_28
REMARK   11  A    between atoms: C_27  and  C_29
REMARK   12  A    between atoms: C_29  and  O_30
REMARK   13  A    between atoms: C_32  and  C_33
REMARK                            x       y       z     vdW  Elec       q    Type
REMARK                         _______ _______ _______ _____ _____    ______ ____
ROOT
ATOM      1  C   UNL     1       0.039  13.072  19.616  0.00  0.00    +0.000 C 
ATOM      2  O   UNL     1       1.018  12.183  20.154  0.00  0.00    +0.000 OA
ATOM      3  C   UNL     1       0.611  11.228  21.035  0.00  0.00    +0.000 A 
ATOM      4  C   UNL     1       1.217   9.992  20.778  0.00  0.00    +0.000 A 
ATOM      5  C   UNL     1       0.733   8.832  21.371  0.00  0.00    +0.000 A 
ATOM      6  C   UNL     1      -0.318   8.899  22.281  0.00  0.00    +0.000 A 
ATOM      7  C   UNL     1      -0.853  10.141  22.629  0.00  0.00    +0.000 A 
ATOM      8  C   UNL     1      -0.393  11.315  22.004  0.00  0.00    +0.000 A 
ATOM      9  S   UNL     1      -0.973  12.860  22.628  0.00  0.00    +0.000 S 
ATOM     10  O   UNL     1      -1.624  12.576  23.895  0.00  0.00    +0.000 OA
ATOM     11  O   UNL     1       0.138  13.787  22.628  0.00  0.00    +0.000 OA
ATOM     12  N   UNL     1      -2.198  13.456  21.604  0.00  0.00    +0.000 NA
ATOM     13  C   UNL     1      -2.438  13.153  20.157  0.00  0.00    +0.000 C 
ATOM     14  C   UNL     1      -1.363  12.491  19.280  0.00  0.00    +0.000 C 
ATOM     15  C   UNL     1      -1.603  10.980  19.151  0.00  0.00    +0.000 C 
ENDROOT
BRANCH   5  16
ATOM     16  C   UNL     1       1.284   7.571  20.994  0.00  0.00    +0.000 C 
ATOM     17  C   UNL     1       1.724   6.494  20.700  0.00  0.00    +0.000 C 
BRANCH  17  18
ATOM     18  C   UNL     1       2.205   5.202  20.326  0.00  0.00    +0.000 A 
ATOM     19  C   UNL     1       2.859   5.048  19.108  0.00  0.00    +0.000 A 
ATOM     20  C   UNL     1       3.303   3.784  18.765  0.00  0.00    +0.000 A 
ATOM     21  N   UNL     1       3.136   2.694  19.546  0.00  0.00    +0.000 NA
ATOM     22  C   UNL     1       2.494   2.877  20.722  0.00  0.00    +0.000 A 
ATOM     23  C   UNL     1       2.014   4.100  21.154  0.00  0.00    +0.000 A 
ENDBRANCH  17  18
ENDBRANCH   5  16
BRANCH  12  24
ATOM     24  C   UNL     1      -2.773  14.815  21.980  0.00  0.00    +0.000 C 
ATOM     25  C   UNL     1      -4.303  14.833  21.884  0.00  0.00    +0.000 C 
BRANCH  24  26
ATOM     26  C   UNL     1      -2.146  15.989  21.212  0.00  0.00    +0.000 C 
BRANCH  26  27
ATOM     27  O   UNL     1      -1.007  16.490  21.916  0.00  0.00    +0.000 OA
ATOM     28  H   UNL     1      -0.492  15.720  22.216  0.00  0.00    +0.000 HD
ENDBRANCH  26  27
ENDBRANCH  24  26
ENDBRANCH  12  24
BRANCH   1  29
ATOM     29  C   UNL     1       0.661  13.811  18.388  0.00  0.00    +0.000 C 
BRANCH  29  30
ATOM     30  N   UNL     1       1.028  15.236  18.616  0.00  0.00    +0.000 NA
ATOM     31  C   UNL     1       1.699  15.435  19.905  0.00  0.00    +0.000 C 
BRANCH  30  32
ATOM     32  C   UNL     1      -0.175  16.083  18.502  0.00  0.00    +0.000 C 
BRANCH  32  34
ATOM     33  C   UNL     1      -0.216  18.218  17.151  0.00  0.00    +0.000 C 
ATOM     34  C   UNL     1       0.129  17.590  18.491  0.00  0.00    +0.000 C 
ENDBRANCH  32  34
ENDBRANCH  30  32
ENDBRANCH  29  30
ENDBRANCH   1  29
TORSDOF 9
ENDMDL
