MODEL 1
REMARK VINA RESULT:      -8.7      0.000      0.000
REMARK  Name = 
REMARK  9 active torsions:
REMARK  status: ('A' for Active; 'I' for Inactive)
REMARK    1  A    between atoms: C_2  and  C_20
REMARK    2  A    between atoms: N_3  and  N_4
REMARK    3  A    between atoms: C_5  and  C_6
REMARK    4  A    between atoms: C_10  and  O_11
REMARK    5  A    between atoms: O_11  and  C_12
REMARK    6  A    between atoms: C_12  and  C_13
REMARK    7  A    between atoms: C_22  and  O_23
REMARK    8  A    between atoms: C_24  and  O_25
REMARK    9  A    between atoms: C_26  and  O_27
REMARK                            x       y       z     vdW  Elec       q    Type
REMARK                         _______ _______ _______ _____ _____    ______ ____
ROOT
ATOM      1  O   UNL     1       9.350  10.447  20.356  0.00  0.00    +0.000 OA
ATOM      2  C   UNL     1       9.349  10.810  19.184  0.00  0.00    +0.000 C 
ATOM      3  N   UNL     1       8.945  10.053  18.095  0.00  0.00    +0.000 N 
ATOM      4  H   UNL     1       9.082  10.371  17.143  0.00  0.00    +0.000 HD
ENDROOT
BRANCH   2   5
ATOM      5  C   UNL     1       9.859  12.173  18.860  0.00  0.00    +0.000 A 
ATOM      6  C   UNL     1      10.373  12.403  17.572  0.00  0.00    +0.000 A 
ATOM      7  C   UNL     1      10.848  13.666  17.240  0.00  0.00    +0.000 A 
ATOM      8  C   UNL     1      10.815  14.692  18.179  0.00  0.00    +0.000 A 
ATOM      9  C   UNL     1      10.329  14.457  19.457  0.00  0.00    +0.000 A 
ATOM     10  C   UNL     1       9.858  13.202  19.815  0.00  0.00    +0.000 A 
BRANCH   7  11
ATOM     11  O   UNL     1      11.359  13.951  16.005  0.00  0.00    +0.000 OA
ATOM     12  H   UNL     1      12.285  13.650  15.980  0.00  0.00    +0.000 HD
ENDBRANCH   7  11
BRANCH   8  13
ATOM     13  O   UNL     1      11.271  15.942  17.862  0.00  0.00    +0.000 OA
ATOM     14  H   UNL     1      11.059  16.042  16.911  0.00  0.00    +0.000 HD
ENDBRANCH   8  13
BRANCH   9  15
ATOM     15  O   UNL     1      10.316  15.458  20.383  0.00  0.00    +0.000 OA
ATOM     16  H   UNL     1       9.368  15.572  20.611  0.00  0.00    +0.000 HD
ENDBRANCH   9  15
ENDBRANCH   2   5
BRANCH   3  17
ATOM     17  N   UNL     1       8.455   8.805  18.307  0.00  0.00    +0.000 NA
ATOM     18  C   UNL     1       7.497   8.406  17.535  0.00  0.00    +0.000 C 
BRANCH  18  19
ATOM     19  C   UNL     1       6.916   7.059  17.708  0.00  0.00    +0.000 A 
ATOM     20  C   UNL     1       7.698   6.048  18.275  0.00  0.00    +0.000 A 
ATOM     21  C   UNL     1       7.177   4.768  18.429  0.00  0.00    +0.000 A 
ATOM     22  C   UNL     1       5.870   4.502  18.032  0.00  0.00    +0.000 A 
ATOM     23  C   UNL     1       5.064   5.521  17.511  0.00  0.00    +0.000 A 
ATOM     24  C   UNL     1       5.598   6.800  17.320  0.00  0.00    +0.000 A 
BRANCH  23  25
ATOM     25  O   UNL     1       3.745   5.363  17.169  0.00  0.00    +0.000 OA
BRANCH  25  26
ATOM     26  C   UNL     1       2.814   5.953  18.083  0.00  0.00    +0.000 C 
BRANCH  26  27
ATOM     27  C   UNL     1       2.256   4.894  18.997  0.00  0.00    +0.000 A 
ATOM     28  C   UNL     1       2.485   4.949  20.378  0.00  0.00    +0.000 A 
ATOM     29  C   UNL     1       1.958   3.967  21.218  0.00  0.00    +0.000 A 
ATOM     30  C   UNL     1       1.200   2.925  20.685  0.00  0.00    +0.000 A 
ATOM     31  C   UNL     1       0.961   2.864  19.314  0.00  0.00    +0.000 A 
ATOM     32  C   UNL     1       1.487   3.845  18.473  0.00  0.00    +0.000 A 
ENDBRANCH  26  27
ENDBRANCH  25  26
ENDBRANCH  23  25
ENDBRANCH  18  19
ENDBRANCH   3  17
TORSDOF 9
ENDMDL
MODEL 2
REMARK VINA RESULT:      -8.5      0.263      1.581
REMARK  Name = 
REMARK  9 active torsions:
REMARK  status: ('A' for Active; 'I' for Inactive)
REMARK    1  A    between atoms: C_2  and  C_20
REMARK    2  A    between atoms: N_3  and  N_4
REMARK    3  A    between atoms: C_5  and  C_6
REMARK    4  A    between atoms: C_10  and  O_11
REMARK    5  A    between atoms: O_11  and  C_12
REMARK    6  A    between atoms: C_12  and  C_13
REMARK    7  A    between atoms: C_22  and  O_23
REMARK    8  A    between atoms: C_24  and  O_25
REMARK    9  A    between atoms: C_26  and  O_27
REMARK                            x       y       z     vdW  Elec       q    Type
REMARK                         _______ _______ _______ _____ _____    ______ ____
ROOT
ATOM      1  O   UNL     1       9.288  10.423  20.148  0.00  0.00    +0.000 OA
ATOM      2  C   UNL     1       9.234  10.783  18.976  0.00  0.00    +0.000 C 
ATOM      3  N   UNL     1       8.803  10.017  17.904  0.00  0.00    +0.000 N 
ATOM      4  H   UNL     1       8.897  10.336  16.947  0.00  0.00    +0.000 HD
ENDROOT
BRANCH   2   5
ATOM      5  C   UNL     1       9.705  12.156  18.631  0.00  0.00    +0.000 A 
ATOM      6  C   UNL     1       9.501  13.185  19.568  0.00  0.00    +0.000 A 
ATOM      7  C   UNL     1       9.937  14.472  19.277  0.00  0.00    +0.000 A 
ATOM      8  C   UNL     1      10.567  14.737  18.065  0.00  0.00    +0.000 A 
ATOM      9  C   UNL     1      10.746  13.725  17.132  0.00  0.00    +0.000 A 
ATOM     10  C   UNL     1      10.312  12.434  17.397  0.00  0.00    +0.000 A 
BRANCH   7  11
ATOM     11  O   UNL     1       9.768  15.513  20.146  0.00  0.00    +0.000 OA
ATOM     12  H   UNL     1      10.592  16.030  20.168  0.00  0.00    +0.000 HD
ENDBRANCH   7  11
BRANCH   8  13
ATOM     13  O   UNL     1      11.009  15.997  17.769  0.00  0.00    +0.000 OA
ATOM     14  H   UNL     1      11.594  15.871  16.993  0.00  0.00    +0.000 HD
ENDBRANCH   8  13
BRANCH   9  15
ATOM     15  O   UNL     1      11.346  13.990  15.937  0.00  0.00    +0.000 OA
ATOM     16  H   UNL     1      10.672  14.485  15.425  0.00  0.00    +0.000 HD
ENDBRANCH   9  15
ENDBRANCH   2   5
BRANCH   3  17
ATOM     17  N   UNL     1       8.347   8.760  18.137  0.00  0.00    +0.000 NA
ATOM     18  C   UNL     1       7.413   8.317  17.359  0.00  0.00    +0.000 C 
BRANCH  18  19
ATOM     19  C   UNL     1       6.869   6.956  17.553  0.00  0.00    +0.000 A 
ATOM     20  C   UNL     1       7.694   5.963  18.090  0.00  0.00    +0.000 A 
ATOM     21  C   UNL     1       7.208   4.672  18.263  0.00  0.00    +0.000 A 
ATOM     22  C   UNL     1       5.892   4.377  17.915  0.00  0.00    +0.000 A 
ATOM     23  C   UNL     1       5.045   5.379  17.426  0.00  0.00    +0.000 A 
ATOM     24  C   UNL     1       5.543   6.668  17.214  0.00  0.00    +0.000 A 
BRANCH  23  25
ATOM     25  O   UNL     1       3.718   5.191  17.132  0.00  0.00    +0.000 OA
BRANCH  25  26
ATOM     26  C   UNL     1       2.810   5.874  18.003  0.00  0.00    +0.000 C 
BRANCH  26  27
ATOM     27  C   UNL     1       2.278   4.918  19.038  0.00  0.00    +0.000 A 
ATOM     28  C   UNL     1       2.636   5.051  20.386  0.00  0.00    +0.000 A 
ATOM     29  C   UNL     1       2.132   4.164  21.338  0.00  0.00    +0.000 A 
ATOM     30  C   UNL     1       1.268   3.140  20.951  0.00  0.00    +0.000 A 
ATOM     31  C   UNL     1       0.901   3.003  19.615  0.00  0.00    +0.000 A 
ATOM     32  C   UNL     1       1.403   3.889  18.661  0.00  0.00    +0.000 A 
ENDBRANCH  26  27
ENDBRANCH  25  26
ENDBRANCH  23  25
ENDBRANCH  18  19
ENDBRANCH   3  17
TORSDOF 9
ENDMDL
MODEL 3
REMARK VINA RESULT:      -8.3      6.601      7.843
REMARK  Name = 
REMARK  9 active torsions:
REMARK  status: ('A' for Active; 'I' for Inactive)
REMARK    1  A    between atoms: C_2  and  C_20
REMARK    2  A    between atoms: N_3  and  N_4
REMARK    3  A    between atoms: C_5  and  C_6
REMARK    4  A    between atoms: C_10  and  O_11
REMARK    5  A    between atoms: O_11  and  C_12
REMARK    6  A    between atoms: C_12  and  C_13
REMARK    7  A    between atoms: C_22  and  O_23
REMARK    8  A    between atoms: C_24  and  O_25
REMARK    9  A    between atoms: C_26  and  O_27
REMARK                            x       y       z     vdW  Elec       q    Type
REMARK                         _______ _______ _______ _____ _____    ______ ____
ROOT
ATOM      1  O   UNL     1       0.982   8.404  20.873  0.00  0.00    +0.000 OA
ATOM      2  C   UNL     1       0.963   9.080  19.850  0.00  0.00    +0.000 C 
ATOM      3  N   UNL     1       1.726   8.864  18.713  0.00  0.00    +0.000 N 
ATOM      4  H   UNL     1       1.749   9.530  17.950  0.00  0.00    +0.000 HD
ENDROOT
BRANCH   2   5
ATOM      5  C   UNL     1       0.075  10.278  19.805  0.00  0.00    +0.000 A 
ATOM      6  C   UNL     1      -0.480  10.742  21.011  0.00  0.00    +0.000 A 
ATOM      7  C   UNL     1      -1.304  11.860  21.000  0.00  0.00    +0.000 A 
ATOM      8  C   UNL     1      -1.577  12.513  19.802  0.00  0.00    +0.000 A 
ATOM      9  C   UNL     1      -1.048  12.039  18.609  0.00  0.00    +0.000 A 
ATOM     10  C   UNL     1      -0.229  10.919  18.594  0.00  0.00    +0.000 A 
BRANCH   7  11
ATOM     11  O   UNL     1      -1.872  12.358  22.139  0.00  0.00    +0.000 OA
ATOM     12  H   UNL     1      -1.250  12.223  22.876  0.00  0.00    +0.000 HD
ENDBRANCH   7  11
BRANCH   8  13
ATOM     13  O   UNL     1      -2.379  13.620  19.778  0.00  0.00    +0.000 OA
ATOM     14  H   UNL     1      -3.058  13.411  19.103  0.00  0.00    +0.000 HD
ENDBRANCH   8  13
BRANCH   9  15
ATOM     15  O   UNL     1      -1.332  12.668  17.433  0.00  0.00    +0.000 OA
ATOM     16  H   UNL     1      -0.990  12.064  16.740  0.00  0.00    +0.000 HD
ENDBRANCH   9  15
ENDBRANCH   2   5
BRANCH   3  17
ATOM     17  N   UNL     1       2.551   7.786  18.670  0.00  0.00    +0.000 NA
ATOM     18  C   UNL     1       3.274   7.637  17.608  0.00  0.00    +0.000 C 
BRANCH  18  19
ATOM     19  C   UNL     1       4.196   6.488  17.493  0.00  0.00    +0.000 A 
ATOM     20  C   UNL     1       4.942   6.327  16.322  0.00  0.00    +0.000 A 
ATOM     21  C   UNL     1       5.800   5.241  16.187  0.00  0.00    +0.000 A 
ATOM     22  C   UNL     1       5.926   4.326  17.229  0.00  0.00    +0.000 A 
ATOM     23  C   UNL     1       5.221   4.510  18.424  0.00  0.00    +0.000 A 
ATOM     24  C   UNL     1       4.328   5.579  18.547  0.00  0.00    +0.000 A 
BRANCH  23  25
ATOM     25  O   UNL     1       5.346   3.700  19.525  0.00  0.00    +0.000 OA
BRANCH  25  26
ATOM     26  C   UNL     1       4.684   2.436  19.417  0.00  0.00    +0.000 C 
BRANCH  26  27
ATOM     27  C   UNL     1       3.201   2.619  19.612  0.00  0.00    +0.000 A 
ATOM     28  C   UNL     1       2.303   2.332  18.575  0.00  0.00    +0.000 A 
ATOM     29  C   UNL     1       0.931   2.498  18.767  0.00  0.00    +0.000 A 
ATOM     30  C   UNL     1       0.447   2.949  19.995  0.00  0.00    +0.000 A 
ATOM     31  C   UNL     1       1.331   3.230  21.034  0.00  0.00    +0.000 A 
ATOM     32  C   UNL     1       2.703   3.065  20.844  0.00  0.00    +0.000 A 
ENDBRANCH  26  27
ENDBRANCH  25  26
ENDBRANCH  23  25
ENDBRANCH  18  19
ENDBRANCH   3  17
TORSDOF 9
ENDMDL
MODEL 4
REMARK VINA RESULT:      -8.0      6.086      8.300
REMARK  Name = 
REMARK  9 active torsions:
REMARK  status: ('A' for Active; 'I' for Inactive)
REMARK    1  A    between atoms: C_2  and  C_20
REMARK    2  A    between atoms: N_3  and  N_4
REMARK    3  A    between atoms: C_5  and  C_6
REMARK    4  A    between atoms: C_10  and  O_11
REMARK    5  A    between atoms: O_11  and  C_12
REMARK    6  A    between atoms: C_12  and  C_13
REMARK    7  A    between atoms: C_22  and  O_23
REMARK    8  A    between atoms: C_24  and  O_25
REMARK    9  A    between atoms: C_26  and  O_27
REMARK                            x       y       z     vdW  Elec       q    Type
REMARK                         _______ _______ _______ _____ _____    ______ ____
ROOT
ATOM      1  O   UNL     1       1.131   9.404  19.961  0.00  0.00    +0.000 OA
ATOM      2  C   UNL     1       0.861   9.535  18.771  0.00  0.00    +0.000 C 
ATOM      3  N   UNL     1       1.652   9.136  17.704  0.00  0.00    +0.000 N 
ATOM      4  H   UNL     1       1.424   9.382  16.749  0.00  0.00    +0.000 HD
ENDROOT
BRANCH   2   5
ATOM      5  C   UNL     1      -0.413  10.216  18.401  0.00  0.00    +0.000 A 
ATOM      6  C   UNL     1      -0.782  11.371  19.113  0.00  0.00    +0.000 A 
ATOM      7  C   UNL     1      -1.960  12.031  18.784  0.00  0.00    +0.000 A 
ATOM      8  C   UNL     1      -2.767  11.547  17.759  0.00  0.00    +0.000 A 
ATOM      9  C   UNL     1      -2.413  10.393  17.074  0.00  0.00    +0.000 A 
ATOM     10  C   UNL     1      -1.246   9.713  17.390  0.00  0.00    +0.000 A 
BRANCH   7  11
ATOM     11  O   UNL     1      -2.371  13.157  19.439  0.00  0.00    +0.000 OA
ATOM     12  H   UNL     1      -3.304  13.040  19.695  0.00  0.00    +0.000 HD
ENDBRANCH   7  11
BRANCH   8  13
ATOM     13  O   UNL     1      -3.924  12.192  17.419  0.00  0.00    +0.000 OA
ATOM     14  H   UNL     1      -4.038  12.867  18.120  0.00  0.00    +0.000 HD
ENDBRANCH   8  13
BRANCH   9  15
ATOM     15  O   UNL     1      -3.214   9.909  16.082  0.00  0.00    +0.000 OA
ATOM     16  H   UNL     1      -4.025  10.459  16.127  0.00  0.00    +0.000 HD
ENDBRANCH   9  15
ENDBRANCH   2   5
BRANCH   3  17
ATOM     17  N   UNL     1       2.823   8.497  17.958  0.00  0.00    +0.000 NA
ATOM     18  C   UNL     1       2.944   7.287  17.515  0.00  0.00    +0.000 C 
BRANCH  18  19
ATOM     19  C   UNL     1       4.191   6.532  17.753  0.00  0.00    +0.000 A 
ATOM     20  C   UNL     1       5.361   6.922  17.094  0.00  0.00    +0.000 A 
ATOM     21  C   UNL     1       6.540   6.213  17.289  0.00  0.00    +0.000 A 
ATOM     22  C   UNL     1       6.556   5.124  18.156  0.00  0.00    +0.000 A 
ATOM     23  C   UNL     1       5.402   4.759  18.859  0.00  0.00    +0.000 A 
ATOM     24  C   UNL     1       4.205   5.447  18.635  0.00  0.00    +0.000 A 
BRANCH  23  25
ATOM     25  O   UNL     1       5.351   3.750  19.788  0.00  0.00    +0.000 OA
BRANCH  25  26
ATOM     26  C   UNL     1       4.702   2.556  19.339  0.00  0.00    +0.000 C 
BRANCH  26  27
ATOM     27  C   UNL     1       3.221   2.651  19.598  0.00  0.00    +0.000 A 
ATOM     28  C   UNL     1       2.737   2.934  20.882  0.00  0.00    +0.000 A 
ATOM     29  C   UNL     1       1.364   3.027  21.110  0.00  0.00    +0.000 A 
ATOM     30  C   UNL     1       0.466   2.841  20.059  0.00  0.00    +0.000 A 
ATOM     31  C   UNL     1       0.938   2.566  18.778  0.00  0.00    +0.000 A 
ATOM     32  C   UNL     1       2.310   2.472  18.547  0.00  0.00    +0.000 A 
ENDBRANCH  26  27
ENDBRANCH  25  26
ENDBRANCH  23  25
ENDBRANCH  18  19
ENDBRANCH   3  17
TORSDOF 9
ENDMDL
MODEL 5
REMARK VINA RESULT:      -8.0      6.905     10.449
REMARK  Name = 
REMARK  9 active torsions:
REMARK  status: ('A' for Active; 'I' for Inactive)
REMARK    1  A    between atoms: C_2  and  C_20
REMARK    2  A    between atoms: N_3  and  N_4
REMARK    3  A    between atoms: C_5  and  C_6
REMARK    4  A    between atoms: C_10  and  O_11
REMARK    5  A    between atoms: O_11  and  C_12
REMARK    6  A    between atoms: C_12  and  C_13
REMARK    7  A    between atoms: C_22  and  O_23
REMARK    8  A    between atoms: C_24  and  O_25
REMARK    9  A    between atoms: C_26  and  O_27
REMARK                            x       y       z     vdW  Elec       q    Type
REMARK                         _______ _______ _______ _____ _____    ______ ____
ROOT
ATOM      1  O   UNL     1       2.377   7.418  18.479  0.00  0.00    +0.000 OA
ATOM      2  C   UNL     1       2.426   6.826  19.553  0.00  0.00    +0.000 C 
ATOM      3  N   UNL     1       1.952   7.295  20.768  0.00  0.00    +0.000 N 
ATOM      4  H   UNL     1       2.133   6.805  21.637  0.00  0.00    +0.000 HD
ENDROOT
BRANCH   2   5
ATOM      5  C   UNL     1       3.085   5.489  19.597  0.00  0.00    +0.000 A 
ATOM      6  C   UNL     1       4.416   5.386  19.152  0.00  0.00    +0.000 A 
ATOM      7  C   UNL     1       5.057   4.154  19.190  0.00  0.00    +0.000 A 
ATOM      8  C   UNL     1       4.385   3.033  19.664  0.00  0.00    +0.000 A 
ATOM      9  C   UNL     1       3.065   3.131  20.081  0.00  0.00    +0.000 A 
ATOM     10  C   UNL     1       2.400   4.348  20.044  0.00  0.00    +0.000 A 
BRANCH   7  11
ATOM     11  O   UNL     1       6.348   3.992  18.771  0.00  0.00    +0.000 OA
ATOM     12  H   UNL     1       6.333   3.621  17.871  0.00  0.00    +0.000 HD
ENDBRANCH   7  11
BRANCH   8  13
ATOM     13  O   UNL     1       5.008   1.816  19.715  0.00  0.00    +0.000 OA
ATOM     14  H   UNL     1       5.953   2.035  19.853  0.00  0.00    +0.000 HD
ENDBRANCH   8  13
BRANCH   9  15
ATOM     15  O   UNL     1       2.400   2.027  20.527  0.00  0.00    +0.000 OA
ATOM     16  H   UNL     1       1.462   2.189  20.289  0.00  0.00    +0.000 HD
ENDBRANCH   9  15
ENDBRANCH   2   5
BRANCH   3  17
ATOM     17  N   UNL     1       1.328   8.499  20.809  0.00  0.00    +0.000 NA
ATOM     18  C   UNL     1       0.439   8.673  21.733  0.00  0.00    +0.000 C 
BRANCH  18  19
ATOM     19  C   UNL     1      -0.280   9.960  21.838  0.00  0.00    +0.000 A 
ATOM     20  C   UNL     1      -0.821  10.339  23.071  0.00  0.00    +0.000 A 
ATOM     21  C   UNL     1      -1.518  11.537  23.186  0.00  0.00    +0.000 A 
ATOM     22  C   UNL     1      -1.659  12.364  22.074  0.00  0.00    +0.000 A 
ATOM     23  C   UNL     1      -1.076  12.014  20.851  0.00  0.00    +0.000 A 
ATOM     24  C   UNL     1      -0.409  10.792  20.723  0.00  0.00    +0.000 A 
BRANCH  23  25
ATOM     25  O   UNL     1      -1.102  12.806  19.730  0.00  0.00    +0.000 OA
BRANCH  25  26
ATOM     26  C   UNL     1      -1.005  12.094  18.492  0.00  0.00    +0.000 C 
BRANCH  26  27
ATOM     27  C   UNL     1      -2.385  11.765  17.984  0.00  0.00    +0.000 A 
ATOM     28  C   UNL     1      -3.518  12.051  18.757  0.00  0.00    +0.000 A 
ATOM     29  C   UNL     1      -4.792  11.749  18.275  0.00  0.00    +0.000 A 
ATOM     30  C   UNL     1      -4.943  11.161  17.019  0.00  0.00    +0.000 A 
ATOM     31  C   UNL     1      -3.823  10.878  16.241  0.00  0.00    +0.000 A 
ATOM     32  C   UNL     1      -2.548  11.180  16.721  0.00  0.00    +0.000 A 
ENDBRANCH  26  27
ENDBRANCH  25  26
ENDBRANCH  23  25
ENDBRANCH  18  19
ENDBRANCH   3  17
TORSDOF 9
ENDMDL
MODEL 6
REMARK VINA RESULT:      -8.0      6.883     10.329
REMARK  Name = 
REMARK  9 active torsions:
REMARK  status: ('A' for Active; 'I' for Inactive)
REMARK    1  A    between atoms: C_2  and  C_20
REMARK    2  A    between atoms: N_3  and  N_4
REMARK    3  A    between atoms: C_5  and  C_6
REMARK    4  A    between atoms: C_10  and  O_11
REMARK    5  A    between atoms: O_11  and  C_12
REMARK    6  A    between atoms: C_12  and  C_13
REMARK    7  A    between atoms: C_22  and  O_23
REMARK    8  A    between atoms: C_24  and  O_25
REMARK    9  A    between atoms: C_26  and  O_27
REMARK                            x       y       z     vdW  Elec       q    Type
REMARK                         _______ _______ _______ _____ _____    ______ ____
ROOT
ATOM      1  O   UNL     1       2.687   7.555  18.601  0.00  0.00    +0.000 OA
ATOM      2  C   UNL     1       2.523   6.866  19.603  0.00  0.00    +0.000 C 
ATOM      3  N   UNL     1       1.789   7.219  20.726  0.00  0.00    +0.000 N 
ATOM      4  H   UNL     1       1.793   6.652  21.566  0.00  0.00    +0.000 HD
ENDROOT
BRANCH   2   5
ATOM      5  C   UNL     1       3.191   5.535  19.670  0.00  0.00    +0.000 A 
ATOM      6  C   UNL     1       4.395   5.358  18.963  0.00  0.00    +0.000 A 
ATOM      7  C   UNL     1       5.044   4.130  19.014  0.00  0.00    +0.000 A 
ATOM      8  C   UNL     1       4.503   3.086  19.757  0.00  0.00    +0.000 A 
ATOM      9  C   UNL     1       3.303   3.256  20.434  0.00  0.00    +0.000 A 
ATOM     10  C   UNL     1       2.633   4.469  20.392  0.00  0.00    +0.000 A 
BRANCH   7  11
ATOM     11  O   UNL     1       6.215   3.898  18.350  0.00  0.00    +0.000 OA
ATOM     12  H   UNL     1       6.097   3.112  17.787  0.00  0.00    +0.000 HD
ENDBRANCH   7  11
BRANCH   8  13
ATOM     13  O   UNL     1       5.136   1.876  19.823  0.00  0.00    +0.000 OA
ATOM     14  H   UNL     1       6.052   2.098  20.091  0.00  0.00    +0.000 HD
ENDBRANCH   8  13
BRANCH   9  15
ATOM     15  O   UNL     1       2.764   2.226  21.147  0.00  0.00    +0.000 OA
ATOM     16  H   UNL     1       3.290   1.440  20.884  0.00  0.00    +0.000 HD
ENDBRANCH   9  15
ENDBRANCH   2   5
BRANCH   3  17
ATOM     17  N   UNL     1       1.139   8.411  20.738  0.00  0.00    +0.000 NA
ATOM     18  C   UNL     1       0.359   8.648  21.744  0.00  0.00    +0.000 C 
BRANCH  18  19
ATOM     19  C   UNL     1      -0.379   9.925  21.824  0.00  0.00    +0.000 A 
ATOM     20  C   UNL     1      -0.828  10.376  23.069  0.00  0.00    +0.000 A 
ATOM     21  C   UNL     1      -1.541  11.566  23.163  0.00  0.00    +0.000 A 
ATOM     22  C   UNL     1      -1.791  12.314  22.016  0.00  0.00    +0.000 A 
ATOM     23  C   UNL     1      -1.299  11.896  20.774  0.00  0.00    +0.000 A 
ATOM     24  C   UNL     1      -0.616  10.680  20.671  0.00  0.00    +0.000 A 
BRANCH  23  25
ATOM     25  O   UNL     1      -1.434  12.611  19.611  0.00  0.00    +0.000 OA
BRANCH  25  26
ATOM     26  C   UNL     1      -0.965  11.939  18.437  0.00  0.00    +0.000 C 
BRANCH  26  27
ATOM     27  C   UNL     1      -2.135  11.407  17.652  0.00  0.00    +0.000 A 
ATOM     28  C   UNL     1      -1.949  10.435  16.660  0.00  0.00    +0.000 A 
ATOM     29  C   UNL     1      -3.040   9.945  15.943  0.00  0.00    +0.000 A 
ATOM     30  C   UNL     1      -4.324  10.419  16.211  0.00  0.00    +0.000 A 
ATOM     31  C   UNL     1      -4.521  11.380  17.200  0.00  0.00    +0.000 A 
ATOM     32  C   UNL     1      -3.431  11.872  17.918  0.00  0.00    +0.000 A 
ENDBRANCH  26  27
ENDBRANCH  25  26
ENDBRANCH  23  25
ENDBRANCH  18  19
ENDBRANCH   3  17
TORSDOF 9
ENDMDL
MODEL 7
REMARK VINA RESULT:      -8.0      6.195      7.633
REMARK  Name = 
REMARK  9 active torsions:
REMARK  status: ('A' for Active; 'I' for Inactive)
REMARK    1  A    between atoms: C_2  and  C_20
REMARK    2  A    between atoms: N_3  and  N_4
REMARK    3  A    between atoms: C_5  and  C_6
REMARK    4  A    between atoms: C_10  and  O_11
REMARK    5  A    between atoms: O_11  and  C_12
REMARK    6  A    between atoms: C_12  and  C_13
REMARK    7  A    between atoms: C_22  and  O_23
REMARK    8  A    between atoms: C_24  and  O_25
REMARK    9  A    between atoms: C_26  and  O_27
REMARK                            x       y       z     vdW  Elec       q    Type
REMARK                         _______ _______ _______ _____ _____    ______ ____
ROOT
ATOM      1  O   UNL     1       1.363   8.584  20.962  0.00  0.00    +0.000 OA
ATOM      2  C   UNL     1       1.115   9.136  19.895  0.00  0.00    +0.000 C 
ATOM      3  N   UNL     1       1.681   8.832  18.666  0.00  0.00    +0.000 N 
ATOM      4  H   UNL     1       1.520   9.406  17.847  0.00  0.00    +0.000 HD
ENDROOT
BRANCH   2   5
ATOM      5  C   UNL     1       0.146  10.270  19.888  0.00  0.00    +0.000 A 
ATOM      6  C   UNL     1      -0.100  10.929  18.670  0.00  0.00    +0.000 A 
ATOM      7  C   UNL     1      -1.004  11.984  18.633  0.00  0.00    +0.000 A 
ATOM      8  C   UNL     1      -1.656  12.384  19.795  0.00  0.00    +0.000 A 
ATOM      9  C   UNL     1      -1.394  11.748  21.000  0.00  0.00    +0.000 A 
ATOM     10  C   UNL     1      -0.490  10.698  21.064  0.00  0.00    +0.000 A 
BRANCH   7  11
ATOM     11  O   UNL     1      -1.284  12.662  17.480  0.00  0.00    +0.000 OA
ATOM     12  H   UNL     1      -2.208  12.479  17.234  0.00  0.00    +0.000 HD
ENDBRANCH   7  11
BRANCH   8  13
ATOM     13  O   UNL     1      -2.555  13.414  19.770  0.00  0.00    +0.000 OA
ATOM     14  H   UNL     1      -3.428  12.972  19.729  0.00  0.00    +0.000 HD
ENDBRANCH   8  13
BRANCH   9  15
ATOM     15  O   UNL     1      -2.020  12.153  22.142  0.00  0.00    +0.000 OA
ATOM     16  H   UNL     1      -1.372  11.974  22.857  0.00  0.00    +0.000 HD
ENDBRANCH   9  15
ENDBRANCH   2   5
BRANCH   3  17
ATOM     17  N   UNL     1       2.563   7.803  18.586  0.00  0.00    +0.000 NA
ATOM     18  C   UNL     1       3.261   7.707  17.500  0.00  0.00    +0.000 C 
BRANCH  18  19
ATOM     19  C   UNL     1       4.242   6.612  17.344  0.00  0.00    +0.000 A 
ATOM     20  C   UNL     1       5.592   6.928  17.166  0.00  0.00    +0.000 A 
ATOM     21  C   UNL     1       6.528   5.914  16.999  0.00  0.00    +0.000 A 
ATOM     22  C   UNL     1       6.118   4.584  17.026  0.00  0.00    +0.000 A 
ATOM     23  C   UNL     1       4.776   4.259  17.255  0.00  0.00    +0.000 A 
ATOM     24  C   UNL     1       3.827   5.278  17.385  0.00  0.00    +0.000 A 
BRANCH  23  25
ATOM     25  O   UNL     1       4.302   2.977  17.373  0.00  0.00    +0.000 OA
BRANCH  25  26
ATOM     26  C   UNL     1       2.877   2.872  17.474  0.00  0.00    +0.000 C 
BRANCH  26  27
ATOM     27  C   UNL     1       2.465   2.909  18.923  0.00  0.00    +0.000 A 
ATOM     28  C   UNL     1       1.184   3.342  19.290  0.00  0.00    +0.000 A 
ATOM     29  C   UNL     1       0.809   3.366  20.633  0.00  0.00    +0.000 A 
ATOM     30  C   UNL     1       1.708   2.956  21.618  0.00  0.00    +0.000 A 
ATOM     31  C   UNL     1       2.981   2.517  21.262  0.00  0.00    +0.000 A 
ATOM     32  C   UNL     1       3.358   2.492  19.920  0.00  0.00    +0.000 A 
ENDBRANCH  26  27
ENDBRANCH  25  26
ENDBRANCH  23  25
ENDBRANCH  18  19
ENDBRANCH   3  17
TORSDOF 9
ENDMDL
MODEL 8
REMARK VINA RESULT:      -8.0      7.266     10.583
REMARK  Name = 
REMARK  9 active torsions:
REMARK  status: ('A' for Active; 'I' for Inactive)
REMARK    1  A    between atoms: C_2  and  C_20
REMARK    2  A    between atoms: N_3  and  N_4
REMARK    3  A    between atoms: C_5  and  C_6
REMARK    4  A    between atoms: C_10  and  O_11
REMARK    5  A    between atoms: O_11  and  C_12
REMARK    6  A    between atoms: C_12  and  C_13
REMARK    7  A    between atoms: C_22  and  O_23
REMARK    8  A    between atoms: C_24  and  O_25
REMARK    9  A    between atoms: C_26  and  O_27
REMARK                            x       y       z     vdW  Elec       q    Type
REMARK                         _______ _______ _______ _____ _____    ______ ____
ROOT
ATOM      1  O   UNL     1       2.814   6.861  18.298  0.00  0.00    +0.000 OA
ATOM      2  C   UNL     1       2.546   6.075  19.202  0.00  0.00    +0.000 C 
ATOM      3  N   UNL     1       1.947   6.394  20.411  0.00  0.00    +0.000 N 
ATOM      4  H   UNL     1       1.864   5.717  21.160  0.00  0.00    +0.000 HD
ENDROOT
BRANCH   2   5
ATOM      5  C   UNL     1       2.922   4.642  19.033  0.00  0.00    +0.000 A 
ATOM      6  C   UNL     1       2.183   3.862  18.126  0.00  0.00    +0.000 A 
ATOM      7  C   UNL     1       2.516   2.525  17.943  0.00  0.00    +0.000 A 
ATOM      8  C   UNL     1       3.572   1.966  18.655  0.00  0.00    +0.000 A 
ATOM      9  C   UNL     1       4.285   2.731  19.568  0.00  0.00    +0.000 A 
ATOM     10  C   UNL     1       3.966   4.066  19.774  0.00  0.00    +0.000 A 
BRANCH   7  11
ATOM     11  O   UNL     1       1.836   1.717  17.076  0.00  0.00    +0.000 OA
ATOM     12  H   UNL     1       2.348   0.898  16.955  0.00  0.00    +0.000 HD
ENDBRANCH   7  11
BRANCH   8  13
ATOM     13  O   UNL     1       3.916   0.654  18.478  0.00  0.00    +0.000 OA
ATOM     14  H   UNL     1       3.207   0.295  17.906  0.00  0.00    +0.000 HD
ENDBRANCH   8  13
BRANCH   9  15
ATOM     15  O   UNL     1       5.307   2.177  20.280  0.00  0.00    +0.000 OA
ATOM     16  H   UNL     1       5.070   2.336  21.218  0.00  0.00    +0.000 HD
ENDBRANCH   9  15
ENDBRANCH   2   5
BRANCH   3  17
ATOM     17  N   UNL     1       1.563   7.676  20.636  0.00  0.00    +0.000 NA
ATOM     18  C   UNL     1       0.510   7.858  21.366  0.00  0.00    +0.000 C 
BRANCH  18  19
ATOM     19  C   UNL     1       0.036   9.228  21.654  0.00  0.00    +0.000 A 
ATOM     20  C   UNL     1      -0.486   9.517  22.919  0.00  0.00    +0.000 A 
ATOM     21  C   UNL     1      -0.956  10.794  23.204  0.00  0.00    +0.000 A 
ATOM     22  C   UNL     1      -0.888  11.787  22.230  0.00  0.00    +0.000 A 
ATOM     23  C   UNL     1      -0.320  11.519  20.980  0.00  0.00    +0.000 A 
ATOM     24  C   UNL     1       0.117  10.226  20.678  0.00  0.00    +0.000 A 
BRANCH  23  25
ATOM     25  O   UNL     1      -0.145  12.458  19.995  0.00  0.00    +0.000 OA
BRANCH  25  26
ATOM     26  C   UNL     1      -1.358  13.001  19.463  0.00  0.00    +0.000 C 
BRANCH  26  27
ATOM     27  C   UNL     1      -2.059  11.962  18.628  0.00  0.00    +0.000 A 
ATOM     28  C   UNL     1      -3.438  11.748  18.762  0.00  0.00    +0.000 A 
ATOM     29  C   UNL     1      -4.079  10.788  17.980  0.00  0.00    +0.000 A 
ATOM     30  C   UNL     1      -3.351  10.036  17.059  0.00  0.00    +0.000 A 
ATOM     31  C   UNL     1      -1.981  10.246  16.913  0.00  0.00    +0.000 A 
ATOM     32  C   UNL     1      -1.338  11.205  17.694  0.00  0.00    +0.000 A 
ENDBRANCH  26  27
ENDBRANCH  25  26
ENDBRANCH  23  25
ENDBRANCH  18  19
ENDBRANCH   3  17
TORSDOF 9
ENDMDL
MODEL 9
REMARK VINA RESULT:      -7.9      7.646     11.204
REMARK  Name = 
REMARK  9 active torsions:
REMARK  status: ('A' for Active; 'I' for Inactive)
REMARK    1  A    between atoms: C_2  and  C_20
REMARK    2  A    between atoms: N_3  and  N_4
REMARK    3  A    between atoms: C_5  and  C_6
REMARK    4  A    between atoms: C_10  and  O_11
REMARK    5  A    between atoms: O_11  and  C_12
REMARK    6  A    between atoms: C_12  and  C_13
REMARK    7  A    between atoms: C_22  and  O_23
REMARK    8  A    between atoms: C_24  and  O_25
REMARK    9  A    between atoms: C_26  and  O_27
REMARK                            x       y       z     vdW  Elec       q    Type
REMARK                         _______ _______ _______ _____ _____    ______ ____
ROOT
ATOM      1  O   UNL     1       2.313   7.529  18.462  0.00  0.00    +0.000 OA
ATOM      2  C   UNL     1       2.441   6.987  19.555  0.00  0.00    +0.000 C 
ATOM      3  N   UNL     1       2.042   7.506  20.777  0.00  0.00    +0.000 N 
ATOM      4  H   UNL     1       2.285   7.059  21.652  0.00  0.00    +0.000 HD
ENDROOT
BRANCH   2   5
ATOM      5  C   UNL     1       3.119   5.660  19.616  0.00  0.00    +0.000 A 
ATOM      6  C   UNL     1       2.482   4.618  20.313  0.00  0.00    +0.000 A 
ATOM      7  C   UNL     1       3.087   3.369  20.380  0.00  0.00    +0.000 A 
ATOM      8  C   UNL     1       4.315   3.155  19.763  0.00  0.00    +0.000 A 
ATOM      9  C   UNL     1       4.953   4.191  19.096  0.00  0.00    +0.000 A 
ATOM     10  C   UNL     1       4.373   5.449  19.023  0.00  0.00    +0.000 A 
BRANCH   7  11
ATOM     11  O   UNL     1       2.517   2.318  21.042  0.00  0.00    +0.000 OA
ATOM     12  H   UNL     1       3.155   1.988  21.700  0.00  0.00    +0.000 HD
ENDBRANCH   7  11
BRANCH   8  13
ATOM     13  O   UNL     1       4.917   1.928  19.813  0.00  0.00    +0.000 OA
ATOM     14  H   UNL     1       5.243   1.858  20.734  0.00  0.00    +0.000 HD
ENDBRANCH   8  13
BRANCH   9  15
ATOM     15  O   UNL     1       6.167   3.987  18.507  0.00  0.00    +0.000 OA
ATOM     16  H   UNL     1       5.962   3.852  17.557  0.00  0.00    +0.000 HD
ENDBRANCH   9  15
ENDBRANCH   2   5
BRANCH   3  17
ATOM     17  N   UNL     1       1.405   8.706  20.804  0.00  0.00    +0.000 NA
ATOM     18  C   UNL     1       0.824   9.041  21.911  0.00  0.00    +0.000 C 
BRANCH  18  19
ATOM     19  C   UNL     1       0.113  10.332  22.013  0.00  0.00    +0.000 A 
ATOM     20  C   UNL     1       0.536  11.407  21.225  0.00  0.00    +0.000 A 
ATOM     21  C   UNL     1      -0.107  12.636  21.321  0.00  0.00    +0.000 A 
ATOM     22  C   UNL     1      -1.184  12.786  22.191  0.00  0.00    +0.000 A 
ATOM     23  C   UNL     1      -1.645  11.701  22.945  0.00  0.00    +0.000 A 
ATOM     24  C   UNL     1      -0.975  10.475  22.879  0.00  0.00    +0.000 A 
BRANCH  23  25
ATOM     25  O   UNL     1      -2.743  11.743  23.766  0.00  0.00    +0.000 OA
BRANCH  25  26
ATOM     26  C   UNL     1      -3.424  13.002  23.791  0.00  0.00    +0.000 C 
BRANCH  26  27
ATOM     27  C   UNL     1      -4.817  12.841  23.242  0.00  0.00    +0.000 A 
ATOM     28  C   UNL     1      -5.037  12.783  21.859  0.00  0.00    +0.000 A 
ATOM     29  C   UNL     1      -6.331  12.627  21.360  0.00  0.00    +0.000 A 
ATOM     30  C   UNL     1      -7.411  12.525  22.236  0.00  0.00    +0.000 A 
ATOM     31  C   UNL     1      -7.201  12.574  23.612  0.00  0.00    +0.000 A 
ATOM     32  C   UNL     1      -5.909  12.731  24.114  0.00  0.00    +0.000 A 
ENDBRANCH  26  27
ENDBRANCH  25  26
ENDBRANCH  23  25
ENDBRANCH  18  19
ENDBRANCH   3  17
TORSDOF 9
ENDMDL
