MODEL 1
REMARK VINA RESULT:      -7.8      0.000      0.000
REMARK  Name = 
REMARK  9 active torsions:
REMARK  status: ('A' for Active; 'I' for Inactive)
REMARK    1  A    between atoms: N_1  and  C_2
REMARK    2  A    between atoms: C_2  and  C_3
REMARK    3  A    between atoms: C_3  and  C_4
REMARK    4  A    between atoms: C_4  and  C_5
REMARK    5  A    between atoms: C_5  and  C_6
REMARK    6  A    between atoms: C_6  and  C_7
REMARK    7  A    between atoms: C_7  and  N_8
REMARK    8  A    between atoms: N_8  and  S_9
REMARK    9  A    between atoms: S_9  and  C_12
REMARK                            x       y       z     vdW  Elec       q    Type
REMARK                         _______ _______ _______ _____ _____    ______ ____
ROOT
ATOM      1  S   UNL     1       6.536   5.217  17.045  0.00  0.00    +0.000 S 
ATOM      2  O   UNL     1       6.679   4.276  15.840  0.00  0.00    +0.000 OA
ATOM      3  O   UNL     1       7.296   4.465  18.150  0.00  0.00    +0.000 OA
ENDROOT
BRANCH   1   4
ATOM      4  C   UNL     1       4.823   5.582  17.474  0.00  0.00    +0.000 A 
ATOM      5  C   UNL     1       4.426   6.923  17.560  0.00  0.00    +0.000 A 
ATOM      6  C   UNL     1       3.104   7.255  17.864  0.00  0.00    +0.000 A 
ATOM      7  C   UNL     1       2.159   6.253  18.084  0.00  0.00    +0.000 A 
ATOM      8  C   UNL     1       2.532   4.904  18.000  0.00  0.00    +0.000 A 
ATOM      9  C   UNL     1       1.578   3.895  18.216  0.00  0.00    +0.000 A 
ATOM     10  C   UNL     1       1.938   2.551  18.126  0.00  0.00    +0.000 A 
ATOM     11  C   UNL     1       3.253   2.198  17.824  0.00  0.00    +0.000 A 
ATOM     12  C   UNL     1       4.219   3.187  17.606  0.00  0.00    +0.000 A 
ATOM     13  C   UNL     1       3.873   4.554  17.692  0.00  0.00    +0.000 A 
ENDBRANCH   1   4
BRANCH   1  14
ATOM     14  N   UNL     1       7.544   6.626  16.667  0.00  0.00    +0.000 NA
ATOM     15  H   UNL     1       8.434   6.277  16.244  0.00  0.00    +0.000 HD
BRANCH  14  16
ATOM     16  C   UNL     1       7.851   7.302  17.926  0.00  0.00    +0.000 C 
BRANCH  16  17
ATOM     17  C   UNL     1       7.960   8.819  17.724  0.00  0.00    +0.000 C 
BRANCH  17  18
ATOM     18  C   UNL     1       8.869   9.491  18.771  0.00  0.00    +0.000 C 
BRANCH  18  19
ATOM     19  C   UNL     1       9.413  10.841  18.276  0.00  0.00    +0.000 C 
BRANCH  19  20
ATOM     20  C   UNL     1      10.229  11.578  19.337  0.00  0.00    +0.000 C 
BRANCH  20  21
ATOM     21  C   UNL     1      11.711  11.588  18.924  0.00  0.00    +0.000 C 
BRANCH  21  22
ATOM     22  N   UNL     1      11.890  11.704  17.476  0.00  0.00    +0.000 NA
ATOM     23  H   UNL     1      12.218  12.666  17.233  0.00  0.00    +0.000 HD
ATOM     24  H   UNL     1      12.582  11.008  17.112  0.00  0.00    +0.000 HD
ENDBRANCH  21  22
ENDBRANCH  20  21
ENDBRANCH  19  20
ENDBRANCH  18  19
ENDBRANCH  17  18
ENDBRANCH  16  17
ENDBRANCH  14  16
ENDBRANCH   1  14
TORSDOF 9
ENDMDL
MODEL 2
REMARK VINA RESULT:      -7.5      3.857      6.394
REMARK  Name = 
REMARK  9 active torsions:
REMARK  status: ('A' for Active; 'I' for Inactive)
REMARK    1  A    between atoms: N_1  and  C_2
REMARK    2  A    between atoms: C_2  and  C_3
REMARK    3  A    between atoms: C_3  and  C_4
REMARK    4  A    between atoms: C_4  and  C_5
REMARK    5  A    between atoms: C_5  and  C_6
REMARK    6  A    between atoms: C_6  and  C_7
REMARK    7  A    between atoms: C_7  and  N_8
REMARK    8  A    between atoms: N_8  and  S_9
REMARK    9  A    between atoms: S_9  and  C_12
REMARK                            x       y       z     vdW  Elec       q    Type
REMARK                         _______ _______ _______ _____ _____    ______ ____
ROOT
ATOM      1  S   UNL     1       6.751   5.195  17.045  0.00  0.00    +0.000 S 
ATOM      2  O   UNL     1       7.553   4.721  18.267  0.00  0.00    +0.000 OA
ATOM      3  O   UNL     1       7.623   6.336  16.494  0.00  0.00    +0.000 OA
ENDROOT
BRANCH   1   4
ATOM      4  C   UNL     1       5.069   5.706  17.444  0.00  0.00    +0.000 A 
ATOM      5  C   UNL     1       4.772   7.076  17.461  0.00  0.00    +0.000 A 
ATOM      6  C   UNL     1       3.478   7.520  17.739  0.00  0.00    +0.000 A 
ATOM      7  C   UNL     1       2.460   6.603  18.001  0.00  0.00    +0.000 A 
ATOM      8  C   UNL     1       2.732   5.227  17.986  0.00  0.00    +0.000 A 
ATOM      9  C   UNL     1       1.704   4.305  18.245  0.00  0.00    +0.000 A 
ATOM     10  C   UNL     1       1.963   2.935  18.224  0.00  0.00    +0.000 A 
ATOM     11  C   UNL     1       3.249   2.471  17.949  0.00  0.00    +0.000 A 
ATOM     12  C   UNL     1       4.287   3.373  17.690  0.00  0.00    +0.000 A 
ATOM     13  C   UNL     1       4.043   4.764  17.705  0.00  0.00    +0.000 A 
ENDBRANCH   1   4
BRANCH   1  14
ATOM     14  N   UNL     1       6.888   3.889  15.853  0.00  0.00    +0.000 NA
ATOM     15  H   UNL     1       7.887   3.842  15.546  0.00  0.00    +0.000 HD
BRANCH  14  16
ATOM     16  C   UNL     1       6.058   4.248  14.705  0.00  0.00    +0.000 C 
BRANCH  16  17
ATOM     17  C   UNL     1       6.923   4.677  13.514  0.00  0.00    +0.000 C 
BRANCH  17  18
ATOM     18  C   UNL     1       6.776   3.731  12.305  0.00  0.00    +0.000 C 
BRANCH  18  19
ATOM     19  C   UNL     1       5.338   3.211  12.156  0.00  0.00    +0.000 C 
BRANCH  19  20
ATOM     20  C   UNL     1       5.229   2.038  11.181  0.00  0.00    +0.000 C 
BRANCH  20  21
ATOM     21  C   UNL     1       6.524   1.210  11.236  0.00  0.00    +0.000 C 
BRANCH  21  22
ATOM     22  N   UNL     1       6.276  -0.203  11.530  0.00  0.00    +0.000 NA
ATOM     23  H   UNL     1       5.412  -0.523  11.037  0.00  0.00    +0.000 HD
ATOM     24  H   UNL     1       7.078  -0.808  11.237  0.00  0.00    +0.000 HD
ENDBRANCH  21  22
ENDBRANCH  20  21
ENDBRANCH  19  20
ENDBRANCH  18  19
ENDBRANCH  17  18
ENDBRANCH  16  17
ENDBRANCH  14  16
ENDBRANCH   1  14
TORSDOF 9
ENDMDL
MODEL 3
REMARK VINA RESULT:      -7.4      1.213      1.240
REMARK  Name = 
REMARK  9 active torsions:
REMARK  status: ('A' for Active; 'I' for Inactive)
REMARK    1  A    between atoms: N_1  and  C_2
REMARK    2  A    between atoms: C_2  and  C_3
REMARK    3  A    between atoms: C_3  and  C_4
REMARK    4  A    between atoms: C_4  and  C_5
REMARK    5  A    between atoms: C_5  and  C_6
REMARK    6  A    between atoms: C_6  and  C_7
REMARK    7  A    between atoms: C_7  and  N_8
REMARK    8  A    between atoms: N_8  and  S_9
REMARK    9  A    between atoms: S_9  and  C_12
REMARK                            x       y       z     vdW  Elec       q    Type
REMARK                         _______ _______ _______ _____ _____    ______ ____
ROOT
ATOM      1  S   UNL     1       6.461   5.118  17.099  0.00  0.00    +0.000 S 
ATOM      2  O   UNL     1       6.590   4.138  15.923  0.00  0.00    +0.000 OA
ATOM      3  O   UNL     1       7.207   4.388  18.227  0.00  0.00    +0.000 OA
ENDROOT
BRANCH   1   4
ATOM      4  C   UNL     1       4.753   5.522  17.513  0.00  0.00    +0.000 A 
ATOM      5  C   UNL     1       4.379   6.871  17.568  0.00  0.00    +0.000 A 
ATOM      6  C   UNL     1       3.062   7.233  17.859  0.00  0.00    +0.000 A 
ATOM      7  C   UNL     1       2.099   6.253  18.098  0.00  0.00    +0.000 A 
ATOM      8  C   UNL     1       2.449   4.896  18.045  0.00  0.00    +0.000 A 
ATOM      9  C   UNL     1       1.476   3.909  18.280  0.00  0.00    +0.000 A 
ATOM     10  C   UNL     1       1.813   2.558  18.222  0.00  0.00    +0.000 A 
ATOM     11  C   UNL     1       3.123   2.175  17.932  0.00  0.00    +0.000 A 
ATOM     12  C   UNL     1       4.107   3.142  17.696  0.00  0.00    +0.000 A 
ATOM     13  C   UNL     1       3.784   4.516  17.750  0.00  0.00    +0.000 A 
ENDBRANCH   1   4
BRANCH   1  14
ATOM     14  N   UNL     1       7.490   6.500  16.680  0.00  0.00    +0.000 NA
ATOM     15  H   UNL     1       8.372   6.124  16.261  0.00  0.00    +0.000 HD
BRANCH  14  16
ATOM     16  C   UNL     1       7.818   7.201  17.920  0.00  0.00    +0.000 C 
BRANCH  16  17
ATOM     17  C   UNL     1       7.889   8.716  17.692  0.00  0.00    +0.000 C 
BRANCH  17  18
ATOM     18  C   UNL     1       8.787   9.427  18.723  0.00  0.00    +0.000 C 
BRANCH  18  19
ATOM     19  C   UNL     1       9.264  10.799  18.219  0.00  0.00    +0.000 C 
BRANCH  19  20
ATOM     20  C   UNL     1       9.352  11.843  19.332  0.00  0.00    +0.000 C 
BRANCH  20  21
ATOM     21  C   UNL     1       9.720  11.147  20.653  0.00  0.00    +0.000 C 
BRANCH  21  22
ATOM     22  N   UNL     1       9.628  12.044  21.806  0.00  0.00    +0.000 NA
ATOM     23  H   UNL     1       9.095  12.905  21.547  0.00  0.00    +0.000 HD
ATOM     24  H   UNL     1       9.156  11.586  22.621  0.00  0.00    +0.000 HD
ENDBRANCH  21  22
ENDBRANCH  20  21
ENDBRANCH  19  20
ENDBRANCH  18  19
ENDBRANCH  17  18
ENDBRANCH  16  17
ENDBRANCH  14  16
ENDBRANCH   1  14
TORSDOF 9
ENDMDL
MODEL 4
REMARK VINA RESULT:      -7.2      1.287      1.795
REMARK  Name = 
REMARK  9 active torsions:
REMARK  status: ('A' for Active; 'I' for Inactive)
REMARK    1  A    between atoms: N_1  and  C_2
REMARK    2  A    between atoms: C_2  and  C_3
REMARK    3  A    between atoms: C_3  and  C_4
REMARK    4  A    between atoms: C_4  and  C_5
REMARK    5  A    between atoms: C_5  and  C_6
REMARK    6  A    between atoms: C_6  and  C_7
REMARK    7  A    between atoms: C_7  and  N_8
REMARK    8  A    between atoms: N_8  and  S_9
REMARK    9  A    between atoms: S_9  and  C_12
REMARK                            x       y       z     vdW  Elec       q    Type
REMARK                         _______ _______ _______ _____ _____    ______ ____
ROOT
ATOM      1  S   UNL     1       6.061   4.898  15.984  0.00  0.00    +0.000 S 
ATOM      2  O   UNL     1       6.495   5.840  14.851  0.00  0.00    +0.000 OA
ATOM      3  O   UNL     1       5.823   3.571  15.244  0.00  0.00    +0.000 OA
ENDROOT
BRANCH   1   4
ATOM      4  C   UNL     1       4.616   5.482  16.891  0.00  0.00    +0.000 A 
ATOM      5  C   UNL     1       4.441   6.862  17.053  0.00  0.00    +0.000 A 
ATOM      6  C   UNL     1       3.324   7.363  17.725  0.00  0.00    +0.000 A 
ATOM      7  C   UNL     1       2.365   6.494  18.243  0.00  0.00    +0.000 A 
ATOM      8  C   UNL     1       2.517   5.108  18.090  0.00  0.00    +0.000 A 
ATOM      9  C   UNL     1       1.546   4.233  18.607  0.00  0.00    +0.000 A 
ATOM     10  C   UNL     1       1.685   2.854  18.452  0.00  0.00    +0.000 A 
ATOM     11  C   UNL     1       2.793   2.333  17.784  0.00  0.00    +0.000 A 
ATOM     12  C   UNL     1       3.771   3.187  17.262  0.00  0.00    +0.000 A 
ATOM     13  C   UNL     1       3.647   4.587  17.409  0.00  0.00    +0.000 A 
ENDBRANCH   1   4
BRANCH   1  14
ATOM     14  N   UNL     1       7.516   4.630  16.960  0.00  0.00    +0.000 NA
ATOM     15  H   UNL     1       7.771   3.618  16.881  0.00  0.00    +0.000 HD
BRANCH  14  16
ATOM     16  C   UNL     1       7.178   4.924  18.351  0.00  0.00    +0.000 C 
BRANCH  16  17
ATOM     17  C   UNL     1       8.005   6.102  18.881  0.00  0.00    +0.000 C 
BRANCH  17  18
ATOM     18  C   UNL     1       7.767   7.399  18.081  0.00  0.00    +0.000 C 
BRANCH  18  19
ATOM     19  C   UNL     1       8.647   8.554  18.587  0.00  0.00    +0.000 C 
BRANCH  19  20
ATOM     20  C   UNL     1       8.454   9.841  17.787  0.00  0.00    +0.000 C 
BRANCH  20  21
ATOM     21  C   UNL     1       9.161  11.000  18.510  0.00  0.00    +0.000 C 
BRANCH  21  22
ATOM     22  N   UNL     1      10.348  11.470  17.795  0.00  0.00    +0.000 NA
ATOM     23  H   UNL     1      10.449  10.952  16.893  0.00  0.00    +0.000 HD
ATOM     24  H   UNL     1      10.303  12.496  17.594  0.00  0.00    +0.000 HD
ENDBRANCH  21  22
ENDBRANCH  20  21
ENDBRANCH  19  20
ENDBRANCH  18  19
ENDBRANCH  17  18
ENDBRANCH  16  17
ENDBRANCH  14  16
ENDBRANCH   1  14
TORSDOF 9
ENDMDL
MODEL 5
REMARK VINA RESULT:      -7.1      4.295      6.153
REMARK  Name = 
REMARK  9 active torsions:
REMARK  status: ('A' for Active; 'I' for Inactive)
REMARK    1  A    between atoms: N_1  and  C_2
REMARK    2  A    between atoms: C_2  and  C_3
REMARK    3  A    between atoms: C_3  and  C_4
REMARK    4  A    between atoms: C_4  and  C_5
REMARK    5  A    between atoms: C_5  and  C_6
REMARK    6  A    between atoms: C_6  and  C_7
REMARK    7  A    between atoms: C_7  and  N_8
REMARK    8  A    between atoms: N_8  and  S_9
REMARK    9  A    between atoms: S_9  and  C_12
REMARK                            x       y       z     vdW  Elec       q    Type
REMARK                         _______ _______ _______ _____ _____    ______ ____
ROOT
ATOM      1  S   UNL     1       3.482   3.243  18.299  0.00  0.00    +0.000 S 
ATOM      2  O   UNL     1       3.732   1.731  18.207  0.00  0.00    +0.000 OA
ATOM      3  O   UNL     1       2.437   3.478  17.195  0.00  0.00    +0.000 OA
ENDROOT
BRANCH   1   4
ATOM      4  C   UNL     1       4.974   4.233  18.094  0.00  0.00    +0.000 A 
ATOM      5  C   UNL     1       5.546   4.825  19.228  0.00  0.00    +0.000 A 
ATOM      6  C   UNL     1       6.716   5.579  19.124  0.00  0.00    +0.000 A 
ATOM      7  C   UNL     1       7.335   5.751  17.886  0.00  0.00    +0.000 A 
ATOM      8  C   UNL     1       6.784   5.166  16.737  0.00  0.00    +0.000 A 
ATOM      9  C   UNL     1       7.412   5.335  15.491  0.00  0.00    +0.000 A 
ATOM     10  C   UNL     1       6.875   4.750  14.345  0.00  0.00    +0.000 A 
ATOM     11  C   UNL     1       5.707   3.993  14.428  0.00  0.00    +0.000 A 
ATOM     12  C   UNL     1       5.065   3.813  15.658  0.00  0.00    +0.000 A 
ATOM     13  C   UNL     1       5.595   4.398  16.830  0.00  0.00    +0.000 A 
ENDBRANCH   1   4
BRANCH   1  14
ATOM     14  N   UNL     1       2.608   3.487  19.822  0.00  0.00    +0.000 NA
ATOM     15  H   UNL     1       2.112   2.595  20.052  0.00  0.00    +0.000 HD
BRANCH  14  16
ATOM     16  C   UNL     1       1.615   4.537  19.602  0.00  0.00    +0.000 C 
BRANCH  16  17
ATOM     17  C   UNL     1       1.784   5.675  20.615  0.00  0.00    +0.000 C 
BRANCH  17  18
ATOM     18  C   UNL     1       2.198   7.003  19.951  0.00  0.00    +0.000 C 
BRANCH  18  19
ATOM     19  C   UNL     1       2.471   6.831  18.447  0.00  0.00    +0.000 C 
BRANCH  19  20
ATOM     20  C   UNL     1       2.825   8.146  17.754  0.00  0.00    +0.000 C 
BRANCH  20  21
ATOM     21  C   UNL     1       1.644   9.123  17.884  0.00  0.00    +0.000 C 
BRANCH  21  22
ATOM     22  N   UNL     1       2.029  10.510  17.620  0.00  0.00    +0.000 NA
ATOM     23  H   UNL     1       2.538  10.902  18.445  0.00  0.00    +0.000 HD
ATOM     24  H   UNL     1       2.641  10.591  16.774  0.00  0.00    +0.000 HD
ENDBRANCH  21  22
ENDBRANCH  20  21
ENDBRANCH  19  20
ENDBRANCH  18  19
ENDBRANCH  17  18
ENDBRANCH  16  17
ENDBRANCH  14  16
ENDBRANCH   1  14
TORSDOF 9
ENDMDL
MODEL 6
REMARK VINA RESULT:      -7.0      3.931      5.511
REMARK  Name = 
REMARK  9 active torsions:
REMARK  status: ('A' for Active; 'I' for Inactive)
REMARK    1  A    between atoms: N_1  and  C_2
REMARK    2  A    between atoms: C_2  and  C_3
REMARK    3  A    between atoms: C_3  and  C_4
REMARK    4  A    between atoms: C_4  and  C_5
REMARK    5  A    between atoms: C_5  and  C_6
REMARK    6  A    between atoms: C_6  and  C_7
REMARK    7  A    between atoms: C_7  and  N_8
REMARK    8  A    between atoms: N_8  and  S_9
REMARK    9  A    between atoms: S_9  and  C_12
REMARK                            x       y       z     vdW  Elec       q    Type
REMARK                         _______ _______ _______ _____ _____    ______ ____
ROOT
ATOM      1  S   UNL     1       7.075   5.610  18.685  0.00  0.00    +0.000 S 
ATOM      2  O   UNL     1       7.481   5.322  20.138  0.00  0.00    +0.000 OA
ATOM      3  O   UNL     1       7.834   6.911  18.376  0.00  0.00    +0.000 OA
ENDROOT
BRANCH   1   4
ATOM      4  C   UNL     1       5.293   5.746  18.449  0.00  0.00    +0.000 A 
ATOM      5  C   UNL     1       4.788   6.886  17.810  0.00  0.00    +0.000 A 
ATOM      6  C   UNL     1       3.418   7.025  17.581  0.00  0.00    +0.000 A 
ATOM      7  C   UNL     1       2.532   6.028  17.986  0.00  0.00    +0.000 A 
ATOM      8  C   UNL     1       3.014   4.876  18.624  0.00  0.00    +0.000 A 
ATOM      9  C   UNL     1       2.120   3.868  19.026  0.00  0.00    +0.000 A 
ATOM     10  C   UNL     1       2.592   2.716  19.654  0.00  0.00    +0.000 A 
ATOM     11  C   UNL     1       3.957   2.557  19.891  0.00  0.00    +0.000 A 
ATOM     12  C   UNL     1       4.863   3.549  19.500  0.00  0.00    +0.000 A 
ATOM     13  C   UNL     1       4.404   4.723  18.862  0.00  0.00    +0.000 A 
ENDBRANCH   1   4
BRANCH   1  14
ATOM     14  N   UNL     1       7.879   4.364  17.713  0.00  0.00    +0.000 NA
ATOM     15  H   UNL     1       8.772   4.770  17.349  0.00  0.00    +0.000 HD
BRANCH  14  16
ATOM     16  C   UNL     1       7.007   4.051  16.582  0.00  0.00    +0.000 C 
BRANCH  16  17
ATOM     17  C   UNL     1       7.257   5.012  15.413  0.00  0.00    +0.000 C 
BRANCH  17  18
ATOM     18  C   UNL     1       5.984   5.280  14.585  0.00  0.00    +0.000 C 
BRANCH  18  19
ATOM     19  C   UNL     1       5.209   3.986  14.292  0.00  0.00    +0.000 C 
BRANCH  19  20
ATOM     20  C   UNL     1       5.050   3.714  12.796  0.00  0.00    +0.000 C 
BRANCH  20  21
ATOM     21  C   UNL     1       6.429   3.407  12.187  0.00  0.00    +0.000 C 
BRANCH  21  22
ATOM     22  N   UNL     1       6.536   2.029  11.705  0.00  0.00    +0.000 NA
ATOM     23  H   UNL     1       7.312   1.954  11.008  0.00  0.00    +0.000 HD
ATOM     24  H   UNL     1       6.716   1.355  12.485  0.00  0.00    +0.000 HD
ENDBRANCH  21  22
ENDBRANCH  20  21
ENDBRANCH  19  20
ENDBRANCH  18  19
ENDBRANCH  17  18
ENDBRANCH  16  17
ENDBRANCH  14  16
ENDBRANCH   1  14
TORSDOF 9
ENDMDL
MODEL 7
REMARK VINA RESULT:      -6.9      1.387      1.458
REMARK  Name = 
REMARK  9 active torsions:
REMARK  status: ('A' for Active; 'I' for Inactive)
REMARK    1  A    between atoms: N_1  and  C_2
REMARK    2  A    between atoms: C_2  and  C_3
REMARK    3  A    between atoms: C_3  and  C_4
REMARK    4  A    between atoms: C_4  and  C_5
REMARK    5  A    between atoms: C_5  and  C_6
REMARK    6  A    between atoms: C_6  and  C_7
REMARK    7  A    between atoms: C_7  and  N_8
REMARK    8  A    between atoms: N_8  and  S_9
REMARK    9  A    between atoms: S_9  and  C_12
REMARK                            x       y       z     vdW  Elec       q    Type
REMARK                         _______ _______ _______ _____ _____    ______ ____
ROOT
ATOM      1  S   UNL     1       6.971   6.113  17.681  0.00  0.00    +0.000 S 
ATOM      2  O   UNL     1       7.428   5.083  16.637  0.00  0.00    +0.000 OA
ATOM      3  O   UNL     1       7.749   5.686  18.937  0.00  0.00    +0.000 OA
ENDROOT
BRANCH   1   4
ATOM      4  C   UNL     1       5.185   6.149  17.922  0.00  0.00    +0.000 A 
ATOM      5  C   UNL     1       4.473   7.273  17.485  0.00  0.00    +0.000 A 
ATOM      6  C   UNL     1       3.085   7.336  17.626  0.00  0.00    +0.000 A 
ATOM      7  C   UNL     1       2.388   6.276  18.204  0.00  0.00    +0.000 A 
ATOM      8  C   UNL     1       3.078   5.137  18.646  0.00  0.00    +0.000 A 
ATOM      9  C   UNL     1       2.374   4.067  19.223  0.00  0.00    +0.000 A 
ATOM     10  C   UNL     1       3.051   2.929  19.658  0.00  0.00    +0.000 A 
ATOM     11  C   UNL     1       4.437   2.846  19.525  0.00  0.00    +0.000 A 
ATOM     12  C   UNL     1       5.158   3.902  18.955  0.00  0.00    +0.000 A 
ATOM     13  C   UNL     1       4.489   5.062  18.508  0.00  0.00    +0.000 A 
ENDBRANCH   1   4
BRANCH   1  14
ATOM     14  N   UNL     1       7.704   7.649  17.183  0.00  0.00    +0.000 NA
ATOM     15  H   UNL     1       8.428   7.437  16.458  0.00  0.00    +0.000 HD
BRANCH  14  16
ATOM     16  C   UNL     1       8.362   8.227  18.352  0.00  0.00    +0.000 C 
BRANCH  16  17
ATOM     17  C   UNL     1       8.513   9.746  18.204  0.00  0.00    +0.000 C 
BRANCH  17  18
ATOM     18  C   UNL     1       9.333  10.374  19.348  0.00  0.00    +0.000 C 
BRANCH  18  19
ATOM     19  C   UNL     1      10.452  11.285  18.819  0.00  0.00    +0.000 C 
BRANCH  19  20
ATOM     20  C   UNL     1      10.026  12.101  17.598  0.00  0.00    +0.000 C 
BRANCH  20  21
ATOM     21  C   UNL     1      10.816  13.420  17.568  0.00  0.00    +0.000 C 
BRANCH  21  22
ATOM     22  N   UNL     1      11.215  13.806  16.214  0.00  0.00    +0.000 NA
ATOM     23  H   UNL     1      11.120  14.841  16.095  0.00  0.00    +0.000 HD
ATOM     24  H   UNL     1      12.203  13.531  16.005  0.00  0.00    +0.000 HD
ENDBRANCH  21  22
ENDBRANCH  20  21
ENDBRANCH  19  20
ENDBRANCH  18  19
ENDBRANCH  17  18
ENDBRANCH  16  17
ENDBRANCH  14  16
ENDBRANCH   1  14
TORSDOF 9
ENDMDL
MODEL 8
REMARK VINA RESULT:      -6.8      4.008      6.564
REMARK  Name = 
REMARK  9 active torsions:
REMARK  status: ('A' for Active; 'I' for Inactive)
REMARK    1  A    between atoms: N_1  and  C_2
REMARK    2  A    between atoms: C_2  and  C_3
REMARK    3  A    between atoms: C_3  and  C_4
REMARK    4  A    between atoms: C_4  and  C_5
REMARK    5  A    between atoms: C_5  and  C_6
REMARK    6  A    between atoms: C_6  and  C_7
REMARK    7  A    between atoms: C_7  and  N_8
REMARK    8  A    between atoms: N_8  and  S_9
REMARK    9  A    between atoms: S_9  and  C_12
REMARK                            x       y       z     vdW  Elec       q    Type
REMARK                         _______ _______ _______ _____ _____    ______ ____
ROOT
ATOM      1  S   UNL     1       6.086   5.562  16.201  0.00  0.00    +0.000 S 
ATOM      2  O   UNL     1       6.793   4.267  16.628  0.00  0.00    +0.000 OA
ATOM      3  O   UNL     1       7.158   6.633  16.466  0.00  0.00    +0.000 OA
ENDROOT
BRANCH   1   4
ATOM      4  C   UNL     1       4.541   5.862  17.081  0.00  0.00    +0.000 A 
ATOM      5  C   UNL     1       4.189   7.184  17.384  0.00  0.00    +0.000 A 
ATOM      6  C   UNL     1       2.991   7.469  18.041  0.00  0.00    +0.000 A 
ATOM      7  C   UNL     1       2.125   6.438  18.404  0.00  0.00    +0.000 A 
ATOM      8  C   UNL     1       2.454   5.107  18.108  0.00  0.00    +0.000 A 
ATOM      9  C   UNL     1       1.577   4.069  18.469  0.00  0.00    +0.000 A 
ATOM     10  C   UNL     1       1.892   2.744  18.172  0.00  0.00    +0.000 A 
ATOM     11  C   UNL     1       3.084   2.438  17.516  0.00  0.00    +0.000 A 
ATOM     12  C   UNL     1       3.972   3.457  17.149  0.00  0.00    +0.000 A 
ATOM     13  C   UNL     1       3.669   4.805  17.441  0.00  0.00    +0.000 A 
ENDBRANCH   1   4
BRANCH   1  14
ATOM     14  N   UNL     1       5.951   5.469  14.436  0.00  0.00    +0.000 NA
ATOM     15  H   UNL     1       5.034   5.019  14.209  0.00  0.00    +0.000 HD
BRANCH  14  16
ATOM     16  C   UNL     1       7.030   4.608  13.953  0.00  0.00    +0.000 C 
BRANCH  16  17
ATOM     17  C   UNL     1       6.755   4.132  12.521  0.00  0.00    +0.000 C 
BRANCH  17  18
ATOM     18  C   UNL     1       6.292   2.663  12.465  0.00  0.00    +0.000 C 
BRANCH  18  19
ATOM     19  C   UNL     1       5.241   2.436  11.366  0.00  0.00    +0.000 C 
BRANCH  19  20
ATOM     20  C   UNL     1       4.122   3.477  11.390  0.00  0.00    +0.000 C 
BRANCH  20  21
ATOM     21  C   UNL     1       3.193   3.252  10.185  0.00  0.00    +0.000 C 
BRANCH  21  22
ATOM     22  N   UNL     1       2.766   4.506   9.561  0.00  0.00    +0.000 NA
ATOM     23  H   UNL     1       3.430   4.769   8.799  0.00  0.00    +0.000 HD
ATOM     24  H   UNL     1       1.801   4.433   9.161  0.00  0.00    +0.000 HD
ENDBRANCH  21  22
ENDBRANCH  20  21
ENDBRANCH  19  20
ENDBRANCH  18  19
ENDBRANCH  17  18
ENDBRANCH  16  17
ENDBRANCH  14  16
ENDBRANCH   1  14
TORSDOF 9
ENDMDL
MODEL 9
REMARK VINA RESULT:      -6.8      4.455      6.312
REMARK  Name = 
REMARK  9 active torsions:
REMARK  status: ('A' for Active; 'I' for Inactive)
REMARK    1  A    between atoms: N_1  and  C_2
REMARK    2  A    between atoms: C_2  and  C_3
REMARK    3  A    between atoms: C_3  and  C_4
REMARK    4  A    between atoms: C_4  and  C_5
REMARK    5  A    between atoms: C_5  and  C_6
REMARK    6  A    between atoms: C_6  and  C_7
REMARK    7  A    between atoms: C_7  and  N_8
REMARK    8  A    between atoms: N_8  and  S_9
REMARK    9  A    between atoms: S_9  and  C_12
REMARK                            x       y       z     vdW  Elec       q    Type
REMARK                         _______ _______ _______ _____ _____    ______ ____
ROOT
ATOM      1  S   UNL     1       5.009   5.720  17.414  0.00  0.00    +0.000 S 
ATOM      2  O   UNL     1       6.267   6.269  18.103  0.00  0.00    +0.000 OA
ATOM      3  O   UNL     1       4.748   6.762  16.313  0.00  0.00    +0.000 OA
ENDROOT
BRANCH   1   4
ATOM      4  C   UNL     1       3.614   5.498  18.535  0.00  0.00    +0.000 A 
ATOM      5  C   UNL     1       3.245   6.565  19.364  0.00  0.00    +0.000 A 
ATOM      6  C   UNL     1       2.156   6.450  20.230  0.00  0.00    +0.000 A 
ATOM      7  C   UNL     1       1.418   5.268  20.279  0.00  0.00    +0.000 A 
ATOM      8  C   UNL     1       1.766   4.186  19.456  0.00  0.00    +0.000 A 
ATOM      9  C   UNL     1       1.018   2.998  19.503  0.00  0.00    +0.000 A 
ATOM     10  C   UNL     1       1.351   1.921  18.682  0.00  0.00    +0.000 A 
ATOM     11  C   UNL     1       2.435   2.016  17.810  0.00  0.00    +0.000 A 
ATOM     12  C   UNL     1       3.195   3.190  17.749  0.00  0.00    +0.000 A 
ATOM     13  C   UNL     1       2.871   4.292  18.572  0.00  0.00    +0.000 A 
ENDBRANCH   1   4
BRANCH   1  14
ATOM     14  N   UNL     1       5.537   4.261  16.555  0.00  0.00    +0.000 NA
ATOM     15  H   UNL     1       5.557   3.475  17.245  0.00  0.00    +0.000 HD
BRANCH  14  16
ATOM     16  C   UNL     1       6.895   4.499  16.070  0.00  0.00    +0.000 C 
BRANCH  16  17
ATOM     17  C   UNL     1       6.912   4.672  14.546  0.00  0.00    +0.000 C 
BRANCH  17  18
ATOM     18  C   UNL     1       5.975   3.681  13.828  0.00  0.00    +0.000 C 
BRANCH  18  19
ATOM     19  C   UNL     1       6.332   3.531  12.340  0.00  0.00    +0.000 C 
BRANCH  19  20
ATOM     20  C   UNL     1       5.560   2.404  11.655  0.00  0.00    +0.000 C 
BRANCH  20  21
ATOM     21  C   UNL     1       6.556   1.377  11.089  0.00  0.00    +0.000 C 
BRANCH  21  22
ATOM     22  N   UNL     1       6.204  -0.001  11.439  0.00  0.00    +0.000 NA
ATOM     23  H   UNL     1       6.762  -0.312  12.266  0.00  0.00    +0.000 HD
ATOM     24  H   UNL     1       5.186  -0.099  11.660  0.00  0.00    +0.000 HD
ENDBRANCH  21  22
ENDBRANCH  20  21
ENDBRANCH  19  20
ENDBRANCH  18  19
ENDBRANCH  17  18
ENDBRANCH  16  17
ENDBRANCH  14  16
ENDBRANCH   1  14
TORSDOF 9
ENDMDL
