MODEL 1
REMARK VINA RESULT:      -8.9      0.000      0.000
REMARK  Name = 
REMARK  3 active torsions:
REMARK  status: ('A' for Active; 'I' for Inactive)
REMARK    1  A    between atoms: C_2  and  C_3
REMARK    2  A    between atoms: C_6  and  C_7
REMARK    3  A    between atoms: C_18  and  C_19
REMARK                            x       y       z     vdW  Elec       q    Type
REMARK                         _______ _______ _______ _____ _____    ______ ____
ROOT
ATOM      1  O   UNL     1       1.113   9.491  22.391  0.00  0.00    +0.000 OA
ATOM      2  C   UNL     1       0.745   9.450  21.213  0.00  0.00    +0.000 C 
ATOM      3  N   UNL     1      -0.289  10.248  20.716  0.00  0.00    +0.000 N 
ATOM      4  C   UNL     1      -0.961  10.079  19.429  0.00  0.00    +0.000 C 
ATOM      5  C   UNL     1      -0.769  11.343  18.596  0.00  0.00    +0.000 C 
ATOM      6  C   UNL     1      -1.348  12.567  19.331  0.00  0.00    +0.000 C 
ATOM      7  C   UNL     1      -0.777  12.658  20.762  0.00  0.00    +0.000 C 
ATOM      8  C   UNL     1      -0.826  11.332  21.533  0.00  0.00    +0.000 C 
ENDROOT
BRANCH   6   9
ATOM      9  C   UNL     1      -2.850  12.495  19.323  0.00  0.00    +0.000 A 
ATOM     10  N   UNL     1      -3.645  12.741  20.342  0.00  0.00    +0.000 NA
ATOM     11  C   UNL     1      -4.889  12.319  19.959  0.00  0.00    +0.000 A 
ATOM     12  C   UNL     1      -6.078  12.277  20.696  0.00  0.00    +0.000 A 
ATOM     13  C   UNL     1      -7.224  11.758  20.085  0.00  0.00    +0.000 A 
ATOM     14  C   UNL     1      -7.183  11.296  18.766  0.00  0.00    +0.000 A 
ATOM     15  C   UNL     1      -6.001  11.335  18.014  0.00  0.00    +0.000 A 
ATOM     16  C   UNL     1      -4.871  11.853  18.650  0.00  0.00    +0.000 A 
ATOM     17  N   UNL     1      -3.568  12.021  18.250  0.00  0.00    +0.000 N 
ATOM     18  H   UNL     1      -3.188  11.756  17.353  0.00  0.00    +0.000 HD
ENDBRANCH   6   9
BRANCH   2  19
ATOM     19  C   UNL     1       1.466   8.516  20.288  0.00  0.00    +0.000 A 
ATOM     20  C   UNL     1       1.737   7.220  20.701  0.00  0.00    +0.000 A 
ATOM     21  C   UNL     1       2.423   6.371  19.826  0.00  0.00    +0.000 A 
ATOM     22  C   UNL     1       2.841   6.827  18.566  0.00  0.00    +0.000 A 
ATOM     23  C   UNL     1       2.526   8.155  18.269  0.00  0.00    +0.000 A 
ATOM     24  N   UNL     1       1.873   9.006  19.091  0.00  0.00    +0.000 NA
BRANCH  22  25
ATOM     25  C   UNL     1       3.601   5.987  17.620  0.00  0.00    +0.000 A 
ATOM     26  C   UNL     1       4.542   6.546  16.732  0.00  0.00    +0.000 A 
ATOM     27  C   UNL     1       5.308   5.743  15.882  0.00  0.00    +0.000 A 
ATOM     28  C   UNL     1       5.137   4.364  15.886  0.00  0.00    +0.000 A 
ATOM     29  C   UNL     1       4.202   3.788  16.740  0.00  0.00    +0.000 A 
ATOM     30  C   UNL     1       3.446   4.591  17.598  0.00  0.00    +0.000 A 
ENDBRANCH  22  25
ENDBRANCH   2  19
TORSDOF 3
ENDMDL
MODEL 2
REMARK VINA RESULT:      -8.9      1.116      1.738
REMARK  Name = 
REMARK  3 active torsions:
REMARK  status: ('A' for Active; 'I' for Inactive)
REMARK    1  A    between atoms: C_2  and  C_3
REMARK    2  A    between atoms: C_6  and  C_7
REMARK    3  A    between atoms: C_18  and  C_19
REMARK                            x       y       z     vdW  Elec       q    Type
REMARK                         _______ _______ _______ _____ _____    ______ ____
ROOT
ATOM      1  O   UNL     1       1.257  11.062  21.301  0.00  0.00    +0.000 OA
ATOM      2  C   UNL     1       0.647  10.474  20.404  0.00  0.00    +0.000 C 
ATOM      3  N   UNL     1      -0.636  10.845  19.992  0.00  0.00    +0.000 N 
ATOM      4  C   UNL     1      -1.526  10.056  19.142  0.00  0.00    +0.000 C 
ATOM      5  C   UNL     1      -1.844  10.852  17.880  0.00  0.00    +0.000 C 
ATOM      6  C   UNL     1      -2.517  12.191  18.241  0.00  0.00    +0.000 C 
ATOM      7  C   UNL     1      -1.670  12.959  19.277  0.00  0.00    +0.000 C 
ATOM      8  C   UNL     1      -1.215  12.099  20.464  0.00  0.00    +0.000 C 
ENDROOT
BRANCH   6   9
ATOM      9  C   UNL     1      -3.916  11.936  18.729  0.00  0.00    +0.000 A 
ATOM     10  N   UNL     1      -4.539  12.596  19.681  0.00  0.00    +0.000 NA
ATOM     11  C   UNL     1      -5.671  11.879  19.958  0.00  0.00    +0.000 A 
ATOM     12  C   UNL     1      -6.642  12.096  20.942  0.00  0.00    +0.000 A 
ATOM     13  C   UNL     1      -7.698  11.186  21.050  0.00  0.00    +0.000 A 
ATOM     14  C   UNL     1      -7.786  10.088  20.189  0.00  0.00    +0.000 A 
ATOM     15  C   UNL     1      -6.824   9.859  19.196  0.00  0.00    +0.000 A 
ATOM     16  C   UNL     1      -5.777  10.779  19.115  0.00  0.00    +0.000 A 
ATOM     17  N   UNL     1      -4.670  10.865  18.308  0.00  0.00    +0.000 N 
ATOM     18  H   UNL     1      -4.409  10.203  17.591  0.00  0.00    +0.000 HD
ENDBRANCH   6   9
BRANCH   2  19
ATOM     19  C   UNL     1       1.339   9.330  19.724  0.00  0.00    +0.000 A 
ATOM     20  C   UNL     1       1.676   9.436  18.382  0.00  0.00    +0.000 A 
ATOM     21  C   UNL     1       2.310   8.352  17.767  0.00  0.00    +0.000 A 
ATOM     22  C   UNL     1       2.582   7.178  18.488  0.00  0.00    +0.000 A 
ATOM     23  C   UNL     1       2.181   7.183  19.825  0.00  0.00    +0.000 A 
ATOM     24  N   UNL     1       1.560   8.208  20.451  0.00  0.00    +0.000 NA
BRANCH  22  25
ATOM     25  C   UNL     1       3.213   5.990  17.879  0.00  0.00    +0.000 A 
ATOM     26  C   UNL     1       2.608   4.719  17.949  0.00  0.00    +0.000 A 
ATOM     27  C   UNL     1       3.173   3.607  17.317  0.00  0.00    +0.000 A 
ATOM     28  C   UNL     1       4.366   3.738  16.615  0.00  0.00    +0.000 A 
ATOM     29  C   UNL     1       4.992   4.977  16.545  0.00  0.00    +0.000 A 
ATOM     30  C   UNL     1       4.420   6.090  17.167  0.00  0.00    +0.000 A 
ENDBRANCH  22  25
ENDBRANCH   2  19
TORSDOF 3
ENDMDL
MODEL 3
REMARK VINA RESULT:      -8.9      0.632      1.318
REMARK  Name = 
REMARK  3 active torsions:
REMARK  status: ('A' for Active; 'I' for Inactive)
REMARK    1  A    between atoms: C_2  and  C_3
REMARK    2  A    between atoms: C_6  and  C_7
REMARK    3  A    between atoms: C_18  and  C_19
REMARK                            x       y       z     vdW  Elec       q    Type
REMARK                         _______ _______ _______ _____ _____    ______ ____
ROOT
ATOM      1  O   UNL     1       1.021   8.901  22.313  0.00  0.00    +0.000 OA
ATOM      2  C   UNL     1       0.786   9.070  21.113  0.00  0.00    +0.000 C 
ATOM      3  N   UNL     1      -0.199   9.945  20.651  0.00  0.00    +0.000 N 
ATOM      4  C   UNL     1      -0.721  10.008  19.286  0.00  0.00    +0.000 C 
ATOM      5  C   UNL     1      -0.459  11.398  18.716  0.00  0.00    +0.000 C 
ATOM      6  C   UNL     1      -1.138  12.475  19.584  0.00  0.00    +0.000 C 
ATOM      7  C   UNL     1      -0.731  12.311  21.064  0.00  0.00    +0.000 C 
ATOM      8  C   UNL     1      -0.842  10.870  21.579  0.00  0.00    +0.000 C 
ENDROOT
BRANCH   6   9
ATOM      9  C   UNL     1      -2.628  12.410  19.394  0.00  0.00    +0.000 A 
ATOM     10  N   UNL     1      -3.539  12.647  20.313  0.00  0.00    +0.000 NA
ATOM     11  C   UNL     1      -4.729  12.234  19.779  0.00  0.00    +0.000 A 
ATOM     12  C   UNL     1      -5.999  12.189  20.366  0.00  0.00    +0.000 A 
ATOM     13  C   UNL     1      -7.064  11.681  19.615  0.00  0.00    +0.000 A 
ATOM     14  C   UNL     1      -6.865  11.236  18.305  0.00  0.00    +0.000 A 
ATOM     15  C   UNL     1      -5.601  11.278  17.702  0.00  0.00    +0.000 A 
ATOM     16  C   UNL     1      -4.555  11.784  18.476  0.00  0.00    +0.000 A 
ATOM     17  N   UNL     1      -3.213  11.951  18.237  0.00  0.00    +0.000 N 
ATOM     18  H   UNL     1      -2.728  11.695  17.390  0.00  0.00    +0.000 HD
ENDBRANCH   6   9
BRANCH   2  19
ATOM     19  C   UNL     1       1.623   8.311  20.126  0.00  0.00    +0.000 A 
ATOM     20  C   UNL     1       1.967   8.907  18.922  0.00  0.00    +0.000 A 
ATOM     21  C   UNL     1       2.737   8.175  18.012  0.00  0.00    +0.000 A 
ATOM     22  C   UNL     1       3.136   6.861  18.305  0.00  0.00    +0.000 A 
ATOM     23  C   UNL     1       2.714   6.364  19.540  0.00  0.00    +0.000 A 
ATOM     24  N   UNL     1       1.964   7.038  20.440  0.00  0.00    +0.000 NA
BRANCH  22  25
ATOM     25  C   UNL     1       3.915   6.031  17.366  0.00  0.00    +0.000 A 
ATOM     26  C   UNL     1       3.837   4.624  17.390  0.00  0.00    +0.000 A 
ATOM     27  C   UNL     1       4.524   3.840  16.459  0.00  0.00    +0.000 A 
ATOM     28  C   UNL     1       5.321   4.445  15.493  0.00  0.00    +0.000 A 
ATOM     29  C   UNL     1       5.429   5.831  15.459  0.00  0.00    +0.000 A 
ATOM     30  C   UNL     1       4.731   6.613  16.383  0.00  0.00    +0.000 A 
ENDBRANCH  22  25
ENDBRANCH   2  19
TORSDOF 3
ENDMDL
MODEL 4
REMARK VINA RESULT:      -8.7      0.780      1.138
REMARK  Name = 
REMARK  3 active torsions:
REMARK  status: ('A' for Active; 'I' for Inactive)
REMARK    1  A    between atoms: C_2  and  C_3
REMARK    2  A    between atoms: C_6  and  C_7
REMARK    3  A    between atoms: C_18  and  C_19
REMARK                            x       y       z     vdW  Elec       q    Type
REMARK                         _______ _______ _______ _____ _____    ______ ____
ROOT
ATOM      1  O   UNL     1       1.359  10.043  22.270  0.00  0.00    +0.000 OA
ATOM      2  C   UNL     1       0.825   9.812  21.180  0.00  0.00    +0.000 C 
ATOM      3  N   UNL     1      -0.280  10.527  20.712  0.00  0.00    +0.000 N 
ATOM      4  C   UNL     1      -1.128  10.155  19.581  0.00  0.00    +0.000 C 
ATOM      5  C   UNL     1      -1.074  11.261  18.532  0.00  0.00    +0.000 C 
ATOM      6  C   UNL     1      -1.558  12.596  19.130  0.00  0.00    +0.000 C 
ATOM      7  C   UNL     1      -0.788  12.917  20.428  0.00  0.00    +0.000 C 
ATOM      8  C   UNL     1      -0.708  11.738  21.407  0.00  0.00    +0.000 C 
ENDROOT
BRANCH   6   9
ATOM      9  C   UNL     1      -3.045  12.540  19.350  0.00  0.00    +0.000 A 
ATOM     10  N   UNL     1      -3.678  12.864  20.457  0.00  0.00    +0.000 NA
ATOM     11  C   UNL     1      -4.965  12.430  20.293  0.00  0.00    +0.000 A 
ATOM     12  C   UNL     1      -6.032  12.451  21.199  0.00  0.00    +0.000 A 
ATOM     13  C   UNL     1      -7.256  11.903  20.803  0.00  0.00    +0.000 A 
ATOM     14  C   UNL     1      -7.412  11.353  19.528  0.00  0.00    +0.000 A 
ATOM     15  C   UNL     1      -6.355  11.327  18.608  0.00  0.00    +0.000 A 
ATOM     16  C   UNL     1      -5.143  11.875  19.031  0.00  0.00    +0.000 A 
ATOM     17  N   UNL     1      -3.915  12.001  18.431  0.00  0.00    +0.000 N 
ATOM     18  H   UNL     1      -3.672  11.672  17.509  0.00  0.00    +0.000 HD
ENDBRANCH   6   9
BRANCH   2  19
ATOM     19  C   UNL     1       1.419   8.729  20.329  0.00  0.00    +0.000 A 
ATOM     20  C   UNL     1       1.766   9.006  19.015  0.00  0.00    +0.000 A 
ATOM     21  C   UNL     1       2.306   7.978  18.237  0.00  0.00    +0.000 A 
ATOM     22  C   UNL     1       2.476   6.689  18.770  0.00  0.00    +0.000 A 
ATOM     23  C   UNL     1       2.073   6.528  20.098  0.00  0.00    +0.000 A 
ATOM     24  N   UNL     1       1.541   7.496  20.877  0.00  0.00    +0.000 NA
BRANCH  22  25
ATOM     25  C   UNL     1       3.003   5.558  17.983  0.00  0.00    +0.000 A 
ATOM     26  C   UNL     1       4.244   5.639  17.320  0.00  0.00    +0.000 A 
ATOM     27  C   UNL     1       4.774   4.545  16.629  0.00  0.00    +0.000 A 
ATOM     28  C   UNL     1       4.065   3.351  16.568  0.00  0.00    +0.000 A 
ATOM     29  C   UNL     1       2.829   3.250  17.199  0.00  0.00    +0.000 A 
ATOM     30  C   UNL     1       2.307   4.341  17.900  0.00  0.00    +0.000 A 
ENDBRANCH  22  25
ENDBRANCH   2  19
TORSDOF 3
ENDMDL
MODEL 5
REMARK VINA RESULT:      -8.7      1.434      2.036
REMARK  Name = 
REMARK  3 active torsions:
REMARK  status: ('A' for Active; 'I' for Inactive)
REMARK    1  A    between atoms: C_2  and  C_3
REMARK    2  A    between atoms: C_6  and  C_7
REMARK    3  A    between atoms: C_18  and  C_19
REMARK                            x       y       z     vdW  Elec       q    Type
REMARK                         _______ _______ _______ _____ _____    ______ ____
ROOT
ATOM      1  O   UNL     1       1.624  11.355  20.349  0.00  0.00    +0.000 OA
ATOM      2  C   UNL     1       0.893  10.527  19.798  0.00  0.00    +0.000 C 
ATOM      3  N   UNL     1      -0.418  10.815  19.412  0.00  0.00    +0.000 N 
ATOM      4  C   UNL     1      -1.428   9.838  19.007  0.00  0.00    +0.000 C 
ATOM      5  C   UNL     1      -1.873  10.143  17.580  0.00  0.00    +0.000 C 
ATOM      6  C   UNL     1      -2.456  11.566  17.488  0.00  0.00    +0.000 C 
ATOM      7  C   UNL     1      -1.468  12.594  18.076  0.00  0.00    +0.000 C 
ATOM      8  C   UNL     1      -0.899  12.193  19.444  0.00  0.00    +0.000 C 
ENDROOT
BRANCH   6   9
ATOM      9  C   UNL     1      -3.794  11.607  18.175  0.00  0.00    +0.000 A 
ATOM     10  N   UNL     1      -4.143  12.422  19.147  0.00  0.00    +0.000 NA
ATOM     11  C   UNL     1      -5.334  11.949  19.626  0.00  0.00    +0.000 A 
ATOM     12  C   UNL     1      -6.097  12.397  20.710  0.00  0.00    +0.000 A 
ATOM     13  C   UNL     1      -7.274  11.712  21.027  0.00  0.00    +0.000 A 
ATOM     14  C   UNL     1      -7.681  10.607  20.274  0.00  0.00    +0.000 A 
ATOM     15  C   UNL     1      -6.930  10.148  19.183  0.00  0.00    +0.000 A 
ATOM     16  C   UNL     1      -5.758  10.847  18.892  0.00  0.00    +0.000 A 
ATOM     17  N   UNL     1      -4.781  10.678  17.942  0.00  0.00    +0.000 N 
ATOM     18  H   UNL     1      -4.751   9.943  17.251  0.00  0.00    +0.000 HD
ENDBRANCH   6   9
BRANCH   2  19
ATOM     19  C   UNL     1       1.463   9.168  19.522  0.00  0.00    +0.000 A 
ATOM     20  C   UNL     1       1.939   8.872  18.253  0.00  0.00    +0.000 A 
ATOM     21  C   UNL     1       2.455   7.594  18.016  0.00  0.00    +0.000 A 
ATOM     22  C   UNL     1       2.474   6.628  19.035  0.00  0.00    +0.000 A 
ATOM     23  C   UNL     1       1.951   7.037  20.264  0.00  0.00    +0.000 A 
ATOM     24  N   UNL     1       1.439   8.260  20.527  0.00  0.00    +0.000 NA
BRANCH  22  25
ATOM     25  C   UNL     1       2.969   5.254  18.829  0.00  0.00    +0.000 A 
ATOM     26  C   UNL     1       3.267   4.764  17.541  0.00  0.00    +0.000 A 
ATOM     27  C   UNL     1       3.797   3.485  17.352  0.00  0.00    +0.000 A 
ATOM     28  C   UNL     1       4.025   2.658  18.446  0.00  0.00    +0.000 A 
ATOM     29  C   UNL     1       3.724   3.109  19.726  0.00  0.00    +0.000 A 
ATOM     30  C   UNL     1       3.205   4.394  19.914  0.00  0.00    +0.000 A 
ENDBRANCH  22  25
ENDBRANCH   2  19
TORSDOF 3
ENDMDL
MODEL 6
REMARK VINA RESULT:      -8.6      3.561      5.101
REMARK  Name = 
REMARK  3 active torsions:
REMARK  status: ('A' for Active; 'I' for Inactive)
REMARK    1  A    between atoms: C_2  and  C_3
REMARK    2  A    between atoms: C_6  and  C_7
REMARK    3  A    between atoms: C_18  and  C_19
REMARK                            x       y       z     vdW  Elec       q    Type
REMARK                         _______ _______ _______ _____ _____    ______ ____
ROOT
ATOM      1  O   UNL     1      -1.008  10.459  20.808  0.00  0.00    +0.000 OA
ATOM      2  C   UNL     1      -0.009  10.807  20.171  0.00  0.00    +0.000 C 
ATOM      3  N   UNL     1       0.366  12.145  20.024  0.00  0.00    +0.000 N 
ATOM      4  C   UNL     1       1.360  12.659  19.082  0.00  0.00    +0.000 C 
ATOM      5  C   UNL     1       2.476  13.346  19.862  0.00  0.00    +0.000 C 
ATOM      6  C   UNL     1       1.911  14.503  20.709  0.00  0.00    +0.000 C 
ATOM      7  C   UNL     1       0.739  14.010  21.583  0.00  0.00    +0.000 C 
ATOM      8  C   UNL     1      -0.296  13.176  20.817  0.00  0.00    +0.000 C 
ENDROOT
BRANCH   6   9
ATOM      9  C   UNL     1       1.508  15.637  19.807  0.00  0.00    +0.000 A 
ATOM     10  N   UNL     1       0.301  16.145  19.691  0.00  0.00    +0.000 NA
ATOM     11  C   UNL     1       0.344  16.970  18.600  0.00  0.00    +0.000 A 
ATOM     12  C   UNL     1      -0.689  17.693  17.991  0.00  0.00    +0.000 A 
ATOM     13  C   UNL     1      -0.396  18.442  16.847  0.00  0.00    +0.000 A 
ATOM     14  C   UNL     1       0.901  18.473  16.328  0.00  0.00    +0.000 A 
ATOM     15  C   UNL     1       1.947  17.759  16.928  0.00  0.00    +0.000 A 
ATOM     16  C   UNL     1       1.625  17.015  18.065  0.00  0.00    +0.000 A 
ATOM     17  N   UNL     1       2.361  16.193  18.882  0.00  0.00    +0.000 N 
ATOM     18  H   UNL     1       3.338  15.967  18.766  0.00  0.00    +0.000 HD
ENDBRANCH   6   9
BRANCH   2  19
ATOM     19  C   UNL     1       0.837   9.731  19.559  0.00  0.00    +0.000 A 
ATOM     20  C   UNL     1       1.089   9.752  18.195  0.00  0.00    +0.000 A 
ATOM     21  C   UNL     1       1.870   8.731  17.646  0.00  0.00    +0.000 A 
ATOM     22  C   UNL     1       2.372   7.698  18.454  0.00  0.00    +0.000 A 
ATOM     23  C   UNL     1       2.038   7.775  19.808  0.00  0.00    +0.000 A 
ATOM     24  N   UNL     1       1.281   8.741  20.373  0.00  0.00    +0.000 NA
BRANCH  22  25
ATOM     25  C   UNL     1       3.168   6.576  17.921  0.00  0.00    +0.000 A 
ATOM     26  C   UNL     1       2.785   5.236  18.133  0.00  0.00    +0.000 A 
ATOM     27  C   UNL     1       3.503   4.175  17.573  0.00  0.00    +0.000 A 
ATOM     28  C   UNL     1       4.632   4.429  16.802  0.00  0.00    +0.000 A 
ATOM     29  C   UNL     1       5.042   5.741  16.592  0.00  0.00    +0.000 A 
ATOM     30  C   UNL     1       4.316   6.801  17.142  0.00  0.00    +0.000 A 
ENDBRANCH  22  25
ENDBRANCH   2  19
TORSDOF 3
ENDMDL
MODEL 7
REMARK VINA RESULT:      -8.6      0.403      1.143
REMARK  Name = 
REMARK  3 active torsions:
REMARK  status: ('A' for Active; 'I' for Inactive)
REMARK    1  A    between atoms: C_2  and  C_3
REMARK    2  A    between atoms: C_6  and  C_7
REMARK    3  A    between atoms: C_18  and  C_19
REMARK                            x       y       z     vdW  Elec       q    Type
REMARK                         _______ _______ _______ _____ _____    ______ ____
ROOT
ATOM      1  O   UNL     1       1.214   9.639  22.251  0.00  0.00    +0.000 OA
ATOM      2  C   UNL     1       0.792   9.517  21.097  0.00  0.00    +0.000 C 
ATOM      3  N   UNL     1      -0.305  10.234  20.612  0.00  0.00    +0.000 N 
ATOM      4  C   UNL     1      -1.028   9.962  19.371  0.00  0.00    +0.000 C 
ATOM      5  C   UNL     1      -0.942  11.187  18.466  0.00  0.00    +0.000 C 
ATOM      6  C   UNL     1      -1.549  12.419  19.165  0.00  0.00    +0.000 C 
ATOM      7  C   UNL     1      -0.916  12.616  20.559  0.00  0.00    +0.000 C 
ATOM      8  C   UNL     1      -0.858  11.333  21.398  0.00  0.00    +0.000 C 
ENDROOT
BRANCH   6   9
ATOM      9  C   UNL     1      -3.044  12.272  19.237  0.00  0.00    +0.000 A 
ATOM     10  N   UNL     1      -3.816  11.734  18.318  0.00  0.00    +0.000 NA
ATOM     11  C   UNL     1      -5.100  12.033  18.683  0.00  0.00    +0.000 A 
ATOM     12  C   UNL     1      -6.299  11.768  18.011  0.00  0.00    +0.000 A 
ATOM     13  C   UNL     1      -7.496  12.217  18.579  0.00  0.00    +0.000 A 
ATOM     14  C   UNL     1      -7.494  12.910  19.793  0.00  0.00    +0.000 A 
ATOM     15  C   UNL     1      -6.302  13.180  20.480  0.00  0.00    +0.000 A 
ATOM     16  C   UNL     1      -5.123  12.725  19.888  0.00  0.00    +0.000 A 
ATOM     17  N   UNL     1      -3.800  12.823  20.245  0.00  0.00    +0.000 N 
ATOM     18  H   UNL     1      -3.443  13.298  21.061  0.00  0.00    +0.000 HD
ENDBRANCH   6   9
BRANCH   2  19
ATOM     19  C   UNL     1       1.517   8.571  20.186  0.00  0.00    +0.000 A 
ATOM     20  C   UNL     1       1.795   7.283  20.620  0.00  0.00    +0.000 A 
ATOM     21  C   UNL     1       2.483   6.424  19.758  0.00  0.00    +0.000 A 
ATOM     22  C   UNL     1       2.896   6.861  18.489  0.00  0.00    +0.000 A 
ATOM     23  C   UNL     1       2.574   8.182  18.171  0.00  0.00    +0.000 A 
ATOM     24  N   UNL     1       1.918   9.043  18.981  0.00  0.00    +0.000 NA
BRANCH  22  25
ATOM     25  C   UNL     1       3.659   6.009  17.556  0.00  0.00    +0.000 A 
ATOM     26  C   UNL     1       4.601   6.557  16.662  0.00  0.00    +0.000 A 
ATOM     27  C   UNL     1       5.369   5.744  15.823  0.00  0.00    +0.000 A 
ATOM     28  C   UNL     1       5.200   4.364  15.846  0.00  0.00    +0.000 A 
ATOM     29  C   UNL     1       4.265   3.799  16.707  0.00  0.00    +0.000 A 
ATOM     30  C   UNL     1       3.506   4.613  17.553  0.00  0.00    +0.000 A 
ENDBRANCH  22  25
ENDBRANCH   2  19
TORSDOF 3
ENDMDL
MODEL 8
REMARK VINA RESULT:      -8.6      1.539      2.117
REMARK  Name = 
REMARK  3 active torsions:
REMARK  status: ('A' for Active; 'I' for Inactive)
REMARK    1  A    between atoms: C_2  and  C_3
REMARK    2  A    between atoms: C_6  and  C_7
REMARK    3  A    between atoms: C_18  and  C_19
REMARK                            x       y       z     vdW  Elec       q    Type
REMARK                         _______ _______ _______ _____ _____    ______ ____
ROOT
ATOM      1  O   UNL     1       1.467  10.220  21.887  0.00  0.00    +0.000 OA
ATOM      2  C   UNL     1       0.873   9.720  20.927  0.00  0.00    +0.000 C 
ATOM      3  N   UNL     1      -0.242  10.317  20.333  0.00  0.00    +0.000 N 
ATOM      4  C   UNL     1      -1.156   9.678  19.387  0.00  0.00    +0.000 C 
ATOM      5  C   UNL     1      -1.137  10.456  18.075  0.00  0.00    +0.000 C 
ATOM      6  C   UNL     1      -1.564  11.918  18.307  0.00  0.00    +0.000 C 
ATOM      7  C   UNL     1      -0.721  12.555  19.432  0.00  0.00    +0.000 C 
ATOM      8  C   UNL     1      -0.610  11.683  20.690  0.00  0.00    +0.000 C 
ENDROOT
BRANCH   6   9
ATOM      9  C   UNL     1      -3.038  11.972  18.603  0.00  0.00    +0.000 A 
ATOM     10  N   UNL     1      -3.994  11.428  17.882  0.00  0.00    +0.000 NA
ATOM     11  C   UNL     1      -5.168  11.930  18.374  0.00  0.00    +0.000 A 
ATOM     12  C   UNL     1      -6.477  11.739  17.917  0.00  0.00    +0.000 A 
ATOM     13  C   UNL     1      -7.517  12.402  18.574  0.00  0.00    +0.000 A 
ATOM     14  C   UNL     1      -7.256  13.233  19.669  0.00  0.00    +0.000 A 
ATOM     15  C   UNL     1      -5.951  13.431  20.141  0.00  0.00    +0.000 A 
ATOM     16  C   UNL     1      -4.931  12.761  19.462  0.00  0.00    +0.000 A 
ATOM     17  N   UNL     1      -3.568  12.734  19.618  0.00  0.00    +0.000 N 
ATOM     18  H   UNL     1      -3.041  13.256  20.303  0.00  0.00    +0.000 HD
ENDBRANCH   6   9
BRANCH   2  19
ATOM     19  C   UNL     1       1.400   8.428  20.377  0.00  0.00    +0.000 A 
ATOM     20  C   UNL     1       1.982   8.409  19.118  0.00  0.00    +0.000 A 
ATOM     21  C   UNL     1       2.455   7.190  18.621  0.00  0.00    +0.000 A 
ATOM     22  C   UNL     1       2.327   6.011  19.374  0.00  0.00    +0.000 A 
ATOM     23  C   UNL     1       1.709   6.153  20.617  0.00  0.00    +0.000 A 
ATOM     24  N   UNL     1       1.233   7.311  21.127  0.00  0.00    +0.000 NA
BRANCH  22  25
ATOM     25  C   UNL     1       2.773   4.693  18.882  0.00  0.00    +0.000 A 
ATOM     26  C   UNL     1       3.788   3.968  19.538  0.00  0.00    +0.000 A 
ATOM     27  C   UNL     1       4.165   2.692  19.110  0.00  0.00    +0.000 A 
ATOM     28  C   UNL     1       3.548   2.118  18.003  0.00  0.00    +0.000 A 
ATOM     29  C   UNL     1       2.555   2.820  17.327  0.00  0.00    +0.000 A 
ATOM     30  C   UNL     1       2.171   4.091  17.764  0.00  0.00    +0.000 A 
ENDBRANCH  22  25
ENDBRANCH   2  19
TORSDOF 3
ENDMDL
MODEL 9
REMARK VINA RESULT:      -8.5      1.686      2.313
REMARK  Name = 
REMARK  3 active torsions:
REMARK  status: ('A' for Active; 'I' for Inactive)
REMARK    1  A    between atoms: C_2  and  C_3
REMARK    2  A    between atoms: C_6  and  C_7
REMARK    3  A    between atoms: C_18  and  C_19
REMARK                            x       y       z     vdW  Elec       q    Type
REMARK                         _______ _______ _______ _____ _____    ______ ____
ROOT
ATOM      1  O   UNL     1       1.952  11.495  19.721  0.00  0.00    +0.000 OA
ATOM      2  C   UNL     1       1.146  10.633  19.358  0.00  0.00    +0.000 C 
ATOM      3  N   UNL     1      -0.207  10.907  19.138  0.00  0.00    +0.000 N 
ATOM      4  C   UNL     1      -1.268   9.914  18.973  0.00  0.00    +0.000 C 
ATOM      5  C   UNL     1      -1.912  10.098  17.603  0.00  0.00    +0.000 C 
ATOM      6  C   UNL     1      -2.498  11.517  17.466  0.00  0.00    +0.000 C 
ATOM      7  C   UNL     1      -1.431  12.577  17.811  0.00  0.00    +0.000 C 
ATOM      8  C   UNL     1      -0.672  12.290  19.114  0.00  0.00    +0.000 C 
ENDROOT
BRANCH   6   9
ATOM      9  C   UNL     1      -3.722  11.641  18.331  0.00  0.00    +0.000 A 
ATOM     10  N   UNL     1      -4.818  10.921  18.232  0.00  0.00    +0.000 NA
ATOM     11  C   UNL     1      -5.742  11.531  19.036  0.00  0.00    +0.000 A 
ATOM     12  C   UNL     1      -7.093  11.221  19.231  0.00  0.00    +0.000 A 
ATOM     13  C   UNL     1      -7.848  12.031  20.085  0.00  0.00    +0.000 A 
ATOM     14  C   UNL     1      -7.264  13.123  20.734  0.00  0.00    +0.000 A 
ATOM     15  C   UNL     1      -5.912  13.445  20.552  0.00  0.00    +0.000 A 
ATOM     16  C   UNL     1      -5.184  12.623  19.690  0.00  0.00    +0.000 A 
ATOM     17  N   UNL     1      -3.880  12.643  19.260  0.00  0.00    +0.000 N 
ATOM     18  H   UNL     1      -3.186  13.330  19.514  0.00  0.00    +0.000 HD
ENDBRANCH   6   9
BRANCH   2  19
ATOM     19  C   UNL     1       1.666   9.245  19.127  0.00  0.00    +0.000 A 
ATOM     20  C   UNL     1       2.108   8.883  17.863  0.00  0.00    +0.000 A 
ATOM     21  C   UNL     1       2.577   7.580  17.669  0.00  0.00    +0.000 A 
ATOM     22  C   UNL     1       2.582   6.655  18.726  0.00  0.00    +0.000 A 
ATOM     23  C   UNL     1       2.096   7.131  19.946  0.00  0.00    +0.000 A 
ATOM     24  N   UNL     1       1.629   8.379  20.169  0.00  0.00    +0.000 NA
BRANCH  22  25
ATOM     25  C   UNL     1       3.028   5.258  18.567  0.00  0.00    +0.000 A 
ATOM     26  C   UNL     1       4.122   4.747  19.294  0.00  0.00    +0.000 A 
ATOM     27  C   UNL     1       4.504   3.407  19.192  0.00  0.00    +0.000 A 
ATOM     28  C   UNL     1       3.811   2.549  18.345  0.00  0.00    +0.000 A 
ATOM     29  C   UNL     1       2.739   3.031  17.602  0.00  0.00    +0.000 A 
ATOM     30  C   UNL     1       2.351   4.369  17.715  0.00  0.00    +0.000 A 
ENDBRANCH  22  25
ENDBRANCH   2  19
TORSDOF 3
ENDMDL
