MODEL 1
REMARK VINA RESULT:      -7.3      0.000      0.000
REMARK  Name = 
REMARK  7 active torsions:
REMARK  status: ('A' for Active; 'I' for Inactive)
REMARK    1  A    between atoms: C_2  and  O_3
REMARK    2  A    between atoms: C_2  and  C_4
REMARK    3  A    between atoms: C_4  and  C_5
REMARK    4  A    between atoms: C_5  and  C_6
REMARK    5  A    between atoms: C_6  and  C_7
REMARK    6  A    between atoms: C_19  and  C_21
REMARK    7  A    between atoms: C_21  and  O_22
REMARK                            x       y       z     vdW  Elec       q    Type
REMARK                         _______ _______ _______ _____ _____    ______ ____
ROOT
ATOM      1  C   UNL     1       3.368   6.011  18.371  0.00  0.00    +0.000 C 
ATOM      2  C   UNL     1       2.914   4.591  17.802  0.00  0.00    +0.000 C 
ATOM      3  C   UNL     1       4.049   3.825  17.055  0.00  0.00    +0.000 C 
ATOM      4  C   UNL     1       4.520   2.501  17.646  0.00  0.00    +0.000 C 
ATOM      5  C   UNL     1       3.361   1.662  18.126  0.00  0.00    +0.000 C 
ATOM      6  N   UNL     1       2.631   2.360  19.163  0.00  0.00    +0.000 NA
ATOM      7  C   UNL     1       3.295   2.391  20.459  0.00  0.00    +0.000 C 
ATOM      8  C   UNL     1       2.262   2.661  21.561  0.00  0.00    +0.000 C 
ATOM      9  C   UNL     1       1.005   3.354  21.021  0.00  0.00    +0.000 C 
ATOM     10  C   UNL     1       1.380   4.358  19.921  0.00  0.00    +0.000 C 
ATOM     11  C   UNL     1       2.289   5.431  20.499  0.00  0.00    +0.000 C 
ATOM     12  N   UNL     1       2.486   6.460  19.505  0.00  0.00    +0.000 N 
ATOM     13  C   UNL     1       1.984   7.752  19.726  0.00  0.00    +0.000 C 
ATOM     14  O   UNL     1       2.145   8.709  18.965  0.00  0.00    +0.000 OA
ATOM     15  C   UNL     1       2.053   3.648  18.727  0.00  0.00    +0.000 C 
ENDROOT
BRANCH   1  16
ATOM     16  C   UNL     1       3.537   7.091  17.254  0.00  0.00    +0.000 C 
BRANCH  16  17
ATOM     17  C   UNL     1       4.864   7.132  16.491  0.00  0.00    +0.000 C 
BRANCH  17  18
ATOM     18  C   UNL     1       6.058   6.845  17.411  0.00  0.00    +0.000 C 
BRANCH  18  20
ATOM     19  O   UNL     1       7.387   5.870  15.626  0.00  0.00    +0.000 OA
ATOM     20  C   UNL     1       7.015   5.853  16.784  0.00  0.00    +0.000 C 
BRANCH  20  21
ATOM     21  O   UNL     1       7.417   4.901  17.664  0.00  0.00    +0.000 OA
ATOM     22  H   UNL     1       8.150   5.188  18.241  0.00  0.00    +0.000 HD
ENDBRANCH  20  21
ENDBRANCH  18  20
ENDBRANCH  17  18
ENDBRANCH  16  17
ENDBRANCH   1  16
BRANCH  13  23
ATOM     23  C   UNL     1       1.205   8.003  21.044  0.00  0.00    +0.000 C 
BRANCH  23  24
ATOM     24  O   UNL     1       1.927   8.701  22.045  0.00  0.00    +0.000 OA
ATOM     25  H   UNL     1       1.320   9.385  22.383  0.00  0.00    +0.000 HD
ENDBRANCH  23  24
ENDBRANCH  13  23
TORSDOF 7
ENDMDL
MODEL 2
REMARK VINA RESULT:      -7.3      2.673      4.391
REMARK  Name = 
REMARK  7 active torsions:
REMARK  status: ('A' for Active; 'I' for Inactive)
REMARK    1  A    between atoms: C_2  and  O_3
REMARK    2  A    between atoms: C_2  and  C_4
REMARK    3  A    between atoms: C_4  and  C_5
REMARK    4  A    between atoms: C_5  and  C_6
REMARK    5  A    between atoms: C_6  and  C_7
REMARK    6  A    between atoms: C_19  and  C_21
REMARK    7  A    between atoms: C_21  and  O_22
REMARK                            x       y       z     vdW  Elec       q    Type
REMARK                         _______ _______ _______ _____ _____    ______ ____
ROOT
ATOM      1  C   UNL     1       5.187   4.143  17.015  0.00  0.00    +0.000 C 
ATOM      2  C   UNL     1       3.607   3.957  16.905  0.00  0.00    +0.000 C 
ATOM      3  C   UNL     1       3.144   2.470  17.006  0.00  0.00    +0.000 C 
ATOM      4  C   UNL     1       2.267   2.078  18.190  0.00  0.00    +0.000 C 
ATOM      5  C   UNL     1       1.212   3.119  18.469  0.00  0.00    +0.000 C 
ATOM      6  N   UNL     1       1.829   4.388  18.794  0.00  0.00    +0.000 NA
ATOM      7  C   UNL     1       2.415   4.456  20.127  0.00  0.00    +0.000 C 
ATOM      8  C   UNL     1       2.553   5.924  20.553  0.00  0.00    +0.000 C 
ATOM      9  C   UNL     1       2.591   6.876  19.352  0.00  0.00    +0.000 C 
ATOM     10  C   UNL     1       3.362   6.235  18.187  0.00  0.00    +0.000 C 
ATOM     11  C   UNL     1       4.796   5.967  18.612  0.00  0.00    +0.000 C 
ATOM     12  N   UNL     1       5.551   5.535  17.458  0.00  0.00    +0.000 N 
ATOM     13  C   UNL     1       6.587   6.339  16.958  0.00  0.00    +0.000 C 
ATOM     14  O   UNL     1       7.319   6.035  16.014  0.00  0.00    +0.000 OA
ATOM     15  C   UNL     1       2.673   4.938  17.714  0.00  0.00    +0.000 C 
ENDROOT
BRANCH   1  16
ATOM     16  C   UNL     1       5.947   3.686  15.728  0.00  0.00    +0.000 C 
BRANCH  16  17
ATOM     17  C   UNL     1       5.346   4.062  14.370  0.00  0.00    +0.000 C 
BRANCH  17  18
ATOM     18  C   UNL     1       6.316   3.767  13.219  0.00  0.00    +0.000 C 
BRANCH  18  20
ATOM     19  O   UNL     1       4.560   3.329  11.599  0.00  0.00    +0.000 OA
ATOM     20  C   UNL     1       5.629   3.026  12.092  0.00  0.00    +0.000 C 
BRANCH  20  21
ATOM     21  O   UNL     1       6.337   1.942  11.683  0.00  0.00    +0.000 OA
ATOM     22  H   UNL     1       6.848   1.518  12.399  0.00  0.00    +0.000 HD
ENDBRANCH  20  21
ENDBRANCH  18  20
ENDBRANCH  17  18
ENDBRANCH  16  17
ENDBRANCH   1  16
BRANCH  13  23
ATOM     23  C   UNL     1       6.853   7.691  17.670  0.00  0.00    +0.000 C 
BRANCH  23  24
ATOM     24  O   UNL     1       8.157   7.839  18.209  0.00  0.00    +0.000 OA
ATOM     25  H   UNL     1       8.117   8.622  18.789  0.00  0.00    +0.000 HD
ENDBRANCH  23  24
ENDBRANCH  13  23
TORSDOF 7
ENDMDL
MODEL 3
REMARK VINA RESULT:      -7.1      2.378      4.635
REMARK  Name = 
REMARK  7 active torsions:
REMARK  status: ('A' for Active; 'I' for Inactive)
REMARK    1  A    between atoms: C_2  and  O_3
REMARK    2  A    between atoms: C_2  and  C_4
REMARK    3  A    between atoms: C_4  and  C_5
REMARK    4  A    between atoms: C_5  and  C_6
REMARK    5  A    between atoms: C_6  and  C_7
REMARK    6  A    between atoms: C_19  and  C_21
REMARK    7  A    between atoms: C_21  and  O_22
REMARK                            x       y       z     vdW  Elec       q    Type
REMARK                         _______ _______ _______ _____ _____    ______ ____
ROOT
ATOM      1  C   UNL     1       4.446   6.030  17.094  0.00  0.00    +0.000 C 
ATOM      2  C   UNL     1       4.221   5.716  18.642  0.00  0.00    +0.000 C 
ATOM      3  C   UNL     1       3.320   6.762  19.368  0.00  0.00    +0.000 C 
ATOM      4  C   UNL     1       1.989   6.281  19.936  0.00  0.00    +0.000 C 
ATOM      5  C   UNL     1       2.127   4.942  20.617  0.00  0.00    +0.000 C 
ATOM      6  N   UNL     1       2.578   3.941  19.673  0.00  0.00    +0.000 NA
ATOM      7  C   UNL     1       1.561   3.488  18.733  0.00  0.00    +0.000 C 
ATOM      8  C   UNL     1       1.958   2.119  18.164  0.00  0.00    +0.000 C 
ATOM      9  C   UNL     1       3.467   1.865  18.263  0.00  0.00    +0.000 C 
ATOM     10  C   UNL     1       4.245   3.167  18.013  0.00  0.00    +0.000 C 
ATOM     11  C   UNL     1       3.951   3.674  16.611  0.00  0.00    +0.000 C 
ATOM     12  N   UNL     1       4.822   4.790  16.328  0.00  0.00    +0.000 N 
ATOM     13  C   UNL     1       5.802   4.678  15.328  0.00  0.00    +0.000 C 
ATOM     14  O   UNL     1       6.556   5.589  14.978  0.00  0.00    +0.000 OA
ATOM     15  C   UNL     1       3.895   4.234  19.072  0.00  0.00    +0.000 C 
ENDROOT
BRANCH   1  16
ATOM     16  C   UNL     1       5.419   7.228  16.850  0.00  0.00    +0.000 C 
BRANCH  16  17
ATOM     17  C   UNL     1       6.463   7.536  17.927  0.00  0.00    +0.000 C 
BRANCH  17  18
ATOM     18  C   UNL     1       7.699   6.639  17.794  0.00  0.00    +0.000 C 
BRANCH  18  20
ATOM     19  O   UNL     1       7.504   5.558  19.961  0.00  0.00    +0.000 OA
ATOM     20  C   UNL     1       7.643   5.471  18.756  0.00  0.00    +0.000 C 
BRANCH  20  21
ATOM     21  O   UNL     1       7.785   4.278  18.124  0.00  0.00    +0.000 OA
ATOM     22  H   UNL     1       7.064   3.648  18.313  0.00  0.00    +0.000 HD
ENDBRANCH  20  21
ENDBRANCH  18  20
ENDBRANCH  17  18
ENDBRANCH  16  17
ENDBRANCH   1  16
BRANCH  13  23
ATOM     23  C   UNL     1       5.915   3.322  14.584  0.00  0.00    +0.000 C 
BRANCH  23  24
ATOM     24  O   UNL     1       6.265   3.417  13.213  0.00  0.00    +0.000 OA
ATOM     25  H   UNL     1       7.193   3.716  13.195  0.00  0.00    +0.000 HD
ENDBRANCH  23  24
ENDBRANCH  13  23
TORSDOF 7
ENDMDL
MODEL 4
REMARK VINA RESULT:      -7.0      0.700      1.001
REMARK  Name = 
REMARK  7 active torsions:
REMARK  status: ('A' for Active; 'I' for Inactive)
REMARK    1  A    between atoms: C_2  and  O_3
REMARK    2  A    between atoms: C_2  and  C_4
REMARK    3  A    between atoms: C_4  and  C_5
REMARK    4  A    between atoms: C_5  and  C_6
REMARK    5  A    between atoms: C_6  and  C_7
REMARK    6  A    between atoms: C_19  and  C_21
REMARK    7  A    between atoms: C_21  and  O_22
REMARK                            x       y       z     vdW  Elec       q    Type
REMARK                         _______ _______ _______ _____ _____    ______ ____
ROOT
ATOM      1  C   UNL     1       3.558   5.803  18.256  0.00  0.00    +0.000 C 
ATOM      2  C   UNL     1       3.067   4.368  17.764  0.00  0.00    +0.000 C 
ATOM      3  C   UNL     1       4.214   3.474  17.199  0.00  0.00    +0.000 C 
ATOM      4  C   UNL     1       4.539   2.182  17.941  0.00  0.00    +0.000 C 
ATOM      5  C   UNL     1       3.287   1.458  18.371  0.00  0.00    +0.000 C 
ATOM      6  N   UNL     1       2.510   2.285  19.269  0.00  0.00    +0.000 NA
ATOM      7  C   UNL     1       3.049   2.393  20.618  0.00  0.00    +0.000 C 
ATOM      8  C   UNL     1       1.937   2.818  21.586  0.00  0.00    +0.000 C 
ATOM      9  C   UNL     1       0.785   3.532  20.868  0.00  0.00    +0.000 C 
ATOM     10  C   UNL     1       1.328   4.412  19.731  0.00  0.00    +0.000 C 
ATOM     11  C   UNL     1       2.248   5.477  20.307  0.00  0.00    +0.000 C 
ATOM     12  N   UNL     1       2.605   6.401  19.256  0.00  0.00    +0.000 N 
ATOM     13  C   UNL     1       2.171   7.735  19.319  0.00  0.00    +0.000 C 
ATOM     14  O   UNL     1       2.467   8.609  18.501  0.00  0.00    +0.000 OA
ATOM     15  C   UNL     1       2.063   3.561  18.674  0.00  0.00    +0.000 C 
ENDROOT
BRANCH   1  16
ATOM     16  C   UNL     1       3.903   6.768  17.076  0.00  0.00    +0.000 C 
BRANCH  16  17
ATOM     17  C   UNL     1       5.355   6.815  16.589  0.00  0.00    +0.000 C 
BRANCH  17  18
ATOM     18  C   UNL     1       5.610   5.805  15.464  0.00  0.00    +0.000 C 
BRANCH  18  20
ATOM     19  O   UNL     1       7.467   4.628  16.497  0.00  0.00    +0.000 OA
ATOM     20  C   UNL     1       7.007   5.228  15.544  0.00  0.00    +0.000 C 
BRANCH  20  21
ATOM     21  O   UNL     1       7.728   5.469  14.419  0.00  0.00    +0.000 OA
ATOM     22  H   UNL     1       8.692   5.383  14.547  0.00  0.00    +0.000 HD
ENDBRANCH  20  21
ENDBRANCH  18  20
ENDBRANCH  17  18
ENDBRANCH  16  17
ENDBRANCH   1  16
BRANCH  13  23
ATOM     23  C   UNL     1       1.289   8.146  20.527  0.00  0.00    +0.000 C 
BRANCH  23  24
ATOM     24  O   UNL     1       1.997   8.387  21.732  0.00  0.00    +0.000 OA
ATOM     25  H   UNL     1       2.439   7.547  21.954  0.00  0.00    +0.000 HD
ENDBRANCH  23  24
ENDBRANCH  13  23
TORSDOF 7
ENDMDL
MODEL 5
REMARK VINA RESULT:      -6.9      1.759      5.056
REMARK  Name = 
REMARK  7 active torsions:
REMARK  status: ('A' for Active; 'I' for Inactive)
REMARK    1  A    between atoms: C_2  and  O_3
REMARK    2  A    between atoms: C_2  and  C_4
REMARK    3  A    between atoms: C_4  and  C_5
REMARK    4  A    between atoms: C_5  and  C_6
REMARK    5  A    between atoms: C_6  and  C_7
REMARK    6  A    between atoms: C_19  and  C_21
REMARK    7  A    between atoms: C_21  and  O_22
REMARK                            x       y       z     vdW  Elec       q    Type
REMARK                         _______ _______ _______ _____ _____    ______ ____
ROOT
ATOM      1  C   UNL     1       3.280   6.063  17.965  0.00  0.00    +0.000 C 
ATOM      2  C   UNL     1       3.219   5.530  19.467  0.00  0.00    +0.000 C 
ATOM      3  C   UNL     1       1.888   5.879  20.202  0.00  0.00    +0.000 C 
ATOM      4  C   UNL     1       0.995   4.723  20.640  0.00  0.00    +0.000 C 
ATOM      5  C   UNL     1       1.800   3.592  21.231  0.00  0.00    +0.000 C 
ATOM      6  N   UNL     1       2.728   3.069  20.251  0.00  0.00    +0.000 NA
ATOM      7  C   UNL     1       2.119   2.247  19.213  0.00  0.00    +0.000 C 
ATOM      8  C   UNL     1       3.187   1.347  18.577  0.00  0.00    +0.000 C 
ATOM      9  C   UNL     1       4.603   1.906  18.762  0.00  0.00    +0.000 C 
ATOM     10  C   UNL     1       4.589   3.439  18.660  0.00  0.00    +0.000 C 
ATOM     11  C   UNL     1       4.103   3.853  17.281  0.00  0.00    +0.000 C 
ATOM     12  N   UNL     1       4.266   5.282  17.139  0.00  0.00    +0.000 N 
ATOM     13  C   UNL     1       5.180   5.793  16.204  0.00  0.00    +0.000 C 
ATOM     14  O   UNL     1       5.353   6.992  15.973  0.00  0.00    +0.000 OA
ATOM     15  C   UNL     1       3.709   4.060  19.766  0.00  0.00    +0.000 C 
ENDROOT
BRANCH   1  16
ATOM     16  C   UNL     1       3.486   7.610  17.875  0.00  0.00    +0.000 C 
BRANCH  16  17
ATOM     17  C   UNL     1       2.283   8.472  17.479  0.00  0.00    +0.000 C 
BRANCH  17  18
ATOM     18  C   UNL     1       1.603   9.095  18.704  0.00  0.00    +0.000 C 
BRANCH  18  20
ATOM     19  O   UNL     1       0.933  11.338  19.354  0.00  0.00    +0.000 OA
ATOM     20  C   UNL     1       1.521  10.602  18.584  0.00  0.00    +0.000 C 
BRANCH  20  21
ATOM     21  O   UNL     1       2.174  11.067  17.488  0.00  0.00    +0.000 OA
ATOM     22  H   UNL     1       2.453  10.362  16.873  0.00  0.00    +0.000 HD
ENDBRANCH  20  21
ENDBRANCH  18  20
ENDBRANCH  17  18
ENDBRANCH  16  17
ENDBRANCH   1  16
BRANCH  13  23
ATOM     23  C   UNL     1       6.003   4.773  15.374  0.00  0.00    +0.000 C 
BRANCH  23  24
ATOM     24  O   UNL     1       7.381   4.703  15.704  0.00  0.00    +0.000 OA
ATOM     25  H   UNL     1       7.421   4.311  16.596  0.00  0.00    +0.000 HD
ENDBRANCH  23  24
ENDBRANCH  13  23
TORSDOF 7
ENDMDL
MODEL 6
REMARK VINA RESULT:      -6.8      2.489      4.087
REMARK  Name = 
REMARK  7 active torsions:
REMARK  status: ('A' for Active; 'I' for Inactive)
REMARK    1  A    between atoms: C_2  and  O_3
REMARK    2  A    between atoms: C_2  and  C_4
REMARK    3  A    between atoms: C_4  and  C_5
REMARK    4  A    between atoms: C_5  and  C_6
REMARK    5  A    between atoms: C_6  and  C_7
REMARK    6  A    between atoms: C_19  and  C_21
REMARK    7  A    between atoms: C_21  and  O_22
REMARK                            x       y       z     vdW  Elec       q    Type
REMARK                         _______ _______ _______ _____ _____    ______ ____
ROOT
ATOM      1  C   UNL     1       5.171   4.168  17.138  0.00  0.00    +0.000 C 
ATOM      2  C   UNL     1       3.596   3.961  16.991  0.00  0.00    +0.000 C 
ATOM      3  C   UNL     1       3.147   2.471  17.097  0.00  0.00    +0.000 C 
ATOM      4  C   UNL     1       2.245   2.083  18.264  0.00  0.00    +0.000 C 
ATOM      5  C   UNL     1       1.171   3.114  18.503  0.00  0.00    +0.000 C 
ATOM      6  N   UNL     1       1.766   4.394  18.828  0.00  0.00    +0.000 NA
ATOM      7  C   UNL     1       2.316   4.485  20.174  0.00  0.00    +0.000 C 
ATOM      8  C   UNL     1       2.427   5.959  20.586  0.00  0.00    +0.000 C 
ATOM      9  C   UNL     1       2.485   6.898  19.375  0.00  0.00    +0.000 C 
ATOM     10  C   UNL     1       3.292   6.252  18.238  0.00  0.00    +0.000 C 
ATOM     11  C   UNL     1       4.718   6.006  18.703  0.00  0.00    +0.000 C 
ATOM     12  N   UNL     1       5.507   5.569  17.573  0.00  0.00    +0.000 N 
ATOM     13  C   UNL     1       6.546   6.379  17.090  0.00  0.00    +0.000 C 
ATOM     14  O   UNL     1       7.306   6.072  16.168  0.00  0.00    +0.000 OA
ATOM     15  C   UNL     1       2.631   4.941  17.763  0.00  0.00    +0.000 C 
ENDROOT
BRANCH   1  16
ATOM     16  C   UNL     1       5.968   3.704  15.877  0.00  0.00    +0.000 C 
BRANCH  16  17
ATOM     17  C   UNL     1       5.507   4.216  14.509  0.00  0.00    +0.000 C 
BRANCH  17  18
ATOM     18  C   UNL     1       6.316   3.592  13.365  0.00  0.00    +0.000 C 
BRANCH  18  20
ATOM     19  O   UNL     1       7.395   4.726  11.508  0.00  0.00    +0.000 OA
ATOM     20  C   UNL     1       7.220   4.611  12.705  0.00  0.00    +0.000 C 
BRANCH  20  21
ATOM     21  O   UNL     1       7.852   5.400  13.612  0.00  0.00    +0.000 OA
ATOM     22  H   UNL     1       7.255   5.772  14.289  0.00  0.00    +0.000 HD
ENDBRANCH  20  21
ENDBRANCH  18  20
ENDBRANCH  17  18
ENDBRANCH  16  17
ENDBRANCH   1  16
BRANCH  13  23
ATOM     23  C   UNL     1       6.779   7.742  17.792  0.00  0.00    +0.000 C 
BRANCH  23  24
ATOM     24  O   UNL     1       7.908   8.469  17.335  0.00  0.00    +0.000 OA
ATOM     25  H   UNL     1       8.036   8.203  16.405  0.00  0.00    +0.000 HD
ENDBRANCH  23  24
ENDBRANCH  13  23
TORSDOF 7
ENDMDL
MODEL 7
REMARK VINA RESULT:      -6.5      3.043      5.770
REMARK  Name = 
REMARK  7 active torsions:
REMARK  status: ('A' for Active; 'I' for Inactive)
REMARK    1  A    between atoms: C_2  and  O_3
REMARK    2  A    between atoms: C_2  and  C_4
REMARK    3  A    between atoms: C_4  and  C_5
REMARK    4  A    between atoms: C_5  and  C_6
REMARK    5  A    between atoms: C_6  and  C_7
REMARK    6  A    between atoms: C_19  and  C_21
REMARK    7  A    between atoms: C_21  and  O_22
REMARK                            x       y       z     vdW  Elec       q    Type
REMARK                         _______ _______ _______ _____ _____    ______ ____
ROOT
ATOM      1  C   UNL     1       3.340   4.985  20.034  0.00  0.00    +0.000 C 
ATOM      2  C   UNL     1       2.975   5.554  18.588  0.00  0.00    +0.000 C 
ATOM      3  C   UNL     1       2.580   7.063  18.592  0.00  0.00    +0.000 C 
ATOM      4  C   UNL     1       3.475   8.034  17.829  0.00  0.00    +0.000 C 
ATOM      5  C   UNL     1       3.904   7.467  16.499  0.00  0.00    +0.000 C 
ATOM      6  N   UNL     1       4.660   6.247  16.692  0.00  0.00    +0.000 NA
ATOM      7  C   UNL     1       6.019   6.444  17.177  0.00  0.00    +0.000 C 
ATOM      8  C   UNL     1       6.867   5.207  16.850  0.00  0.00    +0.000 C 
ATOM      9  C   UNL     1       6.009   3.953  16.645  0.00  0.00    +0.000 C 
ATOM     10  C   UNL     1       4.819   3.956  17.618  0.00  0.00    +0.000 C 
ATOM     11  C   UNL     1       5.332   3.939  19.049  0.00  0.00    +0.000 C 
ATOM     12  N   UNL     1       4.210   3.761  19.943  0.00  0.00    +0.000 N 
ATOM     13  C   UNL     1       4.104   2.588  20.706  0.00  0.00    +0.000 C 
ATOM     14  O   UNL     1       3.216   2.365  21.532  0.00  0.00    +0.000 OA
ATOM     15  C   UNL     1       3.905   5.175  17.372  0.00  0.00    +0.000 C 
ENDROOT
BRANCH   1  16
ATOM     16  C   UNL     1       2.086   4.786  20.945  0.00  0.00    +0.000 C 
BRANCH  16  17
ATOM     17  C   UNL     1       0.743   4.504  20.265  0.00  0.00    +0.000 C 
BRANCH  17  18
ATOM     18  C   UNL     1       0.518   3.002  20.051  0.00  0.00    +0.000 C 
BRANCH  18  20
ATOM     19  O   UNL     1       0.956   3.156  17.667  0.00  0.00    +0.000 OA
ATOM     20  C   UNL     1       1.059   2.545  18.713  0.00  0.00    +0.000 C 
BRANCH  20  21
ATOM     21  O   UNL     1       1.678   1.339  18.794  0.00  0.00    +0.000 OA
ATOM     22  H   UNL     1       1.127   0.597  18.480  0.00  0.00    +0.000 HD
ENDBRANCH  20  21
ENDBRANCH  18  20
ENDBRANCH  17  18
ENDBRANCH  16  17
ENDBRANCH   1  16
BRANCH  13  23
ATOM     23  C   UNL     1       5.206   1.511  20.524  0.00  0.00    +0.000 C 
BRANCH  23  24
ATOM     24  O   UNL     1       5.787   1.038  21.729  0.00  0.00    +0.000 OA
ATOM     25  H   UNL     1       5.542   0.097  21.791  0.00  0.00    +0.000 HD
ENDBRANCH  23  24
ENDBRANCH  13  23
TORSDOF 7
ENDMDL
MODEL 8
REMARK VINA RESULT:      -6.4      2.541      4.807
REMARK  Name = 
REMARK  7 active torsions:
REMARK  status: ('A' for Active; 'I' for Inactive)
REMARK    1  A    between atoms: C_2  and  O_3
REMARK    2  A    between atoms: C_2  and  C_4
REMARK    3  A    between atoms: C_4  and  C_5
REMARK    4  A    between atoms: C_5  and  C_6
REMARK    5  A    between atoms: C_6  and  C_7
REMARK    6  A    between atoms: C_19  and  C_21
REMARK    7  A    between atoms: C_21  and  O_22
REMARK                            x       y       z     vdW  Elec       q    Type
REMARK                         _______ _______ _______ _____ _____    ______ ____
ROOT
ATOM      1  C   UNL     1       4.548   5.968  17.253  0.00  0.00    +0.000 C 
ATOM      2  C   UNL     1       4.292   5.577  18.778  0.00  0.00    +0.000 C 
ATOM      3  C   UNL     1       3.409   6.607  19.548  0.00  0.00    +0.000 C 
ATOM      4  C   UNL     1       2.057   6.134  20.071  0.00  0.00    +0.000 C 
ATOM      5  C   UNL     1       2.148   4.757  20.680  0.00  0.00    +0.000 C 
ATOM      6  N   UNL     1       2.585   3.796  19.688  0.00  0.00    +0.000 NA
ATOM      7  C   UNL     1       1.569   3.424  18.712  0.00  0.00    +0.000 C 
ATOM      8  C   UNL     1       1.936   2.078  18.074  0.00  0.00    +0.000 C 
ATOM      9  C   UNL     1       3.436   1.775  18.180  0.00  0.00    +0.000 C 
ATOM     10  C   UNL     1       4.254   3.066  18.012  0.00  0.00    +0.000 C 
ATOM     11  C   UNL     1       3.995   3.656  16.635  0.00  0.00    +0.000 C 
ATOM     12  N   UNL     1       4.901   4.761  16.425  0.00  0.00    +0.000 N 
ATOM     13  C   UNL     1       5.892   4.676  15.433  0.00  0.00    +0.000 C 
ATOM     14  O   UNL     1       6.676   5.582  15.144  0.00  0.00    +0.000 OA
ATOM     15  C   UNL     1       3.918   4.083  19.122  0.00  0.00    +0.000 C 
ENDROOT
BRANCH   1  16
ATOM     16  C   UNL     1       5.557   7.149  17.087  0.00  0.00    +0.000 C 
BRANCH  16  17
ATOM     17  C   UNL     1       6.795   7.166  17.989  0.00  0.00    +0.000 C 
BRANCH  17  18
ATOM     18  C   UNL     1       7.959   7.928  17.342  0.00  0.00    +0.000 C 
BRANCH  18  20
ATOM     19  O   UNL     1       8.000  10.308  17.824  0.00  0.00    +0.000 OA
ATOM     20  C   UNL     1       8.311   9.173  18.128  0.00  0.00    +0.000 C 
BRANCH  20  21
ATOM     21  O   UNL     1       9.047   8.891  19.234  0.00  0.00    +0.000 OA
ATOM     22  H   UNL     1       9.018   7.951  19.493  0.00  0.00    +0.000 HD
ENDBRANCH  20  21
ENDBRANCH  18  20
ENDBRANCH  17  18
ENDBRANCH  16  17
ENDBRANCH   1  16
BRANCH  13  23
ATOM     23  C   UNL     1       5.978   3.359  14.618  0.00  0.00    +0.000 C 
BRANCH  23  24
ATOM     24  O   UNL     1       6.385   3.514  13.268  0.00  0.00    +0.000 OA
ATOM     25  H   UNL     1       6.779   2.661  13.009  0.00  0.00    +0.000 HD
ENDBRANCH  23  24
ENDBRANCH  13  23
TORSDOF 7
ENDMDL
MODEL 9
REMARK VINA RESULT:      -6.1      1.739      2.175
REMARK  Name = 
REMARK  7 active torsions:
REMARK  status: ('A' for Active; 'I' for Inactive)
REMARK    1  A    between atoms: C_2  and  O_3
REMARK    2  A    between atoms: C_2  and  C_4
REMARK    3  A    between atoms: C_4  and  C_5
REMARK    4  A    between atoms: C_5  and  C_6
REMARK    5  A    between atoms: C_6  and  C_7
REMARK    6  A    between atoms: C_19  and  C_21
REMARK    7  A    between atoms: C_21  and  O_22
REMARK                            x       y       z     vdW  Elec       q    Type
REMARK                         _______ _______ _______ _____ _____    ______ ____
ROOT
ATOM      1  C   UNL     1       4.356   4.829  17.345  0.00  0.00    +0.000 C 
ATOM      2  C   UNL     1       3.475   3.499  17.349  0.00  0.00    +0.000 C 
ATOM      3  C   UNL     1       4.321   2.188  17.346  0.00  0.00    +0.000 C 
ATOM      4  C   UNL     1       4.208   1.267  18.556  0.00  0.00    +0.000 C 
ATOM      5  C   UNL     1       2.779   1.130  19.020  0.00  0.00    +0.000 C 
ATOM      6  N   UNL     1       2.251   2.420  19.411  0.00  0.00    +0.000 NA
ATOM      7  C   UNL     1       2.740   2.915  20.691  0.00  0.00    +0.000 C 
ATOM      8  C   UNL     1       1.768   3.967  21.242  0.00  0.00    +0.000 C 
ATOM      9  C   UNL     1       0.918   4.607  20.138  0.00  0.00    +0.000 C 
ATOM     10  C   UNL     1       1.750   4.781  18.858  0.00  0.00    +0.000 C 
ATOM     11  C   UNL     1       2.923   5.707  19.135  0.00  0.00    +0.000 C 
ATOM     12  N   UNL     1       3.587   6.004  17.887  0.00  0.00    +0.000 N 
ATOM     13  C   UNL     1       3.574   7.313  17.381  0.00  0.00    +0.000 C 
ATOM     14  O   UNL     1       4.154   7.675  16.355  0.00  0.00    +0.000 OA
ATOM     15  C   UNL     1       2.236   3.418  18.322  0.00  0.00    +0.000 C 
ENDROOT
BRANCH   1  16
ATOM     16  C   UNL     1       5.026   5.112  15.962  0.00  0.00    +0.000 C 
BRANCH  16  17
ATOM     17  C   UNL     1       6.549   5.265  15.921  0.00  0.00    +0.000 C 
BRANCH  17  18
ATOM     18  C   UNL     1       7.153   5.324  17.330  0.00  0.00    +0.000 C 
BRANCH  18  20
ATOM     19  O   UNL     1       7.393   7.720  17.007  0.00  0.00    +0.000 OA
ATOM     20  C   UNL     1       7.571   6.733  17.695  0.00  0.00    +0.000 C 
BRANCH  20  21
ATOM     21  O   UNL     1       8.200   6.787  18.897  0.00  0.00    +0.000 OA
ATOM     22  H   UNL     1       9.052   7.262  18.870  0.00  0.00    +0.000 HD
ENDBRANCH  20  21
ENDBRANCH  18  20
ENDBRANCH  17  18
ENDBRANCH  16  17
ENDBRANCH   1  16
BRANCH  13  23
ATOM     23  C   UNL     1       2.808   8.389  18.194  0.00  0.00    +0.000 C 
BRANCH  23  24
ATOM     24  O   UNL     1       2.013   9.273  17.420  0.00  0.00    +0.000 OA
ATOM     25  H   UNL     1       1.120   9.238  17.810  0.00  0.00    +0.000 HD
ENDBRANCH  23  24
ENDBRANCH  13  23
TORSDOF 7
ENDMDL
