MODEL 1
REMARK VINA RESULT:      -9.6      0.000      0.000
REMARK  Name = 
REMARK  7 active torsions:
REMARK  status: ('A' for Active; 'I' for Inactive)
REMARK    1  A    between atoms: C_1  and  C_2
REMARK    2  A    between atoms: C_2  and  C_3
REMARK    3  A    between atoms: C_2  and  C_4
REMARK    4  A    between atoms: C_8  and  C_9
REMARK    5  A    between atoms: C_15  and  C_16
REMARK    6  A    between atoms: C_20  and  C_21
REMARK    7  A    between atoms: C_21  and  C_23
REMARK                            x       y       z     vdW  Elec       q    Type
REMARK                         _______ _______ _______ _____ _____    ______ ____
ROOT
ATOM      1  C   UNL     1       3.940   6.825  17.162  0.00  0.00    +0.000 C 
ATOM      2  CA  UNL     1       3.137   7.095  18.205  0.00  0.00    +0.000 A 
ATOM      3  N   UNL     1       2.941   6.201  19.229  0.00  0.00    +0.000 N 
ATOM      4  C   UNL     1       2.193   6.423  20.347  0.00  0.00    +0.000 A 
ATOM      5  O   UNL     1       2.077   5.584  21.237  0.00  0.00    +0.000 OA
ATOM      6  CA  UNL     1       1.517   7.766  20.399  0.00  0.00    +0.000 A 
ATOM      7  C   UNL     1       0.742   8.033  21.462  0.00  0.00    +0.000 C 
ATOM      8  N   UNL     1       1.702   8.658  19.369  0.00  0.00    +0.000 N 
ATOM      9  C   UNL     1       2.470   8.431  18.256  0.00  0.00    +0.000 A 
ATOM     10  O   UNL     1       2.585   9.290  17.384  0.00  0.00    +0.000 OA
ATOM     11  H   UNL     1       3.411   5.297  19.153  0.00  0.00    +0.000 HD
ATOM     12  H   UNL     1       1.251   9.563  19.398  0.00  0.00    +0.000 HD
ENDROOT
BRANCH   1  17
ATOM     13  C   UNL     1       5.985   5.402  17.436  0.00  0.00    +0.000 A 
ATOM     14  N   UNL     1       6.230   4.102  17.059  0.00  0.00    +0.000 N 
ATOM     15  C   UNL     1       5.116   3.626  16.427  0.00  0.00    +0.000 A 
ATOM     16  N   UNL     1       4.173   4.536  16.365  0.00  0.00    +0.000 NA
ATOM     17  C   UNL     1       4.704   5.639  16.987  0.00  0.00    +0.000 A 
ATOM     18  H   UNL     1       7.074   3.574  17.227  0.00  0.00    +0.000 HD
BRANCH  13  20
ATOM     19  C   UNL     1       8.004   5.388  18.879  0.00  0.00    +0.000 C 
ATOM     20  C   UNL     1       6.937   6.259  18.214  0.00  0.00    +0.000 C 
ATOM     21  C   UNL     1       7.574   7.357  17.367  0.00  0.00    +0.000 C 
ENDBRANCH  13  20
ENDBRANCH   1  17
BRANCH   7  22
ATOM     22  C   UNL     1      -0.030   9.264  21.628  0.00  0.00    +0.000 A 
ATOM     23  C   UNL     1      -0.435   9.671  22.901  0.00  0.00    +0.000 A 
ATOM     24  C   UNL     1      -1.180  10.839  23.059  0.00  0.00    +0.000 A 
ATOM     25  C   UNL     1      -1.536  11.597  21.941  0.00  0.00    +0.000 A 
ATOM     26  C   UNL     1      -1.154  11.180  20.659  0.00  0.00    +0.000 A 
ATOM     27  C   UNL     1      -0.385  10.020  20.508  0.00  0.00    +0.000 A 
BRANCH  26  28
ATOM     28  C   UNL     1      -1.537  12.012  19.490  0.00  0.00    +0.000 C 
ATOM     29  O   UNL     1      -1.240  13.204  19.480  0.00  0.00    +0.000 OA
BRANCH  28  30
ATOM     30  C   UNL     1      -2.265  11.439  18.325  0.00  0.00    +0.000 A 
ATOM     31  C   UNL     1      -1.573  10.575  17.465  0.00  0.00    +0.000 A 
ATOM     32  C   UNL     1      -2.217  10.032  16.351  0.00  0.00    +0.000 A 
ATOM     33  C   UNL     1      -3.547  10.355  16.104  0.00  0.00    +0.000 A 
ATOM     34  F   UNL     1      -4.164   9.837  15.035  0.00  0.00    +0.000 F 
ATOM     35  C   UNL     1      -4.245  11.214  16.945  0.00  0.00    +0.000 A 
ATOM     36  C   UNL     1      -3.600  11.772  18.050  0.00  0.00    +0.000 A 
ENDBRANCH  28  30
ENDBRANCH  26  28
ENDBRANCH   7  22
TORSDOF 5
ENDMDL
MODEL 2
REMARK VINA RESULT:      -9.5      3.909      8.640
REMARK  Name = 
REMARK  7 active torsions:
REMARK  status: ('A' for Active; 'I' for Inactive)
REMARK    1  A    between atoms: C_1  and  C_2
REMARK    2  A    between atoms: C_2  and  C_3
REMARK    3  A    between atoms: C_2  and  C_4
REMARK    4  A    between atoms: C_8  and  C_9
REMARK    5  A    between atoms: C_15  and  C_16
REMARK    6  A    between atoms: C_20  and  C_21
REMARK    7  A    between atoms: C_21  and  C_23
REMARK                            x       y       z     vdW  Elec       q    Type
REMARK                         _______ _______ _______ _____ _____    ______ ____
ROOT
ATOM      1  C   UNL     1       1.274  11.788  18.781  0.00  0.00    +0.000 C 
ATOM      2  CA  UNL     1       1.344  10.571  19.347  0.00  0.00    +0.000 A 
ATOM      3  N   UNL     1       1.076  10.367  20.679  0.00  0.00    +0.000 N 
ATOM      4  C   UNL     1       1.067   9.161  21.314  0.00  0.00    +0.000 A 
ATOM      5  O   UNL     1       0.796   9.049  22.507  0.00  0.00    +0.000 OA
ATOM      6  CA  UNL     1       1.419   7.986  20.443  0.00  0.00    +0.000 A 
ATOM      7  C   UNL     1       1.456   6.773  21.017  0.00  0.00    +0.000 C 
ATOM      8  N   UNL     1       1.700   8.189  19.112  0.00  0.00    +0.000 N 
ATOM      9  C   UNL     1       1.692   9.406  18.479  0.00  0.00    +0.000 A 
ATOM     10  O   UNL     1       1.950   9.495  17.281  0.00  0.00    +0.000 OA
ATOM     11  H   UNL     1       0.848  11.192  21.239  0.00  0.00    +0.000 HD
ATOM     12  H   UNL     1       1.938   7.404  18.521  0.00  0.00    +0.000 HD
ENDROOT
BRANCH   1  17
ATOM     13  C   UNL     1       1.665  14.115  19.623  0.00  0.00    +0.000 A 
ATOM     14  N   UNL     1       0.815  14.996  20.252  0.00  0.00    +0.000 N 
ATOM     15  C   UNL     1      -0.396  14.383  20.403  0.00  0.00    +0.000 A 
ATOM     16  N   UNL     1      -0.380  13.162  19.921  0.00  0.00    +0.000 NA
ATOM     17  C   UNL     1       0.893  12.990  19.437  0.00  0.00    +0.000 A 
ATOM     18  H   UNL     1       1.031  15.939  20.542  0.00  0.00    +0.000 HD
BRANCH  13  20
ATOM     19  C   UNL     1       3.075  15.254  17.927  0.00  0.00    +0.000 C 
ATOM     20  C   UNL     1       3.072  14.430  19.216  0.00  0.00    +0.000 C 
ATOM     21  C   UNL     1       3.865  15.131  20.317  0.00  0.00    +0.000 C 
ENDBRANCH  13  20
ENDBRANCH   1  17
BRANCH   7  22
ATOM     22  C   UNL     1       1.843   5.546  20.321  0.00  0.00    +0.000 A 
ATOM     23  C   UNL     1       1.138   4.361  20.546  0.00  0.00    +0.000 A 
ATOM     24  C   UNL     1       1.513   3.188  19.891  0.00  0.00    +0.000 A 
ATOM     25  C   UNL     1       2.605   3.193  19.020  0.00  0.00    +0.000 A 
ATOM     26  C   UNL     1       3.331   4.373  18.811  0.00  0.00    +0.000 A 
ATOM     27  C   UNL     1       2.935   5.553  19.450  0.00  0.00    +0.000 A 
BRANCH  26  28
ATOM     28  C   UNL     1       4.480   4.350  17.870  0.00  0.00    +0.000 C 
ATOM     29  O   UNL     1       4.477   3.549  16.940  0.00  0.00    +0.000 OA
BRANCH  28  30
ATOM     30  C   UNL     1       5.634   5.279  18.020  0.00  0.00    +0.000 A 
ATOM     31  C   UNL     1       6.575   5.018  19.026  0.00  0.00    +0.000 A 
ATOM     32  C   UNL     1       7.661   5.878  19.208  0.00  0.00    +0.000 A 
ATOM     33  C   UNL     1       7.799   6.991  18.386  0.00  0.00    +0.000 A 
ATOM     34  F   UNL     1       8.837   7.817  18.564  0.00  0.00    +0.000 F 
ATOM     35  C   UNL     1       6.871   7.266  17.389  0.00  0.00    +0.000 A 
ATOM     36  C   UNL     1       5.775   6.418  17.214  0.00  0.00    +0.000 A 
ENDBRANCH  28  30
ENDBRANCH  26  28
ENDBRANCH   7  22
TORSDOF 5
ENDMDL
MODEL 3
REMARK VINA RESULT:      -9.5      3.704      8.741
REMARK  Name = 
REMARK  7 active torsions:
REMARK  status: ('A' for Active; 'I' for Inactive)
REMARK    1  A    between atoms: C_1  and  C_2
REMARK    2  A    between atoms: C_2  and  C_3
REMARK    3  A    between atoms: C_2  and  C_4
REMARK    4  A    between atoms: C_8  and  C_9
REMARK    5  A    between atoms: C_15  and  C_16
REMARK    6  A    between atoms: C_20  and  C_21
REMARK    7  A    between atoms: C_21  and  C_23
REMARK                            x       y       z     vdW  Elec       q    Type
REMARK                         _______ _______ _______ _____ _____    ______ ____
ROOT
ATOM      1  C   UNL     1       0.910  11.809  18.678  0.00  0.00    +0.000 C 
ATOM      2  CA  UNL     1       1.060  10.613  19.271  0.00  0.00    +0.000 A 
ATOM      3  N   UNL     1       0.647  10.377  20.560  0.00  0.00    +0.000 N 
ATOM      4  C   UNL     1       0.708   9.181  21.210  0.00  0.00    +0.000 A 
ATOM      5  O   UNL     1       0.299   9.036  22.359  0.00  0.00    +0.000 OA
ATOM      6  CA  UNL     1       1.322   8.061  20.415  0.00  0.00    +0.000 A 
ATOM      7  C   UNL     1       1.438   6.863  21.011  0.00  0.00    +0.000 C 
ATOM      8  N   UNL     1       1.748   8.297  19.129  0.00  0.00    +0.000 N 
ATOM      9  C   UNL     1       1.667   9.501  18.478  0.00  0.00    +0.000 A 
ATOM     10  O   UNL     1       2.068   9.621  17.323  0.00  0.00    +0.000 OA
ATOM     11  H   UNL     1       0.242  11.166  21.069  0.00  0.00    +0.000 HD
ATOM     12  H   UNL     1       2.161   7.548  18.589  0.00  0.00    +0.000 HD
ENDROOT
BRANCH   1  17
ATOM     13  C   UNL     1       0.790  14.236  19.287  0.00  0.00    +0.000 A 
ATOM     14  N   UNL     1      -0.208  14.959  19.900  0.00  0.00    +0.000 N 
ATOM     15  C   UNL     1      -1.233  14.104  20.192  0.00  0.00    +0.000 A 
ATOM     16  N   UNL     1      -0.957  12.877  19.817  0.00  0.00    +0.000 NA
ATOM     17  C   UNL     1       0.293  12.952  19.256  0.00  0.00    +0.000 A 
ATOM     18  H   UNL     1      -0.204  15.950  20.092  0.00  0.00    +0.000 HD
BRANCH  13  20
ATOM     19  C   UNL     1       1.875  16.313  18.470  0.00  0.00    +0.000 C 
ATOM     20  C   UNL     1       2.061  14.821  18.751  0.00  0.00    +0.000 C 
ATOM     21  C   UNL     1       3.257  14.580  19.669  0.00  0.00    +0.000 C 
ENDBRANCH  13  20
ENDBRANCH   1  17
BRANCH   7  22
ATOM     22  C   UNL     1       2.069   5.696  20.396  0.00  0.00    +0.000 A 
ATOM     23  C   UNL     1       1.357   4.501  20.267  0.00  0.00    +0.000 A 
ATOM     24  C   UNL     1       1.961   3.385  19.690  0.00  0.00    +0.000 A 
ATOM     25  C   UNL     1       3.285   3.455  19.252  0.00  0.00    +0.000 A 
ATOM     26  C   UNL     1       4.012   4.644  19.402  0.00  0.00    +0.000 A 
ATOM     27  C   UNL     1       3.394   5.769  19.959  0.00  0.00    +0.000 A 
BRANCH  26  28
ATOM     28  C   UNL     1       5.415   4.693  18.917  0.00  0.00    +0.000 C 
ATOM     29  O   UNL     1       6.328   4.791  19.733  0.00  0.00    +0.000 OA
BRANCH  28  30
ATOM     30  C   UNL     1       5.746   4.618  17.468  0.00  0.00    +0.000 A 
ATOM     31  C   UNL     1       7.092   4.698  17.085  0.00  0.00    +0.000 A 
ATOM     32  C   UNL     1       7.440   4.649  15.733  0.00  0.00    +0.000 A 
ATOM     33  C   UNL     1       6.441   4.521  14.773  0.00  0.00    +0.000 A 
ATOM     34  F   UNL     1       6.774   4.478  13.477  0.00  0.00    +0.000 F 
ATOM     35  C   UNL     1       5.102   4.446  15.137  0.00  0.00    +0.000 A 
ATOM     36  C   UNL     1       4.749   4.511  16.487  0.00  0.00    +0.000 A 
ENDBRANCH  28  30
ENDBRANCH  26  28
ENDBRANCH   7  22
TORSDOF 5
ENDMDL
MODEL 4
REMARK VINA RESULT:      -9.5      3.220      8.919
REMARK  Name = 
REMARK  7 active torsions:
REMARK  status: ('A' for Active; 'I' for Inactive)
REMARK    1  A    between atoms: C_1  and  C_2
REMARK    2  A    between atoms: C_2  and  C_3
REMARK    3  A    between atoms: C_2  and  C_4
REMARK    4  A    between atoms: C_8  and  C_9
REMARK    5  A    between atoms: C_15  and  C_16
REMARK    6  A    between atoms: C_20  and  C_21
REMARK    7  A    between atoms: C_21  and  C_23
REMARK                            x       y       z     vdW  Elec       q    Type
REMARK                         _______ _______ _______ _____ _____    ______ ____
ROOT
ATOM      1  C   UNL     1       0.794  11.503  18.543  0.00  0.00    +0.000 C 
ATOM      2  CA  UNL     1       0.960  10.323  19.161  0.00  0.00    +0.000 A 
ATOM      3  N   UNL     1       0.458  10.077  20.416  0.00  0.00    +0.000 N 
ATOM      4  C   UNL     1       0.532   8.891  21.086  0.00  0.00    +0.000 A 
ATOM      5  O   UNL     1       0.041   8.735  22.200  0.00  0.00    +0.000 OA
ATOM      6  CA  UNL     1       1.267   7.799  20.357  0.00  0.00    +0.000 A 
ATOM      7  C   UNL     1       1.399   6.616  20.976  0.00  0.00    +0.000 C 
ATOM      8  N   UNL     1       1.781   8.047  19.106  0.00  0.00    +0.000 N 
ATOM      9  C   UNL     1       1.687   9.239  18.434  0.00  0.00    +0.000 A 
ATOM     10  O   UNL     1       2.172   9.370  17.313  0.00  0.00    +0.000 OA
ATOM     11  H   UNL     1      -0.028  10.847  20.882  0.00  0.00    +0.000 HD
ATOM     12  H   UNL     1       2.275   7.317  18.610  0.00  0.00    +0.000 HD
ENDROOT
BRANCH   1  17
ATOM     13  C   UNL     1      -1.294  12.725  19.198  0.00  0.00    +0.000 A 
ATOM     14  N   UNL     1      -1.464  13.958  19.784  0.00  0.00    +0.000 N 
ATOM     15  C   UNL     1      -0.230  14.515  19.970  0.00  0.00    +0.000 A 
ATOM     16  N   UNL     1       0.723  13.726  19.534  0.00  0.00    +0.000 NA
ATOM     17  C   UNL     1       0.072  12.616  19.054  0.00  0.00    +0.000 A 
ATOM     18  H   UNL     1      -2.341  14.383  20.050  0.00  0.00    +0.000 HD
BRANCH  13  20
ATOM     19  C   UNL     1      -3.716  12.272  19.487  0.00  0.00    +0.000 C 
ATOM     20  C   UNL     1      -2.403  11.767  18.889  0.00  0.00    +0.000 C 
ATOM     21  C   UNL     1      -2.549  11.492  17.394  0.00  0.00    +0.000 C 
ENDBRANCH  13  20
ENDBRANCH   1  17
BRANCH   7  22
ATOM     22  C   UNL     1       2.139   5.479  20.428  0.00  0.00    +0.000 A 
ATOM     23  C   UNL     1       1.552   4.212  20.395  0.00  0.00    +0.000 A 
ATOM     24  C   UNL     1       2.260   3.125  19.882  0.00  0.00    +0.000 A 
ATOM     25  C   UNL     1       3.565   3.301  19.414  0.00  0.00    +0.000 A 
ATOM     26  C   UNL     1       4.167   4.564  19.469  0.00  0.00    +0.000 A 
ATOM     27  C   UNL     1       3.443   5.657  19.961  0.00  0.00    +0.000 A 
BRANCH  26  28
ATOM     28  C   UNL     1       5.552   4.722  18.954  0.00  0.00    +0.000 C 
ATOM     29  O   UNL     1       6.470   4.897  19.750  0.00  0.00    +0.000 OA
BRANCH  28  30
ATOM     30  C   UNL     1       5.857   4.667  17.498  0.00  0.00    +0.000 A 
ATOM     31  C   UNL     1       4.794   4.503  16.599  0.00  0.00    +0.000 A 
ATOM     32  C   UNL     1       5.044   4.428  15.226  0.00  0.00    +0.000 A 
ATOM     33  C   UNL     1       6.352   4.518  14.763  0.00  0.00    +0.000 A 
ATOM     34  F   UNL     1       6.592   4.443  13.448  0.00  0.00    +0.000 F 
ATOM     35  C   UNL     1       7.416   4.675  15.643  0.00  0.00    +0.000 A 
ATOM     36  C   UNL     1       7.173   4.734  17.016  0.00  0.00    +0.000 A 
ENDBRANCH  28  30
ENDBRANCH  26  28
ENDBRANCH   7  22
TORSDOF 5
ENDMDL
MODEL 5
REMARK VINA RESULT:      -9.3      3.758      8.521
REMARK  Name = 
REMARK  7 active torsions:
REMARK  status: ('A' for Active; 'I' for Inactive)
REMARK    1  A    between atoms: C_1  and  C_2
REMARK    2  A    between atoms: C_2  and  C_3
REMARK    3  A    between atoms: C_2  and  C_4
REMARK    4  A    between atoms: C_8  and  C_9
REMARK    5  A    between atoms: C_15  and  C_16
REMARK    6  A    between atoms: C_20  and  C_21
REMARK    7  A    between atoms: C_21  and  C_23
REMARK                            x       y       z     vdW  Elec       q    Type
REMARK                         _______ _______ _______ _____ _____    ______ ____
ROOT
ATOM      1  C   UNL     1       0.973  11.864  18.772  0.00  0.00    +0.000 C 
ATOM      2  CA  UNL     1       1.074  10.671  19.382  0.00  0.00    +0.000 A 
ATOM      3  N   UNL     1       0.782  10.503  20.713  0.00  0.00    +0.000 N 
ATOM      4  C   UNL     1       0.802   9.319  21.389  0.00  0.00    +0.000 A 
ATOM      5  O   UNL     1       0.507   9.237  22.579  0.00  0.00    +0.000 OA
ATOM      6  CA  UNL     1       1.220   8.130  20.569  0.00  0.00    +0.000 A 
ATOM      7  C   UNL     1       1.288   6.939  21.185  0.00  0.00    +0.000 C 
ATOM      8  N   UNL     1       1.525   8.298  19.238  0.00  0.00    +0.000 N 
ATOM      9  C   UNL     1       1.487   9.491  18.563  0.00  0.00    +0.000 A 
ATOM     10  O   UNL     1       1.770   9.549  17.369  0.00  0.00    +0.000 OA
ATOM     11  H   UNL     1       0.509  11.337  21.238  0.00  0.00    +0.000 HD
ATOM     12  H   UNL     1       1.806   7.502  18.680  0.00  0.00    +0.000 HD
ENDROOT
BRANCH   1  17
ATOM     13  C   UNL     1       1.298  14.172  19.692  0.00  0.00    +0.000 A 
ATOM     14  N   UNL     1       0.388  15.073  20.194  0.00  0.00    +0.000 N 
ATOM     15  C   UNL     1      -0.850  14.496  20.151  0.00  0.00    +0.000 A 
ATOM     16  N   UNL     1      -0.796  13.280  19.663  0.00  0.00    +0.000 NA
ATOM     17  C   UNL     1       0.531  13.072  19.377  0.00  0.00    +0.000 A 
ATOM     18  H   UNL     1       0.584  16.007  20.525  0.00  0.00    +0.000 HD
BRANCH  13  20
ATOM     19  C   UNL     1       3.542  13.960  20.728  0.00  0.00    +0.000 C 
ATOM     20  C   UNL     1       2.759  14.447  19.508  0.00  0.00    +0.000 C 
ATOM     21  C   UNL     1       3.318  13.846  18.221  0.00  0.00    +0.000 C 
ENDBRANCH  13  20
ENDBRANCH   1  17
BRANCH   7  22
ATOM     22  C   UNL     1       1.738   5.705  20.542  0.00  0.00    +0.000 A 
ATOM     23  C   UNL     1       0.829   4.674  20.292  0.00  0.00    +0.000 A 
ATOM     24  C   UNL     1       1.259   3.493  19.688  0.00  0.00    +0.000 A 
ATOM     25  C   UNL     1       2.603   3.332  19.346  0.00  0.00    +0.000 A 
ATOM     26  C   UNL     1       3.524   4.353  19.618  0.00  0.00    +0.000 A 
ATOM     27  C   UNL     1       3.083   5.547  20.201  0.00  0.00    +0.000 A 
BRANCH  26  28
ATOM     28  C   UNL     1       4.946   4.159  19.233  0.00  0.00    +0.000 C 
ATOM     29  O   UNL     1       5.463   3.056  19.389  0.00  0.00    +0.000 OA
BRANCH  28  30
ATOM     30  C   UNL     1       5.759   5.264  18.656  0.00  0.00    +0.000 A 
ATOM     31  C   UNL     1       7.025   5.516  19.201  0.00  0.00    +0.000 A 
ATOM     32  C   UNL     1       7.810   6.556  18.696  0.00  0.00    +0.000 A 
ATOM     33  C   UNL     1       7.324   7.336  17.653  0.00  0.00    +0.000 A 
ATOM     34  F   UNL     1       8.074   8.336  17.172  0.00  0.00    +0.000 F 
ATOM     35  C   UNL     1       6.068   7.102  17.107  0.00  0.00    +0.000 A 
ATOM     36  C   UNL     1       5.274   6.073  17.618  0.00  0.00    +0.000 A 
ENDBRANCH  28  30
ENDBRANCH  26  28
ENDBRANCH   7  22
TORSDOF 5
ENDMDL
MODEL 6
REMARK VINA RESULT:      -9.3      1.017      1.480
REMARK  Name = 
REMARK  7 active torsions:
REMARK  status: ('A' for Active; 'I' for Inactive)
REMARK    1  A    between atoms: C_1  and  C_2
REMARK    2  A    between atoms: C_2  and  C_3
REMARK    3  A    between atoms: C_2  and  C_4
REMARK    4  A    between atoms: C_8  and  C_9
REMARK    5  A    between atoms: C_15  and  C_16
REMARK    6  A    between atoms: C_20  and  C_21
REMARK    7  A    between atoms: C_21  and  C_23
REMARK                            x       y       z     vdW  Elec       q    Type
REMARK                         _______ _______ _______ _____ _____    ______ ____
ROOT
ATOM      1  C   UNL     1       3.913   6.868  17.178  0.00  0.00    +0.000 C 
ATOM      2  CA  UNL     1       3.097   7.165  18.203  0.00  0.00    +0.000 A 
ATOM      3  N   UNL     1       2.872   6.289  19.237  0.00  0.00    +0.000 N 
ATOM      4  C   UNL     1       2.109   6.537  20.339  0.00  0.00    +0.000 A 
ATOM      5  O   UNL     1       1.967   5.713  21.239  0.00  0.00    +0.000 OA
ATOM      6  CA  UNL     1       1.451   7.890  20.361  0.00  0.00    +0.000 A 
ATOM      7  C   UNL     1       0.662   8.183  21.406  0.00  0.00    +0.000 C 
ATOM      8  N   UNL     1       1.665   8.764  19.320  0.00  0.00    +0.000 N 
ATOM      9  C   UNL     1       2.447   8.511  18.223  0.00  0.00    +0.000 A 
ATOM     10  O   UNL     1       2.588   9.355  17.342  0.00  0.00    +0.000 OA
ATOM     11  H   UNL     1       3.331   5.377  19.182  0.00  0.00    +0.000 HD
ATOM     12  H   UNL     1       1.226   9.675  19.329  0.00  0.00    +0.000 HD
ENDROOT
BRANCH   1  17
ATOM     13  C   UNL     1       5.937   5.426  17.497  0.00  0.00    +0.000 A 
ATOM     14  N   UNL     1       6.169   4.116  17.148  0.00  0.00    +0.000 N 
ATOM     15  C   UNL     1       5.054   3.641  16.517  0.00  0.00    +0.000 A 
ATOM     16  N   UNL     1       4.124   4.562  16.428  0.00  0.00    +0.000 NA
ATOM     17  C   UNL     1       4.663   5.670  17.033  0.00  0.00    +0.000 A 
ATOM     18  H   UNL     1       7.006   3.582  17.333  0.00  0.00    +0.000 HD
BRANCH  13  20
ATOM     19  C   UNL     1       7.945   5.417  18.956  0.00  0.00    +0.000 C 
ATOM     20  C   UNL     1       6.893   6.287  18.266  0.00  0.00    +0.000 C 
ATOM     21  C   UNL     1       7.550   7.361  17.403  0.00  0.00    +0.000 C 
ENDBRANCH  13  20
ENDBRANCH   1  17
BRANCH   7  22
ATOM     22  C   UNL     1      -0.096   9.427  21.541  0.00  0.00    +0.000 A 
ATOM     23  C   UNL     1      -0.398   9.929  22.809  0.00  0.00    +0.000 A 
ATOM     24  C   UNL     1      -1.130  11.110  22.939  0.00  0.00    +0.000 A 
ATOM     25  C   UNL     1      -1.575  11.784  21.800  0.00  0.00    +0.000 A 
ATOM     26  C   UNL     1      -1.296  11.271  20.526  0.00  0.00    +0.000 A 
ATOM     27  C   UNL     1      -0.540  10.100  20.400  0.00  0.00    +0.000 A 
BRANCH  26  28
ATOM     28  C   UNL     1      -1.773  12.016  19.332  0.00  0.00    +0.000 C 
ATOM     29  O   UNL     1      -0.988  12.741  18.727  0.00  0.00    +0.000 OA
BRANCH  28  30
ATOM     30  C   UNL     1      -3.175  11.901  18.845  0.00  0.00    +0.000 A 
ATOM     31  C   UNL     1      -4.201  12.440  19.632  0.00  0.00    +0.000 A 
ATOM     32  C   UNL     1      -5.531  12.335  19.216  0.00  0.00    +0.000 A 
ATOM     33  C   UNL     1      -5.825  11.694  18.018  0.00  0.00    +0.000 A 
ATOM     34  F   UNL     1      -7.099  11.590  17.621  0.00  0.00    +0.000 F 
ATOM     35  C   UNL     1      -4.818  11.150  17.230  0.00  0.00    +0.000 A 
ATOM     36  C   UNL     1      -3.489  11.238  17.650  0.00  0.00    +0.000 A 
ENDBRANCH  28  30
ENDBRANCH  26  28
ENDBRANCH   7  22
TORSDOF 5
ENDMDL
MODEL 7
REMARK VINA RESULT:      -9.3      4.050     10.074
REMARK  Name = 
REMARK  7 active torsions:
REMARK  status: ('A' for Active; 'I' for Inactive)
REMARK    1  A    between atoms: C_1  and  C_2
REMARK    2  A    between atoms: C_2  and  C_3
REMARK    3  A    between atoms: C_2  and  C_4
REMARK    4  A    between atoms: C_8  and  C_9
REMARK    5  A    between atoms: C_15  and  C_16
REMARK    6  A    between atoms: C_20  and  C_21
REMARK    7  A    between atoms: C_21  and  C_23
REMARK                            x       y       z     vdW  Elec       q    Type
REMARK                         _______ _______ _______ _____ _____    ______ ____
ROOT
ATOM      1  C   UNL     1      -2.200  13.429  22.025  0.00  0.00    +0.000 C 
ATOM      2  CA  UNL     1      -1.409  12.354  21.877  0.00  0.00    +0.000 A 
ATOM      3  N   UNL     1      -1.036  11.568  22.940  0.00  0.00    +0.000 N 
ATOM      4  C   UNL     1      -0.287  10.431  22.866  0.00  0.00    +0.000 A 
ATOM      5  O   UNL     1      -0.008   9.763  23.858  0.00  0.00    +0.000 OA
ATOM      6  CA  UNL     1       0.172  10.066  21.481  0.00  0.00    +0.000 A 
ATOM      7  C   UNL     1       0.938   8.972  21.345  0.00  0.00    +0.000 C 
ATOM      8  N   UNL     1      -0.190  10.858  20.416  0.00  0.00    +0.000 N 
ATOM      9  C   UNL     1      -0.957  11.992  20.500  0.00  0.00    +0.000 A 
ATOM     10  O   UNL     1      -1.239  12.637  19.492  0.00  0.00    +0.000 OA
ATOM     11  H   UNL     1      -1.361  11.854  23.866  0.00  0.00    +0.000 HD
ATOM     12  H   UNL     1       0.115  10.618  19.482  0.00  0.00    +0.000 HD
ENDROOT
BRANCH   1  17
ATOM     13  C   UNL     1      -4.068  13.670  23.678  0.00  0.00    +0.000 A 
ATOM     14  N   UNL     1      -4.091  14.248  24.926  0.00  0.00    +0.000 N 
ATOM     15  C   UNL     1      -2.848  14.752  25.184  0.00  0.00    +0.000 A 
ATOM     16  N   UNL     1      -2.028  14.546  24.181  0.00  0.00    +0.000 NA
ATOM     17  C   UNL     1      -2.777  13.876  23.245  0.00  0.00    +0.000 A 
ATOM     18  H   UNL     1      -4.878  14.286  25.559  0.00  0.00    +0.000 HD
BRANCH  13  20
ATOM     19  C   UNL     1      -6.367  12.814  24.054  0.00  0.00    +0.000 C 
ATOM     20  C   UNL     1      -5.220  12.946  23.051  0.00  0.00    +0.000 C 
ATOM     21  C   UNL     1      -5.696  13.599  21.756  0.00  0.00    +0.000 C 
ENDBRANCH  13  20
ENDBRANCH   1  17
BRANCH   7  22
ATOM     22  C   UNL     1       1.514   8.524  20.078  0.00  0.00    +0.000 A 
ATOM     23  C   UNL     1       1.374   9.306  18.929  0.00  0.00    +0.000 A 
ATOM     24  C   UNL     1       1.914   8.875  17.718  0.00  0.00    +0.000 A 
ATOM     25  C   UNL     1       2.585   7.652  17.649  0.00  0.00    +0.000 A 
ATOM     26  C   UNL     1       2.706   6.852  18.792  0.00  0.00    +0.000 A 
ATOM     27  C   UNL     1       2.185   7.300  20.011  0.00  0.00    +0.000 A 
BRANCH  26  28
ATOM     28  C   UNL     1       3.435   5.561  18.691  0.00  0.00    +0.000 C 
ATOM     29  O   UNL     1       3.120   4.636  19.435  0.00  0.00    +0.000 OA
BRANCH  28  30
ATOM     30  C   UNL     1       4.531   5.355  17.705  0.00  0.00    +0.000 A 
ATOM     31  C   UNL     1       4.373   4.363  16.728  0.00  0.00    +0.000 A 
ATOM     32  C   UNL     1       5.388   4.129  15.797  0.00  0.00    +0.000 A 
ATOM     33  C   UNL     1       6.552   4.887  15.849  0.00  0.00    +0.000 A 
ATOM     34  F   UNL     1       7.527   4.660  14.959  0.00  0.00    +0.000 F 
ATOM     35  C   UNL     1       6.726   5.870  16.815  0.00  0.00    +0.000 A 
ATOM     36  C   UNL     1       5.721   6.096  17.758  0.00  0.00    +0.000 A 
ENDBRANCH  28  30
ENDBRANCH  26  28
ENDBRANCH   7  22
TORSDOF 5
ENDMDL
MODEL 8
REMARK VINA RESULT:      -9.3      4.167      9.933
REMARK  Name = 
REMARK  7 active torsions:
REMARK  status: ('A' for Active; 'I' for Inactive)
REMARK    1  A    between atoms: C_1  and  C_2
REMARK    2  A    between atoms: C_2  and  C_3
REMARK    3  A    between atoms: C_2  and  C_4
REMARK    4  A    between atoms: C_8  and  C_9
REMARK    5  A    between atoms: C_15  and  C_16
REMARK    6  A    between atoms: C_20  and  C_21
REMARK    7  A    between atoms: C_21  and  C_23
REMARK                            x       y       z     vdW  Elec       q    Type
REMARK                         _______ _______ _______ _____ _____    ______ ____
ROOT
ATOM      1  C   UNL     1      -5.037  11.422  17.433  0.00  0.00    +0.000 C 
ATOM      2  CA  UNL     1      -3.791  11.287  17.917  0.00  0.00    +0.000 A 
ATOM      3  N   UNL     1      -3.278  12.139  18.865  0.00  0.00    +0.000 N 
ATOM      4  C   UNL     1      -2.050  12.034  19.448  0.00  0.00    +0.000 A 
ATOM      5  O   UNL     1      -1.662  12.822  20.307  0.00  0.00    +0.000 OA
ATOM      6  CA  UNL     1      -1.210  10.889  18.952  0.00  0.00    +0.000 A 
ATOM      7  C   UNL     1       0.022  10.750  19.467  0.00  0.00    +0.000 C 
ATOM      8  N   UNL     1      -1.717  10.042  17.994  0.00  0.00    +0.000 N 
ATOM      9  C   UNL     1      -2.961  10.147  17.425  0.00  0.00    +0.000 A 
ATOM     10  O   UNL     1      -3.336   9.339  16.578  0.00  0.00    +0.000 OA
ATOM     11  H   UNL     1      -3.877  12.909  19.170  0.00  0.00    +0.000 HD
ATOM     12  H   UNL     1      -1.158   9.270  17.657  0.00  0.00    +0.000 HD
ENDROOT
BRANCH   1  17
ATOM     13  C   UNL     1      -6.632  12.479  19.051  0.00  0.00    +0.000 A 
ATOM     14  N   UNL     1      -7.384  13.627  18.949  0.00  0.00    +0.000 N 
ATOM     15  C   UNL     1      -7.155  14.176  17.719  0.00  0.00    +0.000 A 
ATOM     16  N   UNL     1      -6.313  13.453  17.019  0.00  0.00    +0.000 NA
ATOM     17  C   UNL     1      -5.985  12.401  17.838  0.00  0.00    +0.000 A 
ATOM     18  H   UNL     1      -7.990  14.015  19.657  0.00  0.00    +0.000 HD
BRANCH  13  20
ATOM     19  C   UNL     1      -7.067  12.385  21.493  0.00  0.00    +0.000 C 
ATOM     20  C   UNL     1      -6.552  11.617  20.274  0.00  0.00    +0.000 C 
ATOM     21  C   UNL     1      -7.287  10.289  20.112  0.00  0.00    +0.000 C 
ENDBRANCH  13  20
ENDBRANCH   1  17
BRANCH   7  22
ATOM     22  C   UNL     1       0.980   9.729  19.042  0.00  0.00    +0.000 A 
ATOM     23  C   UNL     1       1.797   9.955  17.932  0.00  0.00    +0.000 A 
ATOM     24  C   UNL     1       2.704   8.979  17.520  0.00  0.00    +0.000 A 
ATOM     25  C   UNL     1       2.785   7.766  18.209  0.00  0.00    +0.000 A 
ATOM     26  C   UNL     1       1.949   7.525  19.307  0.00  0.00    +0.000 A 
ATOM     27  C   UNL     1       1.059   8.518  19.733  0.00  0.00    +0.000 A 
BRANCH  26  28
ATOM     28  C   UNL     1       2.066   6.231  20.027  0.00  0.00    +0.000 C 
ATOM     29  O   UNL     1       1.781   6.182  21.221  0.00  0.00    +0.000 OA
BRANCH  28  30
ATOM     30  C   UNL     1       2.511   4.988  19.339  0.00  0.00    +0.000 A 
ATOM     31  C   UNL     1       3.804   4.510  19.594  0.00  0.00    +0.000 A 
ATOM     32  C   UNL     1       4.263   3.357  18.952  0.00  0.00    +0.000 A 
ATOM     33  C   UNL     1       3.428   2.691  18.061  0.00  0.00    +0.000 A 
ATOM     34  F   UNL     1       3.870   1.589  17.443  0.00  0.00    +0.000 F 
ATOM     35  C   UNL     1       2.147   3.157  17.794  0.00  0.00    +0.000 A 
ATOM     36  C   UNL     1       1.690   4.318  18.421  0.00  0.00    +0.000 A 
ENDBRANCH  28  30
ENDBRANCH  26  28
ENDBRANCH   7  22
TORSDOF 5
ENDMDL
MODEL 9
REMARK VINA RESULT:      -9.3      3.431      8.887
REMARK  Name = 
REMARK  7 active torsions:
REMARK  status: ('A' for Active; 'I' for Inactive)
REMARK    1  A    between atoms: C_1  and  C_2
REMARK    2  A    between atoms: C_2  and  C_3
REMARK    3  A    between atoms: C_2  and  C_4
REMARK    4  A    between atoms: C_8  and  C_9
REMARK    5  A    between atoms: C_15  and  C_16
REMARK    6  A    between atoms: C_20  and  C_21
REMARK    7  A    between atoms: C_21  and  C_23
REMARK                            x       y       z     vdW  Elec       q    Type
REMARK                         _______ _______ _______ _____ _____    ______ ____
ROOT
ATOM      1  C   UNL     1       1.185  11.702  18.784  0.00  0.00    +0.000 C 
ATOM      2  CA  UNL     1       1.287  10.490  19.354  0.00  0.00    +0.000 A 
ATOM      3  N   UNL     1       1.028  10.284  20.687  0.00  0.00    +0.000 N 
ATOM      4  C   UNL     1       1.051   9.080  21.326  0.00  0.00    +0.000 A 
ATOM      5  O   UNL     1       0.787   8.965  22.520  0.00  0.00    +0.000 OA
ATOM      6  CA  UNL     1       1.432   7.912  20.459  0.00  0.00    +0.000 A 
ATOM      7  C   UNL     1       1.501   6.702  21.036  0.00  0.00    +0.000 C 
ATOM      8  N   UNL     1       1.704   8.117  19.126  0.00  0.00    +0.000 N 
ATOM      9  C   UNL     1       1.662   9.331  18.490  0.00  0.00    +0.000 A 
ATOM     10  O   UNL     1       1.915   9.422  17.290  0.00  0.00    +0.000 OA
ATOM     11  H   UNL     1       0.780  11.104  21.245  0.00  0.00    +0.000 HD
ATOM     12  H   UNL     1       1.960   7.336  18.537  0.00  0.00    +0.000 HD
ENDROOT
BRANCH   1  17
ATOM     13  C   UNL     1      -0.485  13.193  19.911  0.00  0.00    +0.000 A 
ATOM     14  N   UNL     1      -0.333  14.428  20.498  0.00  0.00    +0.000 N 
ATOM     15  C   UNL     1       0.974  14.803  20.364  0.00  0.00    +0.000 A 
ATOM     16  N   UNL     1       1.671  13.896  19.722  0.00  0.00    +0.000 NA
ATOM     17  C   UNL     1       0.774  12.896  19.437  0.00  0.00    +0.000 A 
ATOM     18  H   UNL     1      -1.049  14.967  20.964  0.00  0.00    +0.000 HD
BRANCH  13  20
ATOM     19  C   UNL     1      -2.861  13.177  20.628  0.00  0.00    +0.000 C 
ATOM     20  C   UNL     1      -1.759  12.404  19.901  0.00  0.00    +0.000 C 
ATOM     21  C   UNL     1      -2.201  12.010  18.494  0.00  0.00    +0.000 C 
ENDBRANCH  13  20
ENDBRANCH   1  17
BRANCH   7  22
ATOM     22  C   UNL     1       1.918   5.483  20.344  0.00  0.00    +0.000 A 
ATOM     23  C   UNL     1       1.227   4.287  20.554  0.00  0.00    +0.000 A 
ATOM     24  C   UNL     1       1.631   3.121  19.903  0.00  0.00    +0.000 A 
ATOM     25  C   UNL     1       2.736   3.145  19.049  0.00  0.00    +0.000 A 
ATOM     26  C   UNL     1       3.448   4.337  18.855  0.00  0.00    +0.000 A 
ATOM     27  C   UNL     1       3.024   5.509  19.491  0.00  0.00    +0.000 A 
BRANCH  26  28
ATOM     28  C   UNL     1       4.612   4.334  17.933  0.00  0.00    +0.000 C 
ATOM     29  O   UNL     1       4.664   3.498  17.035  0.00  0.00    +0.000 OA
BRANCH  28  30
ATOM     30  C   UNL     1       5.716   5.324  18.063  0.00  0.00    +0.000 A 
ATOM     31  C   UNL     1       5.715   6.441  17.215  0.00  0.00    +0.000 A 
ATOM     32  C   UNL     1       6.745   7.382  17.296  0.00  0.00    +0.000 A 
ATOM     33  C   UNL     1       7.767   7.201  18.222  0.00  0.00    +0.000 A 
ATOM     34  F   UNL     1       8.755   8.101  18.296  0.00  0.00    +0.000 F 
ATOM     35  C   UNL     1       7.784   6.096  19.064  0.00  0.00    +0.000 A 
ATOM     36  C   UNL     1       6.766   5.145  18.976  0.00  0.00    +0.000 A 
ENDBRANCH  28  30
ENDBRANCH  26  28
ENDBRANCH   7  22
TORSDOF 5
ENDMDL
