MODEL 1
REMARK VINA RESULT:      -7.5      0.000      0.000
REMARK  Name = 
REMARK  3 active torsions:
REMARK  status: ('A' for Active; 'I' for Inactive)
REMARK    1  A    between atoms: C_1  and  C_2
REMARK    2  A    between atoms: C_2  and  N_3
REMARK    3  A    between atoms: C_9  and  C_10
REMARK                            x       y       z     vdW  Elec       q    Type
REMARK                         _______ _______ _______ _____ _____    ______ ____
ROOT
ATOM      1  N   UNL     1       3.164   4.466  19.532  0.00  0.00    +0.000 N 
ATOM      2  C   UNL     1       3.778   3.223  19.757  0.00  0.00    +0.000 A 
ATOM      3  O   UNL     1       3.598   2.543  20.768  0.00  0.00    +0.000 OA
ATOM      4  N   UNL     1       4.629   2.746  18.776  0.00  0.00    +0.000 N 
ATOM      5  C   UNL     1       4.843   3.503  17.665  0.00  0.00    +0.000 A 
ATOM      6  N   UNL     1       5.595   3.217  16.570  0.00  0.00    +0.000 N 
ATOM      7  C   UNL     1       5.484   4.294  15.706  0.00  0.00    +0.000 A 
ATOM      8  N   UNL     1       4.731   5.241  16.249  0.00  0.00    +0.000 NA
ATOM      9  C   UNL     1       4.310   4.742  17.455  0.00  0.00    +0.000 A 
ATOM     10  C   UNL     1       3.428   5.326  18.444  0.00  0.00    +0.000 A 
ATOM     11  O   UNL     1       2.959   6.456  18.336  0.00  0.00    +0.000 OA
ATOM     12  H   UNL     1       5.055   1.840  18.930  0.00  0.00    +0.000 HD
ATOM     13  H   UNL     1       6.139   2.386  16.399  0.00  0.00    +0.000 HD
ENDROOT
BRANCH   7  14
ATOM     14  C   UNL     1       6.135   4.365  14.396  0.00  0.00    +0.000 A 
ATOM     15  C   UNL     1       7.240   5.196  14.161  0.00  0.00    +0.000 A 
ATOM     16  C   UNL     1       7.839   5.239  12.899  0.00  0.00    +0.000 A 
ATOM     17  C   UNL     1       7.343   4.453  11.860  0.00  0.00    +0.000 A 
ATOM     18  C   UNL     1       6.254   3.614  12.084  0.00  0.00    +0.000 A 
ATOM     19  C   UNL     1       5.659   3.566  13.347  0.00  0.00    +0.000 A 
ENDBRANCH   7  14
BRANCH   1  21
ATOM     20  C   UNL     1       0.832   4.332  20.349  0.00  0.00    +0.000 C 
ATOM     21  C   UNL     1       2.213   4.944  20.526  0.00  0.00    +0.000 C 
ENDBRANCH   1  21
TORSDOF 2
ENDMDL
MODEL 2
REMARK VINA RESULT:      -7.5      0.116      1.113
REMARK  Name = 
REMARK  3 active torsions:
REMARK  status: ('A' for Active; 'I' for Inactive)
REMARK    1  A    between atoms: C_1  and  C_2
REMARK    2  A    between atoms: C_2  and  N_3
REMARK    3  A    between atoms: C_9  and  C_10
REMARK                            x       y       z     vdW  Elec       q    Type
REMARK                         _______ _______ _______ _____ _____    ______ ____
ROOT
ATOM      1  N   UNL     1       3.228   4.591  19.523  0.00  0.00    +0.000 N 
ATOM      2  C   UNL     1       3.774   3.316  19.743  0.00  0.00    +0.000 A 
ATOM      3  O   UNL     1       3.573   2.650  20.759  0.00  0.00    +0.000 OA
ATOM      4  N   UNL     1       4.579   2.789  18.749  0.00  0.00    +0.000 N 
ATOM      5  C   UNL     1       4.817   3.530  17.632  0.00  0.00    +0.000 A 
ATOM      6  N   UNL     1       5.533   3.200  16.525  0.00  0.00    +0.000 N 
ATOM      7  C   UNL     1       5.469   4.279  15.659  0.00  0.00    +0.000 A 
ATOM      8  N   UNL     1       4.780   5.269  16.212  0.00  0.00    +0.000 NA
ATOM      9  C   UNL     1       4.352   4.797  17.426  0.00  0.00    +0.000 A 
ATOM     10  C   UNL     1       3.522   5.432  18.428  0.00  0.00    +0.000 A 
ATOM     11  O   UNL     1       3.115   6.587  18.325  0.00  0.00    +0.000 OA
ATOM     12  H   UNL     1       4.956   1.861  18.899  0.00  0.00    +0.000 HD
ATOM     13  H   UNL     1       6.027   2.338  16.348  0.00  0.00    +0.000 HD
ENDROOT
BRANCH   7  14
ATOM     14  C   UNL     1       6.100   4.309  14.338  0.00  0.00    +0.000 A 
ATOM     15  C   UNL     1       5.618   3.543  13.268  0.00  0.00    +0.000 A 
ATOM     16  C   UNL     1       6.243   3.597  12.019  0.00  0.00    +0.000 A 
ATOM     17  C   UNL     1       7.355   4.416  11.826  0.00  0.00    +0.000 A 
ATOM     18  C   UNL     1       7.836   5.192  12.877  0.00  0.00    +0.000 A 
ATOM     19  C   UNL     1       7.207   5.144  14.124  0.00  0.00    +0.000 A 
ENDBRANCH   7  14
BRANCH   1  21
ATOM     20  C   UNL     1       0.934   4.510  20.448  0.00  0.00    +0.000 C 
ATOM     21  C   UNL     1       2.322   5.125  20.532  0.00  0.00    +0.000 C 
ENDBRANCH   1  21
TORSDOF 2
ENDMDL
MODEL 3
REMARK VINA RESULT:      -7.4      1.201      1.263
REMARK  Name = 
REMARK  3 active torsions:
REMARK  status: ('A' for Active; 'I' for Inactive)
REMARK    1  A    between atoms: C_1  and  C_2
REMARK    2  A    between atoms: C_2  and  N_3
REMARK    3  A    between atoms: C_9  and  C_10
REMARK                            x       y       z     vdW  Elec       q    Type
REMARK                         _______ _______ _______ _____ _____    ______ ____
ROOT
ATOM      1  N   UNL     1       2.733   2.990  19.172  0.00  0.00    +0.000 N 
ATOM      2  C   UNL     1       3.948   2.857  19.864  0.00  0.00    +0.000 A 
ATOM      3  O   UNL     1       4.029   2.548  21.053  0.00  0.00    +0.000 OA
ATOM      4  N   UNL     1       5.113   3.084  19.154  0.00  0.00    +0.000 N 
ATOM      5  C   UNL     1       5.026   3.441  17.843  0.00  0.00    +0.000 A 
ATOM      6  N   UNL     1       6.027   3.669  16.952  0.00  0.00    +0.000 N 
ATOM      7  C   UNL     1       5.433   3.988  15.742  0.00  0.00    +0.000 A 
ATOM      8  N   UNL     1       4.113   4.007  15.871  0.00  0.00    +0.000 NA
ATOM      9  C   UNL     1       3.857   3.642  17.168  0.00  0.00    +0.000 A 
ATOM     10  C   UNL     1       2.591   3.449  17.844  0.00  0.00    +0.000 A 
ATOM     11  O   UNL     1       1.507   3.663  17.307  0.00  0.00    +0.000 OA
ATOM     12  H   UNL     1       5.990   2.968  19.648  0.00  0.00    +0.000 HD
ATOM     13  H   UNL     1       7.020   3.622  17.120  0.00  0.00    +0.000 HD
ENDROOT
BRANCH   7  14
ATOM     14  C   UNL     1       6.177   4.285  14.516  0.00  0.00    +0.000 A 
ATOM     15  C   UNL     1       7.227   5.215  14.492  0.00  0.00    +0.000 A 
ATOM     16  C   UNL     1       7.918   5.473  13.305  0.00  0.00    +0.000 A 
ATOM     17  C   UNL     1       7.570   4.806  12.132  0.00  0.00    +0.000 A 
ATOM     18  C   UNL     1       6.538   3.871  12.145  0.00  0.00    +0.000 A 
ATOM     19  C   UNL     1       5.851   3.607  13.333  0.00  0.00    +0.000 A 
ENDBRANCH   7  14
BRANCH   1  21
ATOM     20  C   UNL     1       0.945   3.895  20.623  0.00  0.00    +0.000 C 
ATOM     21  C   UNL     1       1.504   2.685  19.892  0.00  0.00    +0.000 C 
ENDBRANCH   1  21
TORSDOF 2
ENDMDL
MODEL 4
REMARK VINA RESULT:      -7.3      1.187      1.660
REMARK  Name = 
REMARK  3 active torsions:
REMARK  status: ('A' for Active; 'I' for Inactive)
REMARK    1  A    between atoms: C_1  and  C_2
REMARK    2  A    between atoms: C_2  and  N_3
REMARK    3  A    between atoms: C_9  and  C_10
REMARK                            x       y       z     vdW  Elec       q    Type
REMARK                         _______ _______ _______ _____ _____    ______ ____
ROOT
ATOM      1  N   UNL     1       2.723   3.033  19.165  0.00  0.00    +0.000 N 
ATOM      2  C   UNL     1       3.941   2.887  19.847  0.00  0.00    +0.000 A 
ATOM      3  O   UNL     1       4.028   2.587  21.039  0.00  0.00    +0.000 OA
ATOM      4  N   UNL     1       5.104   3.091  19.126  0.00  0.00    +0.000 N 
ATOM      5  C   UNL     1       5.011   3.440  17.813  0.00  0.00    +0.000 A 
ATOM      6  N   UNL     1       6.008   3.645  16.913  0.00  0.00    +0.000 N 
ATOM      7  C   UNL     1       5.408   3.963  15.705  0.00  0.00    +0.000 A 
ATOM      8  N   UNL     1       4.090   4.002  15.844  0.00  0.00    +0.000 NA
ATOM      9  C   UNL     1       3.839   3.652  17.146  0.00  0.00    +0.000 A 
ATOM     10  C   UNL     1       2.577   3.483  17.834  0.00  0.00    +0.000 A 
ATOM     11  O   UNL     1       1.491   3.708  17.304  0.00  0.00    +0.000 OA
ATOM     12  H   UNL     1       5.982   2.966  19.614  0.00  0.00    +0.000 HD
ATOM     13  H   UNL     1       7.002   3.585  17.073  0.00  0.00    +0.000 HD
ENDROOT
BRANCH   7  14
ATOM     14  C   UNL     1       6.147   4.239  14.470  0.00  0.00    +0.000 A 
ATOM     15  C   UNL     1       5.827   3.609  13.259  0.00  0.00    +0.000 A 
ATOM     16  C   UNL     1       6.550   3.896  12.097  0.00  0.00    +0.000 A 
ATOM     17  C   UNL     1       7.598   4.814  12.134  0.00  0.00    +0.000 A 
ATOM     18  C   UNL     1       7.918   5.456  13.328  0.00  0.00    +0.000 A 
ATOM     19  C   UNL     1       7.191   5.174  14.487  0.00  0.00    +0.000 A 
ENDBRANCH   7  14
BRANCH   1  21
ATOM     20  C   UNL     1       0.959   3.977  20.621  0.00  0.00    +0.000 C 
ATOM     21  C   UNL     1       1.495   2.752  19.897  0.00  0.00    +0.000 C 
ENDBRANCH   1  21
TORSDOF 2
ENDMDL
MODEL 5
REMARK VINA RESULT:      -7.3      1.078      2.031
REMARK  Name = 
REMARK  3 active torsions:
REMARK  status: ('A' for Active; 'I' for Inactive)
REMARK    1  A    between atoms: C_1  and  C_2
REMARK    2  A    between atoms: C_2  and  N_3
REMARK    3  A    between atoms: C_9  and  C_10
REMARK                            x       y       z     vdW  Elec       q    Type
REMARK                         _______ _______ _______ _____ _____    ______ ____
ROOT
ATOM      1  N   UNL     1       3.120   3.977  19.737  0.00  0.00    +0.000 N 
ATOM      2  C   UNL     1       2.916   5.358  19.589  0.00  0.00    +0.000 A 
ATOM      3  O   UNL     1       2.320   6.054  20.412  0.00  0.00    +0.000 OA
ATOM      4  N   UNL     1       3.422   5.959  18.451  0.00  0.00    +0.000 N 
ATOM      5  C   UNL     1       4.067   5.189  17.531  0.00  0.00    +0.000 A 
ATOM      6  N   UNL     1       4.673   5.568  16.376  0.00  0.00    +0.000 N 
ATOM      7  C   UNL     1       5.200   4.425  15.797  0.00  0.00    +0.000 A 
ATOM      8  N   UNL     1       4.900   3.361  16.530  0.00  0.00    +0.000 NA
ATOM      9  C   UNL     1       4.219   3.836  17.621  0.00  0.00    +0.000 A 
ATOM     10  C   UNL     1       3.697   3.125  18.770  0.00  0.00    +0.000 A 
ATOM     11  O   UNL     1       3.758   1.903  18.884  0.00  0.00    +0.000 OA
ATOM     12  H   UNL     1       3.292   6.959  18.355  0.00  0.00    +0.000 HD
ATOM     13  H   UNL     1       4.738   6.498  15.993  0.00  0.00    +0.000 HD
ENDROOT
BRANCH   7  14
ATOM     14  C   UNL     1       5.952   4.414  14.540  0.00  0.00    +0.000 A 
ATOM     15  C   UNL     1       7.110   5.185  14.363  0.00  0.00    +0.000 A 
ATOM     16  C   UNL     1       7.807   5.150  13.152  0.00  0.00    +0.000 A 
ATOM     17  C   UNL     1       7.356   4.346  12.107  0.00  0.00    +0.000 A 
ATOM     18  C   UNL     1       6.214   3.565  12.274  0.00  0.00    +0.000 A 
ATOM     19  C   UNL     1       5.522   3.595  13.487  0.00  0.00    +0.000 A 
ENDBRANCH   7  14
BRANCH   1  21
ATOM     20  C   UNL     1       1.190   2.937  20.885  0.00  0.00    +0.000 C 
ATOM     21  C   UNL     1       2.653   3.348  20.965  0.00  0.00    +0.000 C 
ENDBRANCH   1  21
TORSDOF 2
ENDMDL
MODEL 6
REMARK VINA RESULT:      -7.2      1.068      2.305
REMARK  Name = 
REMARK  3 active torsions:
REMARK  status: ('A' for Active; 'I' for Inactive)
REMARK    1  A    between atoms: C_1  and  C_2
REMARK    2  A    between atoms: C_2  and  N_3
REMARK    3  A    between atoms: C_9  and  C_10
REMARK                            x       y       z     vdW  Elec       q    Type
REMARK                         _______ _______ _______ _____ _____    ______ ____
ROOT
ATOM      1  N   UNL     1       3.141   3.998  19.676  0.00  0.00    +0.000 N 
ATOM      2  C   UNL     1       2.965   5.384  19.527  0.00  0.00    +0.000 A 
ATOM      3  O   UNL     1       2.388   6.094  20.352  0.00  0.00    +0.000 OA
ATOM      4  N   UNL     1       3.479   5.972  18.386  0.00  0.00    +0.000 N 
ATOM      5  C   UNL     1       4.104   5.187  17.464  0.00  0.00    +0.000 A 
ATOM      6  N   UNL     1       4.713   5.551  16.306  0.00  0.00    +0.000 N 
ATOM      7  C   UNL     1       5.212   4.397  15.726  0.00  0.00    +0.000 A 
ATOM      8  N   UNL     1       4.893   3.340  16.462  0.00  0.00    +0.000 NA
ATOM      9  C   UNL     1       4.228   3.831  17.556  0.00  0.00    +0.000 A 
ATOM     10  C   UNL     1       3.696   3.133  18.708  0.00  0.00    +0.000 A 
ATOM     11  O   UNL     1       3.731   1.910  18.824  0.00  0.00    +0.000 OA
ATOM     12  H   UNL     1       3.370   6.974  18.289  0.00  0.00    +0.000 HD
ATOM     13  H   UNL     1       4.796   6.480  15.922  0.00  0.00    +0.000 HD
ENDROOT
BRANCH   7  14
ATOM     14  C   UNL     1       5.959   4.368  14.467  0.00  0.00    +0.000 A 
ATOM     15  C   UNL     1       5.553   3.578  13.381  0.00  0.00    +0.000 A 
ATOM     16  C   UNL     1       6.287   3.575  12.192  0.00  0.00    +0.000 A 
ATOM     17  C   UNL     1       7.433   4.360  12.074  0.00  0.00    +0.000 A 
ATOM     18  C   UNL     1       7.840   5.160  13.140  0.00  0.00    +0.000 A 
ATOM     19  C   UNL     1       7.102   5.168  14.326  0.00  0.00    +0.000 A 
ENDBRANCH   7  14
BRANCH   1  21
ATOM     20  C   UNL     1       1.200   2.982  20.827  0.00  0.00    +0.000 C 
ATOM     21  C   UNL     1       2.666   3.381  20.907  0.00  0.00    +0.000 C 
ENDBRANCH   1  21
TORSDOF 2
ENDMDL
MODEL 7
REMARK VINA RESULT:      -7.0      4.777      6.263
REMARK  Name = 
REMARK  3 active torsions:
REMARK  status: ('A' for Active; 'I' for Inactive)
REMARK    1  A    between atoms: C_1  and  C_2
REMARK    2  A    between atoms: C_2  and  N_3
REMARK    3  A    between atoms: C_9  and  C_10
REMARK                            x       y       z     vdW  Elec       q    Type
REMARK                         _______ _______ _______ _____ _____    ______ ____
ROOT
ATOM      1  N   UNL     1       1.218  10.043  19.702  0.00  0.00    +0.000 N 
ATOM      2  C   UNL     1       1.145   9.704  21.063  0.00  0.00    +0.000 A 
ATOM      3  O   UNL     1       0.818  10.494  21.949  0.00  0.00    +0.000 OA
ATOM      4  N   UNL     1       1.455   8.402  21.412  0.00  0.00    +0.000 N 
ATOM      5  C   UNL     1       1.832   7.530  20.436  0.00  0.00    +0.000 A 
ATOM      6  N   UNL     1       2.137   6.210  20.543  0.00  0.00    +0.000 N 
ATOM      7  C   UNL     1       2.443   5.758  19.270  0.00  0.00    +0.000 A 
ATOM      8  N   UNL     1       2.380   6.758  18.401  0.00  0.00    +0.000 NA
ATOM      9  C   UNL     1       1.975   7.854  19.119  0.00  0.00    +0.000 A 
ATOM     10  C   UNL     1       1.694   9.202  18.672  0.00  0.00    +0.000 A 
ATOM     11  O   UNL     1       1.852   9.569  17.509  0.00  0.00    +0.000 OA
ATOM     12  H   UNL     1       1.382   8.153  22.391  0.00  0.00    +0.000 HD
ATOM     13  H   UNL     1       2.146   5.648  21.380  0.00  0.00    +0.000 HD
ENDROOT
BRANCH   7  14
ATOM     14  C   UNL     1       2.808   4.374  18.957  0.00  0.00    +0.000 A 
ATOM     15  C   UNL     1       3.732   3.658  19.731  0.00  0.00    +0.000 A 
ATOM     16  C   UNL     1       4.056   2.337  19.406  0.00  0.00    +0.000 A 
ATOM     17  C   UNL     1       3.462   1.720  18.307  0.00  0.00    +0.000 A 
ATOM     18  C   UNL     1       2.532   2.416  17.538  0.00  0.00    +0.000 A 
ATOM     19  C   UNL     1       2.203   3.733  17.867  0.00  0.00    +0.000 A 
ENDBRANCH   7  14
BRANCH   1  21
ATOM     20  C   UNL     1      -0.648  11.484  18.949  0.00  0.00    +0.000 C 
ATOM     21  C   UNL     1       0.826  11.391  19.315  0.00  0.00    +0.000 C 
ENDBRANCH   1  21
TORSDOF 2
ENDMDL
MODEL 8
REMARK VINA RESULT:      -7.0      4.786      6.333
REMARK  Name = 
REMARK  3 active torsions:
REMARK  status: ('A' for Active; 'I' for Inactive)
REMARK    1  A    between atoms: C_1  and  C_2
REMARK    2  A    between atoms: C_2  and  N_3
REMARK    3  A    between atoms: C_9  and  C_10
REMARK                            x       y       z     vdW  Elec       q    Type
REMARK                         _______ _______ _______ _____ _____    ______ ____
ROOT
ATOM      1  N   UNL     1       1.234  10.043  19.724  0.00  0.00    +0.000 N 
ATOM      2  C   UNL     1       1.164   9.697  21.083  0.00  0.00    +0.000 A 
ATOM      3  O   UNL     1       0.849  10.486  21.976  0.00  0.00    +0.000 OA
ATOM      4  N   UNL     1       1.463   8.391  21.424  0.00  0.00    +0.000 N 
ATOM      5  C   UNL     1       1.827   7.521  20.442  0.00  0.00    +0.000 A 
ATOM      6  N   UNL     1       2.120   6.198  20.540  0.00  0.00    +0.000 N 
ATOM      7  C   UNL     1       2.415   5.749  19.263  0.00  0.00    +0.000 A 
ATOM      8  N   UNL     1       2.357   6.754  18.400  0.00  0.00    +0.000 NA
ATOM      9  C   UNL     1       1.966   7.850  19.125  0.00  0.00    +0.000 A 
ATOM     10  C   UNL     1       1.696   9.204  18.687  0.00  0.00    +0.000 A 
ATOM     11  O   UNL     1       1.852   9.575  17.526  0.00  0.00    +0.000 OA
ATOM     12  H   UNL     1       1.392   8.137  22.402  0.00  0.00    +0.000 HD
ATOM     13  H   UNL     1       2.127   5.631  21.374  0.00  0.00    +0.000 HD
ENDROOT
BRANCH   7  14
ATOM     14  C   UNL     1       2.764   4.364  18.941  0.00  0.00    +0.000 A 
ATOM     15  C   UNL     1       2.200   3.691  17.847  0.00  0.00    +0.000 A 
ATOM     16  C   UNL     1       2.556   2.370  17.566  0.00  0.00    +0.000 A 
ATOM     17  C   UNL     1       3.480   1.706  18.372  0.00  0.00    +0.000 A 
ATOM     18  C   UNL     1       4.058   2.367  19.453  0.00  0.00    +0.000 A 
ATOM     19  C   UNL     1       3.707   3.690  19.731  0.00  0.00    +0.000 A 
ENDBRANCH   7  14
BRANCH   1  21
ATOM     20  C   UNL     1      -0.622  11.506  18.989  0.00  0.00    +0.000 C 
ATOM     21  C   UNL     1       0.852  11.398  19.347  0.00  0.00    +0.000 C 
ENDBRANCH   1  21
TORSDOF 2
ENDMDL
MODEL 9
REMARK VINA RESULT:      -7.0      4.461      6.276
REMARK  Name = 
REMARK  3 active torsions:
REMARK  status: ('A' for Active; 'I' for Inactive)
REMARK    1  A    between atoms: C_1  and  C_2
REMARK    2  A    between atoms: C_2  and  N_3
REMARK    3  A    between atoms: C_9  and  C_10
REMARK                            x       y       z     vdW  Elec       q    Type
REMARK                         _______ _______ _______ _____ _____    ______ ____
ROOT
ATOM      1  N   UNL     1       0.275  10.371  20.938  0.00  0.00    +0.000 N 
ATOM      2  C   UNL     1       0.606   9.648  22.097  0.00  0.00    +0.000 A 
ATOM      3  O   UNL     1       0.280   9.991  23.234  0.00  0.00    +0.000 OA
ATOM      4  N   UNL     1       1.336   8.485  21.935  0.00  0.00    +0.000 N 
ATOM      5  C   UNL     1       1.713   8.112  20.680  0.00  0.00    +0.000 A 
ATOM      6  N   UNL     1       2.388   7.001  20.287  0.00  0.00    +0.000 N 
ATOM      7  C   UNL     1       2.515   7.067  18.909  0.00  0.00    +0.000 A 
ATOM      8  N   UNL     1       1.983   8.193  18.453  0.00  0.00    +0.000 NA
ATOM      9  C   UNL     1       1.461   8.832  19.549  0.00  0.00    +0.000 A 
ATOM     10  C   UNL     1       0.723  10.075  19.632  0.00  0.00    +0.000 A 
ATOM     11  O   UNL     1       0.509  10.792  18.657  0.00  0.00    +0.000 OA
ATOM     12  H   UNL     1       1.557   7.954  22.769  0.00  0.00    +0.000 HD
ATOM     13  H   UNL     1       2.741   6.259  20.871  0.00  0.00    +0.000 HD
ENDROOT
BRANCH   7  14
ATOM     14  C   UNL     1       3.170   6.040  18.096  0.00  0.00    +0.000 A 
ATOM     15  C   UNL     1       2.691   4.723  18.037  0.00  0.00    +0.000 A 
ATOM     16  C   UNL     1       3.339   3.767  17.249  0.00  0.00    +0.000 A 
ATOM     17  C   UNL     1       4.470   4.115  16.513  0.00  0.00    +0.000 A 
ATOM     18  C   UNL     1       4.949   5.423  16.553  0.00  0.00    +0.000 A 
ATOM     19  C   UNL     1       4.298   6.380  17.335  0.00  0.00    +0.000 A 
ENDBRANCH   7  14
BRANCH   1  21
ATOM     20  C   UNL     1       0.273  12.816  21.315  0.00  0.00    +0.000 C 
ATOM     21  C   UNL     1      -0.553  11.559  21.092  0.00  0.00    +0.000 C 
ENDBRANCH   1  21
TORSDOF 2
ENDMDL
