MODEL 1
REMARK VINA RESULT:      -7.4      0.000      0.000
REMARK  Name = 
REMARK  2 active torsions:
REMARK  status: ('A' for Active; 'I' for Inactive)
REMARK    1  A    between atoms: C_2  and  C_11
REMARK    2  A    between atoms: N_3  and  C_4
REMARK                            x       y       z     vdW  Elec       q    Type
REMARK                         _______ _______ _______ _____ _____    ______ ____
ROOT
ATOM      1  O   UNL     1       5.702   5.010  18.953  0.00  0.00    +0.000 OA
ATOM      2  C   UNL     1       5.118   4.504  18.003  0.00  0.00    +0.000 C 
ATOM      3  N   UNL     1       3.952   3.758  18.043  0.00  0.00    +0.000 N 
ATOM      4  H   UNL     1       3.706   3.243  17.208  0.00  0.00    +0.000 HD
ENDROOT
BRANCH   3   5
ATOM      5  C   UNL     1       3.192   3.469  19.195  0.00  0.00    +0.000 A 
ATOM      6  C   UNL     1       3.662   2.678  20.248  0.00  0.00    +0.000 A 
ATOM      7  C   UNL     1       2.839   2.386  21.337  0.00  0.00    +0.000 A 
ATOM      8  C   UNL     1       1.546   2.888  21.373  0.00  0.00    +0.000 A 
ATOM      9  F   UNL     1       0.746   2.587  22.404  0.00  0.00    +0.000 F 
ATOM     10  C   UNL     1       1.069   3.700  20.351  0.00  0.00    +0.000 A 
ATOM     11  C   UNL     1       1.897   4.001  19.267  0.00  0.00    +0.000 A 
ENDBRANCH   3   5
BRANCH   2  12
ATOM     12  C   UNL     1       5.741   4.617  16.668  0.00  0.00    +0.000 A 
ATOM     13  C   UNL     1       5.180   4.049  15.520  0.00  0.00    +0.000 A 
ATOM     14  C   UNL     1       5.838   4.202  14.301  0.00  0.00    +0.000 A 
ATOM     15  C   UNL     1       7.027   4.916  14.276  0.00  0.00    +0.000 A 
ATOM     16  N   UNL     1       7.585   5.485  15.366  0.00  0.00    +0.000 NA
ATOM     17  C   UNL     1       6.923   5.334  16.539  0.00  0.00    +0.000 A 
ENDBRANCH   2  12
TORSDOF 2
ENDMDL
MODEL 2
REMARK VINA RESULT:      -7.4      0.408      1.257
REMARK  Name = 
REMARK  2 active torsions:
REMARK  status: ('A' for Active; 'I' for Inactive)
REMARK    1  A    between atoms: C_2  and  C_11
REMARK    2  A    between atoms: N_3  and  C_4
REMARK                            x       y       z     vdW  Elec       q    Type
REMARK                         _______ _______ _______ _____ _____    ______ ____
ROOT
ATOM      1  O   UNL     1       4.841   5.643  18.581  0.00  0.00    +0.000 OA
ATOM      2  C   UNL     1       4.702   4.738  17.768  0.00  0.00    +0.000 C 
ATOM      3  N   UNL     1       3.894   3.620  17.897  0.00  0.00    +0.000 N 
ATOM      4  H   UNL     1       4.039   2.869  17.235  0.00  0.00    +0.000 HD
ENDROOT
BRANCH   3   5
ATOM      5  C   UNL     1       3.047   3.330  18.985  0.00  0.00    +0.000 A 
ATOM      6  C   UNL     1       1.670   3.574  18.974  0.00  0.00    +0.000 A 
ATOM      7  C   UNL     1       0.895   3.313  20.106  0.00  0.00    +0.000 A 
ATOM      8  C   UNL     1       1.499   2.805  21.247  0.00  0.00    +0.000 A 
ATOM      9  F   UNL     1       0.761   2.579  22.342  0.00  0.00    +0.000 F 
ATOM     10  C   UNL     1       2.859   2.527  21.269  0.00  0.00    +0.000 A 
ATOM     11  C   UNL     1       3.632   2.778  20.133  0.00  0.00    +0.000 A 
ENDBRANCH   3   5
BRANCH   2  12
ATOM     12  C   UNL     1       5.528   4.774  16.543  0.00  0.00    +0.000 A 
ATOM     13  C   UNL     1       5.198   4.062  15.386  0.00  0.00    +0.000 A 
ATOM     14  C   UNL     1       6.037   4.151  14.277  0.00  0.00    +0.000 A 
ATOM     15  C   UNL     1       7.170   4.947  14.367  0.00  0.00    +0.000 A 
ATOM     16  N   UNL     1       7.506   5.654  15.467  0.00  0.00    +0.000 NA
ATOM     17  C   UNL     1       6.670   5.563  16.529  0.00  0.00    +0.000 A 
ENDBRANCH   2  12
TORSDOF 2
ENDMDL
MODEL 3
REMARK VINA RESULT:      -7.3      0.778      1.014
REMARK  Name = 
REMARK  2 active torsions:
REMARK  status: ('A' for Active; 'I' for Inactive)
REMARK    1  A    between atoms: C_2  and  C_11
REMARK    2  A    between atoms: N_3  and  C_4
REMARK                            x       y       z     vdW  Elec       q    Type
REMARK                         _______ _______ _______ _____ _____    ______ ____
ROOT
ATOM      1  O   UNL     1       6.052   4.102  18.853  0.00  0.00    +0.000 OA
ATOM      2  C   UNL     1       5.307   4.197  17.886  0.00  0.00    +0.000 C 
ATOM      3  N   UNL     1       3.930   4.040  17.877  0.00  0.00    +0.000 N 
ATOM      4  H   UNL     1       3.483   3.950  16.974  0.00  0.00    +0.000 HD
ENDROOT
BRANCH   3   5
ATOM      5  C   UNL     1       3.119   3.771  18.998  0.00  0.00    +0.000 A 
ATOM      6  C   UNL     1       2.902   4.692  20.029  0.00  0.00    +0.000 A 
ATOM      7  C   UNL     1       2.130   4.344  21.138  0.00  0.00    +0.000 A 
ATOM      8  C   UNL     1       1.572   3.075  21.215  0.00  0.00    +0.000 A 
ATOM      9  F   UNL     1       0.853   2.732  22.291  0.00  0.00    +0.000 F 
ATOM     10  C   UNL     1       1.751   2.156  20.189  0.00  0.00    +0.000 A 
ATOM     11  C   UNL     1       2.515   2.509  19.074  0.00  0.00    +0.000 A 
ENDBRANCH   3   5
BRANCH   2  12
ATOM     12  C   UNL     1       5.918   4.427  16.561  0.00  0.00    +0.000 A 
ATOM     13  C   UNL     1       5.474   3.784  15.401  0.00  0.00    +0.000 A 
ATOM     14  C   UNL     1       6.111   4.057  14.192  0.00  0.00    +0.000 A 
ATOM     15  C   UNL     1       7.163   4.962  14.189  0.00  0.00    +0.000 A 
ATOM     16  N   UNL     1       7.604   5.607  15.291  0.00  0.00    +0.000 NA
ATOM     17  C   UNL     1       6.962   5.334  16.453  0.00  0.00    +0.000 A 
ENDBRANCH   2  12
TORSDOF 2
ENDMDL
MODEL 4
REMARK VINA RESULT:      -6.8      1.399      1.584
REMARK  Name = 
REMARK  2 active torsions:
REMARK  status: ('A' for Active; 'I' for Inactive)
REMARK    1  A    between atoms: C_2  and  C_11
REMARK    2  A    between atoms: N_3  and  C_4
REMARK                            x       y       z     vdW  Elec       q    Type
REMARK                         _______ _______ _______ _____ _____    ______ ____
ROOT
ATOM      1  O   UNL     1       6.055   4.150  17.706  0.00  0.00    +0.000 OA
ATOM      2  C   UNL     1       5.375   4.129  16.687  0.00  0.00    +0.000 C 
ATOM      3  N   UNL     1       4.019   3.861  16.597  0.00  0.00    +0.000 N 
ATOM      4  H   UNL     1       3.645   3.684  15.674  0.00  0.00    +0.000 HD
ENDROOT
BRANCH   3   5
ATOM      5  C   UNL     1       3.153   3.595  17.676  0.00  0.00    +0.000 A 
ATOM      6  C   UNL     1       2.794   2.304  18.075  0.00  0.00    +0.000 A 
ATOM      7  C   UNL     1       1.889   2.110  19.120  0.00  0.00    +0.000 A 
ATOM      8  C   UNL     1       1.345   3.210  19.768  0.00  0.00    +0.000 A 
ATOM      9  F   UNL     1       0.456   3.026  20.753  0.00  0.00    +0.000 F 
ATOM     10  C   UNL     1       1.710   4.501  19.407  0.00  0.00    +0.000 A 
ATOM     11  C   UNL     1       2.624   4.694  18.369  0.00  0.00    +0.000 A 
ENDBRANCH   3   5
BRANCH   2  12
ATOM     12  C   UNL     1       6.060   4.328  15.393  0.00  0.00    +0.000 A 
ATOM     13  C   UNL     1       5.683   3.657  14.226  0.00  0.00    +0.000 A 
ATOM     14  C   UNL     1       6.387   3.904  13.049  0.00  0.00    +0.000 A 
ATOM     15  C   UNL     1       7.437   4.810  13.084  0.00  0.00    +0.000 A 
ATOM     16  N   UNL     1       7.814   5.481  14.193  0.00  0.00    +0.000 NA
ATOM     17  C   UNL     1       7.108   5.235  15.323  0.00  0.00    +0.000 A 
ENDBRANCH   2  12
TORSDOF 2
ENDMDL
MODEL 5
REMARK VINA RESULT:      -6.7      3.269      6.737
REMARK  Name = 
REMARK  2 active torsions:
REMARK  status: ('A' for Active; 'I' for Inactive)
REMARK    1  A    between atoms: C_2  and  C_11
REMARK    2  A    between atoms: N_3  and  C_4
REMARK                            x       y       z     vdW  Elec       q    Type
REMARK                         _______ _______ _______ _____ _____    ______ ____
ROOT
ATOM      1  O   UNL     1       3.863   1.863  17.653  0.00  0.00    +0.000 OA
ATOM      2  C   UNL     1       3.697   2.917  18.254  0.00  0.00    +0.000 C 
ATOM      3  N   UNL     1       4.278   4.141  17.965  0.00  0.00    +0.000 N 
ATOM      4  H   UNL     1       4.201   4.865  18.667  0.00  0.00    +0.000 HD
ENDROOT
BRANCH   3   5
ATOM      5  C   UNL     1       5.150   4.412  16.891  0.00  0.00    +0.000 A 
ATOM      6  C   UNL     1       4.744   4.420  15.553  0.00  0.00    +0.000 A 
ATOM      7  C   UNL     1       5.670   4.644  14.532  0.00  0.00    +0.000 A 
ATOM      8  C   UNL     1       7.002   4.863  14.852  0.00  0.00    +0.000 A 
ATOM      9  F   UNL     1       7.896   5.051  13.873  0.00  0.00    +0.000 F 
ATOM     10  C   UNL     1       7.421   4.889  16.176  0.00  0.00    +0.000 A 
ATOM     11  C   UNL     1       6.492   4.676  17.197  0.00  0.00    +0.000 A 
ENDBRANCH   3   5
BRANCH   2  12
ATOM     12  C   UNL     1       2.856   2.897  19.469  0.00  0.00    +0.000 A 
ATOM     13  C   UNL     1       1.491   3.197  19.449  0.00  0.00    +0.000 A 
ATOM     14  C   UNL     1       0.774   3.157  20.643  0.00  0.00    +0.000 A 
ATOM     15  C   UNL     1       1.447   2.816  21.807  0.00  0.00    +0.000 A 
ATOM     16  N   UNL     1       2.761   2.509  21.853  0.00  0.00    +0.000 NA
ATOM     17  C   UNL     1       3.436   2.543  20.679  0.00  0.00    +0.000 A 
ENDBRANCH   2  12
TORSDOF 2
ENDMDL
MODEL 6
REMARK VINA RESULT:      -6.7      3.248      6.644
REMARK  Name = 
REMARK  2 active torsions:
REMARK  status: ('A' for Active; 'I' for Inactive)
REMARK    1  A    between atoms: C_2  and  C_11
REMARK    2  A    between atoms: N_3  and  C_4
REMARK                            x       y       z     vdW  Elec       q    Type
REMARK                         _______ _______ _______ _____ _____    ______ ____
ROOT
ATOM      1  O   UNL     1       3.079   5.433  17.696  0.00  0.00    +0.000 OA
ATOM      2  C   UNL     1       3.595   4.447  18.209  0.00  0.00    +0.000 C 
ATOM      3  N   UNL     1       4.733   3.785  17.780  0.00  0.00    +0.000 N 
ATOM      4  H   UNL     1       4.918   2.877  18.186  0.00  0.00    +0.000 HD
ENDROOT
BRANCH   3   5
ATOM      5  C   UNL     1       5.539   4.147  16.682  0.00  0.00    +0.000 A 
ATOM      6  C   UNL     1       6.764   4.810  16.811  0.00  0.00    +0.000 A 
ATOM      7  C   UNL     1       7.488   5.187  15.679  0.00  0.00    +0.000 A 
ATOM      8  C   UNL     1       6.987   4.899  14.418  0.00  0.00    +0.000 A 
ATOM      9  F   UNL     1       7.669   5.284  13.330  0.00  0.00    +0.000 F 
ATOM     10  C   UNL     1       5.788   4.216  14.267  0.00  0.00    +0.000 A 
ATOM     11  C   UNL     1       5.068   3.828  15.400  0.00  0.00    +0.000 A 
ENDBRANCH   3   5
BRANCH   2  12
ATOM     12  C   UNL     1       2.910   3.829  19.363  0.00  0.00    +0.000 A 
ATOM     13  C   UNL     1       1.530   3.929  19.567  0.00  0.00    +0.000 A 
ATOM     14  C   UNL     1       0.968   3.317  20.685  0.00  0.00    +0.000 A 
ATOM     15  C   UNL     1       1.803   2.629  21.553  0.00  0.00    +0.000 A 
ATOM     16  N   UNL     1       3.136   2.506  21.374  0.00  0.00    +0.000 NA
ATOM     17  C   UNL     1       3.660   3.099  20.274  0.00  0.00    +0.000 A 
ENDBRANCH   2  12
TORSDOF 2
ENDMDL
MODEL 7
REMARK VINA RESULT:      -6.6      3.180      6.636
REMARK  Name = 
REMARK  2 active torsions:
REMARK  status: ('A' for Active; 'I' for Inactive)
REMARK    1  A    between atoms: C_2  and  C_11
REMARK    2  A    between atoms: N_3  and  C_4
REMARK                            x       y       z     vdW  Elec       q    Type
REMARK                         _______ _______ _______ _____ _____    ______ ____
ROOT
ATOM      1  O   UNL     1       5.582   3.560  19.367  0.00  0.00    +0.000 OA
ATOM      2  C   UNL     1       4.458   3.665  18.890  0.00  0.00    +0.000 C 
ATOM      3  N   UNL     1       4.135   4.044  17.598  0.00  0.00    +0.000 N 
ATOM      4  H   UNL     1       3.167   4.276  17.415  0.00  0.00    +0.000 HD
ENDROOT
BRANCH   3   5
ATOM      5  C   UNL     1       5.049   4.350  16.570  0.00  0.00    +0.000 A 
ATOM      6  C   UNL     1       5.377   3.461  15.541  0.00  0.00    +0.000 A 
ATOM      7  C   UNL     1       6.331   3.807  14.583  0.00  0.00    +0.000 A 
ATOM      8  C   UNL     1       6.955   5.044  14.653  0.00  0.00    +0.000 A 
ATOM      9  F   UNL     1       7.890   5.367  13.749  0.00  0.00    +0.000 F 
ATOM     10  C   UNL     1       6.623   5.954  15.649  0.00  0.00    +0.000 A 
ATOM     11  C   UNL     1       5.660   5.612  16.601  0.00  0.00    +0.000 A 
ENDBRANCH   3   5
BRANCH   2  12
ATOM     12  C   UNL     1       3.303   3.445  19.785  0.00  0.00    +0.000 A 
ATOM     13  C   UNL     1       2.025   3.939  19.506  0.00  0.00    +0.000 A 
ATOM     14  C   UNL     1       0.993   3.687  20.408  0.00  0.00    +0.000 A 
ATOM     15  C   UNL     1       1.277   2.952  21.549  0.00  0.00    +0.000 A 
ATOM     16  N   UNL     1       2.498   2.452  21.837  0.00  0.00    +0.000 NA
ATOM     17  C   UNL     1       3.483   2.698  20.941  0.00  0.00    +0.000 A 
ENDBRANCH   2  12
TORSDOF 2
ENDMDL
MODEL 8
REMARK VINA RESULT:      -6.6      3.244      6.704
REMARK  Name = 
REMARK  2 active torsions:
REMARK  status: ('A' for Active; 'I' for Inactive)
REMARK    1  A    between atoms: C_2  and  C_11
REMARK    2  A    between atoms: N_3  and  C_4
REMARK                            x       y       z     vdW  Elec       q    Type
REMARK                         _______ _______ _______ _____ _____    ______ ____
ROOT
ATOM      1  O   UNL     1       3.111   5.501  17.903  0.00  0.00    +0.000 OA
ATOM      2  C   UNL     1       3.589   4.451  18.313  0.00  0.00    +0.000 C 
ATOM      3  N   UNL     1       4.650   3.749  17.764  0.00  0.00    +0.000 N 
ATOM      4  H   UNL     1       4.797   2.804  18.094  0.00  0.00    +0.000 HD
ENDROOT
BRANCH   3   5
ATOM      5  C   UNL     1       5.408   4.137  16.641  0.00  0.00    +0.000 A 
ATOM      6  C   UNL     1       5.016   3.881  15.323  0.00  0.00    +0.000 A 
ATOM      7  C   UNL     1       5.840   4.244  14.256  0.00  0.00    +0.000 A 
ATOM      8  C   UNL     1       7.054   4.867  14.508  0.00  0.00    +0.000 A 
ATOM      9  F   UNL     1       7.856   5.192  13.486  0.00  0.00    +0.000 F 
ATOM     10  C   UNL     1       7.448   5.157  15.808  0.00  0.00    +0.000 A 
ATOM     11  C   UNL     1       6.619   4.803  16.875  0.00  0.00    +0.000 A 
ENDBRANCH   3   5
BRANCH   2  12
ATOM     12  C   UNL     1       2.937   3.796  19.466  0.00  0.00    +0.000 A 
ATOM     13  C   UNL     1       1.571   3.923  19.735  0.00  0.00    +0.000 A 
ATOM     14  C   UNL     1       1.040   3.273  20.848  0.00  0.00    +0.000 A 
ATOM     15  C   UNL     1       1.892   2.523  21.645  0.00  0.00    +0.000 A 
ATOM     16  N   UNL     1       3.212   2.373  21.401  0.00  0.00    +0.000 NA
ATOM     17  C   UNL     1       3.704   3.003  20.308  0.00  0.00    +0.000 A 
ENDBRANCH   2  12
TORSDOF 2
ENDMDL
MODEL 9
REMARK VINA RESULT:      -6.5      0.774      1.216
REMARK  Name = 
REMARK  2 active torsions:
REMARK  status: ('A' for Active; 'I' for Inactive)
REMARK    1  A    between atoms: C_2  and  C_11
REMARK    2  A    between atoms: N_3  and  C_4
REMARK                            x       y       z     vdW  Elec       q    Type
REMARK                         _______ _______ _______ _____ _____    ______ ____
ROOT
ATOM      1  O   UNL     1       5.787   4.648  19.189  0.00  0.00    +0.000 OA
ATOM      2  C   UNL     1       5.133   4.299  18.215  0.00  0.00    +0.000 C 
ATOM      3  N   UNL     1       3.889   3.689  18.222  0.00  0.00    +0.000 N 
ATOM      4  H   UNL     1       3.571   3.282  17.352  0.00  0.00    +0.000 HD
ENDROOT
BRANCH   3   5
ATOM      5  C   UNL     1       3.121   3.385  19.364  0.00  0.00    +0.000 A 
ATOM      6  C   UNL     1       3.600   2.619  20.432  0.00  0.00    +0.000 A 
ATOM      7  C   UNL     1       2.770   2.309  21.511  0.00  0.00    +0.000 A 
ATOM      8  C   UNL     1       1.461   2.769  21.522  0.00  0.00    +0.000 A 
ATOM      9  F   UNL     1       0.656   2.451  22.544  0.00  0.00    +0.000 F 
ATOM     10  C   UNL     1       0.974   3.556  20.486  0.00  0.00    +0.000 A 
ATOM     11  C   UNL     1       1.809   3.875  19.412  0.00  0.00    +0.000 A 
ENDBRANCH   3   5
BRANCH   2  12
ATOM     12  C   UNL     1       5.741   4.460  16.878  0.00  0.00    +0.000 A 
ATOM     13  C   UNL     1       7.077   4.829  16.694  0.00  0.00    +0.000 A 
ATOM     14  C   UNL     1       7.567   4.962  15.396  0.00  0.00    +0.000 A 
ATOM     15  C   UNL     1       6.707   4.720  14.336  0.00  0.00    +0.000 A 
ATOM     16  N   UNL     1       5.416   4.351  14.484  0.00  0.00    +0.000 NA
ATOM     17  C   UNL     1       4.964   4.216  15.754  0.00  0.00    +0.000 A 
ENDBRANCH   2  12
TORSDOF 2
ENDMDL
