MODEL 1
REMARK VINA RESULT:      -8.1      0.000      0.000
REMARK  Name = 
REMARK  9 active torsions:
REMARK  status: ('A' for Active; 'I' for Inactive)
REMARK    1  A    between atoms: C_1  and  N_2
REMARK    2  A    between atoms: C_3  and  N_4
REMARK    3  A    between atoms: C_5  and  C_6
REMARK    4  A    between atoms: C_6  and  C_8
REMARK    5  A    between atoms: C_8  and  O_9
REMARK    6  A    between atoms: O_9  and  C_10
REMARK    7  A    between atoms: C_10  and  C_12
REMARK    8  A    between atoms: C_17  and  C_18
REMARK    9  A    between atoms: N_29  and  C_30
REMARK                            x       y       z     vdW  Elec       q    Type
REMARK                         _______ _______ _______ _____ _____    ______ ____
ROOT
ATOM      1  O   UNL     1       2.677   7.212  19.498  0.00  0.00    +0.000 OA
ENDROOT
BRANCH   1   2
ATOM      2  C   UNL     1       2.244   6.099  18.857  0.00  0.00    +0.000 C 
ATOM      3  O   UNL     1       1.487   6.060  17.902  0.00  0.00    +0.000 OA
BRANCH   2   4
ATOM      4  C   UNL     1       2.651   4.910  19.648  0.00  0.00    +0.000 A 
ATOM      5  C   UNL     1       1.893   4.625  20.798  0.00  0.00    +0.000 A 
ATOM      6  C   UNL     1       2.115   3.452  21.511  0.00  0.00    +0.000 A 
ATOM      7  C   UNL     1       3.086   2.557  21.073  0.00  0.00    +0.000 A 
ATOM      8  C   UNL     1       3.850   2.839  19.933  0.00  0.00    +0.000 A 
ATOM      9  C   UNL     1       3.651   4.025  19.200  0.00  0.00    +0.000 A 
BRANCH   9  10
ATOM     10  C   UNL     1       4.474   4.375  18.031  0.00  0.00    +0.000 A 
ATOM     11  N   UNL     1       4.094   4.114  16.799  0.00  0.00    +0.000 NA
ATOM     12  C   UNL     1       5.147   4.274  15.929  0.00  0.00    +0.000 A 
ATOM     13  C   UNL     1       5.150   3.883  14.578  0.00  0.00    +0.000 A 
ATOM     14  C   UNL     1       6.289   4.099  13.801  0.00  0.00    +0.000 A 
ATOM     15  C   UNL     1       7.405   4.727  14.348  0.00  0.00    +0.000 A 
ATOM     16  C   UNL     1       7.424   5.124  15.692  0.00  0.00    +0.000 A 
ATOM     17  C   UNL     1       6.289   4.859  16.475  0.00  0.00    +0.000 A 
ATOM     18  S   UNL     1       6.023   5.112  18.162  0.00  0.00    +0.000 S 
ENDBRANCH   9  10
ENDBRANCH   2   4
ENDBRANCH   1   2
BRANCH   1  19
ATOM     19  C   UNL     1       1.616   8.051  19.941  0.00  0.00    +0.000 C 
BRANCH  19  20
ATOM     20  C   UNL     1       1.335   9.304  19.105  0.00  0.00    +0.000 C 
ATOM     21  O   UNL     1       2.061   9.607  18.152  0.00  0.00    +0.000 OA
BRANCH  20  25
ATOM     22  C   UNL     1      -2.908  11.784  18.187  0.00  0.00    +0.000 C 
ATOM     23  N   UNL     1      -1.806  11.408  19.064  0.00  0.00    +0.000 N 
ATOM     24  C   UNL     1      -0.830  10.490  18.679  0.00  0.00    +0.000 A 
ATOM     25  C   UNL     1       0.194  10.215  19.527  0.00  0.00    +0.000 A 
ATOM     26  C   UNL     1       0.207  10.867  20.864  0.00  0.00    +0.000 A 
ATOM     27  O   UNL     1       1.147  10.694  21.641  0.00  0.00    +0.000 OA
ATOM     28  N   UNL     1      -0.844  11.681  21.192  0.00  0.00    +0.000 N 
ATOM     29  C   UNL     1      -0.871  12.308  22.504  0.00  0.00    +0.000 C 
ATOM     30  C   UNL     1      -1.840  12.033  20.308  0.00  0.00    +0.000 A 
ATOM     31  O   UNL     1      -2.702  12.861  20.607  0.00  0.00    +0.000 OA
BRANCH  24  32
ATOM     32  N   UNL     1      -0.938   9.880  17.433  0.00  0.00    +0.000 N 
ATOM     33  H   UNL     1      -0.907  10.536  16.660  0.00  0.00    +0.000 HD
ATOM     34  H   UNL     1      -0.226   9.148  17.291  0.00  0.00    +0.000 HD
ENDBRANCH  24  32
ENDBRANCH  20  25
ENDBRANCH  19  20
ENDBRANCH   1  19
TORSDOF 7
ENDMDL
MODEL 2
REMARK VINA RESULT:      -8.1      1.753      4.779
REMARK  Name = 
REMARK  9 active torsions:
REMARK  status: ('A' for Active; 'I' for Inactive)
REMARK    1  A    between atoms: C_1  and  N_2
REMARK    2  A    between atoms: C_3  and  N_4
REMARK    3  A    between atoms: C_5  and  C_6
REMARK    4  A    between atoms: C_6  and  C_8
REMARK    5  A    between atoms: C_8  and  O_9
REMARK    6  A    between atoms: O_9  and  C_10
REMARK    7  A    between atoms: C_10  and  C_12
REMARK    8  A    between atoms: C_17  and  C_18
REMARK    9  A    between atoms: N_29  and  C_30
REMARK                            x       y       z     vdW  Elec       q    Type
REMARK                         _______ _______ _______ _____ _____    ______ ____
ROOT
ATOM      1  O   UNL     1       3.435   6.723  17.327  0.00  0.00    +0.000 OA
ENDROOT
BRANCH   1   2
ATOM      2  C   UNL     1       4.786   6.606  17.330  0.00  0.00    +0.000 C 
ATOM      3  O   UNL     1       5.575   7.318  17.928  0.00  0.00    +0.000 OA
BRANCH   2   4
ATOM      4  C   UNL     1       5.176   5.613  16.297  0.00  0.00    +0.000 A 
ATOM      5  C   UNL     1       5.879   6.102  15.182  0.00  0.00    +0.000 A 
ATOM      6  C   UNL     1       6.406   5.221  14.244  0.00  0.00    +0.000 A 
ATOM      7  C   UNL     1       6.242   3.851  14.421  0.00  0.00    +0.000 A 
ATOM      8  C   UNL     1       5.535   3.358  15.526  0.00  0.00    +0.000 A 
ATOM      9  C   UNL     1       4.983   4.230  16.484  0.00  0.00    +0.000 A 
BRANCH   9  10
ATOM     10  C   UNL     1       4.189   3.746  17.624  0.00  0.00    +0.000 A 
ATOM     11  N   UNL     1       2.917   3.429  17.514  0.00  0.00    +0.000 NA
ATOM     12  C   UNL     1       2.348   3.287  18.757  0.00  0.00    +0.000 A 
ATOM     13  C   UNL     1       0.971   3.156  19.010  0.00  0.00    +0.000 A 
ATOM     14  C   UNL     1       0.521   3.022  20.325  0.00  0.00    +0.000 A 
ATOM     15  C   UNL     1       1.430   2.984  21.378  0.00  0.00    +0.000 A 
ATOM     16  C   UNL     1       2.806   3.114  21.150  0.00  0.00    +0.000 A 
ATOM     17  C   UNL     1       3.243   3.295  19.827  0.00  0.00    +0.000 A 
ATOM     18  S   UNL     1       4.829   3.590  19.214  0.00  0.00    +0.000 S 
ENDBRANCH   9  10
ENDBRANCH   2   4
ENDBRANCH   1   2
BRANCH   1  19
ATOM     19  C   UNL     1       2.975   7.901  17.980  0.00  0.00    +0.000 C 
BRANCH  19  20
ATOM     20  C   UNL     1       2.150   7.702  19.256  0.00  0.00    +0.000 C 
ATOM     21  O   UNL     1       2.178   6.630  19.870  0.00  0.00    +0.000 OA
BRANCH  20  25
ATOM     22  C   UNL     1      -0.208  10.336  22.792  0.00  0.00    +0.000 C 
ATOM     23  N   UNL     1       0.095  10.047  21.395  0.00  0.00    +0.000 N 
ATOM     24  C   UNL     1       1.023   9.076  21.022  0.00  0.00    +0.000 A 
ATOM     25  C   UNL     1       1.227   8.824  19.704  0.00  0.00    +0.000 A 
ATOM     26  C   UNL     1       0.489   9.636  18.700  0.00  0.00    +0.000 A 
ATOM     27  O   UNL     1       0.597   9.402  17.496  0.00  0.00    +0.000 OA
ATOM     28  N   UNL     1      -0.332  10.633  19.159  0.00  0.00    +0.000 N 
ATOM     29  C   UNL     1      -1.044  11.460  18.198  0.00  0.00    +0.000 C 
ATOM     30  C   UNL     1      -0.611  10.837  20.491  0.00  0.00    +0.000 A 
ATOM     31  O   UNL     1      -1.446  11.668  20.854  0.00  0.00    +0.000 OA
BRANCH  24  32
ATOM     32  N   UNL     1       1.716   8.394  22.018  0.00  0.00    +0.000 N 
ATOM     33  H   UNL     1       2.708   8.300  21.825  0.00  0.00    +0.000 HD
ATOM     34  H   UNL     1       1.585   8.817  22.949  0.00  0.00    +0.000 HD
ENDBRANCH  24  32
ENDBRANCH  20  25
ENDBRANCH  19  20
ENDBRANCH   1  19
TORSDOF 7
ENDMDL
MODEL 3
REMARK VINA RESULT:      -8.1      2.293      2.760
REMARK  Name = 
REMARK  9 active torsions:
REMARK  status: ('A' for Active; 'I' for Inactive)
REMARK    1  A    between atoms: C_1  and  N_2
REMARK    2  A    between atoms: C_3  and  N_4
REMARK    3  A    between atoms: C_5  and  C_6
REMARK    4  A    between atoms: C_6  and  C_8
REMARK    5  A    between atoms: C_8  and  O_9
REMARK    6  A    between atoms: O_9  and  C_10
REMARK    7  A    between atoms: C_10  and  C_12
REMARK    8  A    between atoms: C_17  and  C_18
REMARK    9  A    between atoms: N_29  and  C_30
REMARK                            x       y       z     vdW  Elec       q    Type
REMARK                         _______ _______ _______ _____ _____    ______ ____
ROOT
ATOM      1  O   UNL     1       1.711   6.490  19.165  0.00  0.00    +0.000 OA
ENDROOT
BRANCH   1   2
ATOM      2  C   UNL     1       2.166   5.612  20.093  0.00  0.00    +0.000 C 
ATOM      3  O   UNL     1       2.759   5.886  21.123  0.00  0.00    +0.000 OA
BRANCH   2   4
ATOM      4  C   UNL     1       2.039   4.238  19.545  0.00  0.00    +0.000 A 
ATOM      5  C   UNL     1       0.871   3.528  19.879  0.00  0.00    +0.000 A 
ATOM      6  C   UNL     1       0.607   2.296  19.291  0.00  0.00    +0.000 A 
ATOM      7  C   UNL     1       1.501   1.774  18.361  0.00  0.00    +0.000 A 
ATOM      8  C   UNL     1       2.669   2.473  18.030  0.00  0.00    +0.000 A 
ATOM      9  C   UNL     1       2.964   3.717  18.619  0.00  0.00    +0.000 A 
BRANCH   9  10
ATOM     10  C   UNL     1       4.209   4.448  18.333  0.00  0.00    +0.000 A 
ATOM     11  N   UNL     1       5.291   4.313  19.070  0.00  0.00    +0.000 NA
ATOM     12  C   UNL     1       6.200   5.300  18.772  0.00  0.00    +0.000 A 
ATOM     13  C   UNL     1       7.367   5.579  19.507  0.00  0.00    +0.000 A 
ATOM     14  C   UNL     1       8.208   6.615  19.099  0.00  0.00    +0.000 A 
ATOM     15  C   UNL     1       7.913   7.350  17.954  0.00  0.00    +0.000 A 
ATOM     16  C   UNL     1       6.756   7.091  17.207  0.00  0.00    +0.000 A 
ATOM     17  C   UNL     1       5.894   6.077  17.655  0.00  0.00    +0.000 A 
ATOM     18  S   UNL     1       4.358   5.578  17.045  0.00  0.00    +0.000 S 
ENDBRANCH   9  10
ENDBRANCH   2   4
ENDBRANCH   1   2
BRANCH   1  19
ATOM     19  C   UNL     1       2.228   7.804  19.337  0.00  0.00    +0.000 C 
BRANCH  19  20
ATOM     20  C   UNL     1       1.397   8.952  18.755  0.00  0.00    +0.000 C 
ATOM     21  O   UNL     1       1.188   9.032  17.539  0.00  0.00    +0.000 OA
BRANCH  20  25
ATOM     22  C   UNL     1       0.952  13.744  20.113  0.00  0.00    +0.000 C 
ATOM     23  N   UNL     1       0.729  12.321  20.338  0.00  0.00    +0.000 N 
ATOM     24  C   UNL     1       1.103  11.353  19.406  0.00  0.00    +0.000 A 
ATOM     25  C   UNL     1       0.908  10.042  19.695  0.00  0.00    +0.000 A 
ATOM     26  C   UNL     1       0.249   9.686  20.980  0.00  0.00    +0.000 A 
ATOM     27  O   UNL     1       0.106   8.508  21.311  0.00  0.00    +0.000 OA
ATOM     28  N   UNL     1      -0.170  10.707  21.792  0.00  0.00    +0.000 N 
ATOM     29  C   UNL     1      -0.843  10.387  23.040  0.00  0.00    +0.000 C 
ATOM     30  C   UNL     1       0.101  12.034  21.547  0.00  0.00    +0.000 A 
ATOM     31  O   UNL     1      -0.191  12.911  22.363  0.00  0.00    +0.000 OA
BRANCH  24  32
ATOM     32  N   UNL     1       1.665  11.766  18.201  0.00  0.00    +0.000 N 
ATOM     33  H   UNL     1       2.588  12.172  18.307  0.00  0.00    +0.000 HD
ATOM     34  H   UNL     1       1.702  11.007  17.504  0.00  0.00    +0.000 HD
ENDBRANCH  24  32
ENDBRANCH  20  25
ENDBRANCH  19  20
ENDBRANCH   1  19
TORSDOF 7
ENDMDL
MODEL 4
REMARK VINA RESULT:      -8.1      1.923      4.694
REMARK  Name = 
REMARK  9 active torsions:
REMARK  status: ('A' for Active; 'I' for Inactive)
REMARK    1  A    between atoms: C_1  and  N_2
REMARK    2  A    between atoms: C_3  and  N_4
REMARK    3  A    between atoms: C_5  and  C_6
REMARK    4  A    between atoms: C_6  and  C_8
REMARK    5  A    between atoms: C_8  and  O_9
REMARK    6  A    between atoms: O_9  and  C_10
REMARK    7  A    between atoms: C_10  and  C_12
REMARK    8  A    between atoms: C_17  and  C_18
REMARK    9  A    between atoms: N_29  and  C_30
REMARK                            x       y       z     vdW  Elec       q    Type
REMARK                         _______ _______ _______ _____ _____    ______ ____
ROOT
ATOM      1  O   UNL     1       4.496   7.081  17.475  0.00  0.00    +0.000 OA
ENDROOT
BRANCH   1   2
ATOM      2  C   UNL     1       5.582   6.285  17.634  0.00  0.00    +0.000 C 
ATOM      3  O   UNL     1       6.440   6.391  18.494  0.00  0.00    +0.000 OA
BRANCH   2   4
ATOM      4  C   UNL     1       5.694   5.399  16.448  0.00  0.00    +0.000 A 
ATOM      5  C   UNL     1       6.486   5.863  15.383  0.00  0.00    +0.000 A 
ATOM      6  C   UNL     1       6.760   5.034  14.300  0.00  0.00    +0.000 A 
ATOM      7  C   UNL     1       6.254   3.738  14.283  0.00  0.00    +0.000 A 
ATOM      8  C   UNL     1       5.458   3.273  15.338  0.00  0.00    +0.000 A 
ATOM      9  C   UNL     1       5.157   4.096  16.439  0.00  0.00    +0.000 A 
BRANCH   9  10
ATOM     10  C   UNL     1       4.280   3.655  17.535  0.00  0.00    +0.000 A 
ATOM     11  N   UNL     1       2.968   3.718  17.456  0.00  0.00    +0.000 NA
ATOM     12  C   UNL     1       2.403   3.522  18.694  0.00  0.00    +0.000 A 
ATOM     13  C   UNL     1       1.048   3.727  19.010  0.00  0.00    +0.000 A 
ATOM     14  C   UNL     1       0.600   3.495  20.312  0.00  0.00    +0.000 A 
ATOM     15  C   UNL     1       1.481   3.032  21.286  0.00  0.00    +0.000 A 
ATOM     16  C   UNL     1       2.835   2.822  20.994  0.00  0.00    +0.000 A 
ATOM     17  C   UNL     1       3.283   3.104  19.693  0.00  0.00    +0.000 A 
ATOM     18  S   UNL     1       4.878   3.061  19.035  0.00  0.00    +0.000 S 
ENDBRANCH   9  10
ENDBRANCH   2   4
ENDBRANCH   1   2
BRANCH   1  19
ATOM     19  C   UNL     1       3.659   7.121  18.626  0.00  0.00    +0.000 C 
BRANCH  19  20
ATOM     20  C   UNL     1       2.211   7.572  18.407  0.00  0.00    +0.000 C 
ATOM     21  O   UNL     1       1.523   7.085  17.503  0.00  0.00    +0.000 OA
BRANCH  20  25
ATOM     22  C   UNL     1       1.072  12.375  19.208  0.00  0.00    +0.000 C 
ATOM     23  N   UNL     1       1.155  10.986  19.645  0.00  0.00    +0.000 N 
ATOM     24  C   UNL     1       1.567   9.962  18.792  0.00  0.00    +0.000 A 
ATOM     25  C   UNL     1       1.665   8.697  19.272  0.00  0.00    +0.000 A 
ATOM     26  C   UNL     1       1.274   8.438  20.684  0.00  0.00    +0.000 A 
ATOM     27  O   UNL     1       1.404   7.318  21.179  0.00  0.00    +0.000 OA
ATOM     28  N   UNL     1       0.791   9.488  21.419  0.00  0.00    +0.000 N 
ATOM     29  C   UNL     1       0.375   9.256  22.793  0.00  0.00    +0.000 C 
ATOM     30  C   UNL     1       0.771  10.788  20.968  0.00  0.00    +0.000 A 
ATOM     31  O   UNL     1       0.438  11.720  21.704  0.00  0.00    +0.000 OA
BRANCH  24  32
ATOM     32  N   UNL     1       1.864  10.273  17.468  0.00  0.00    +0.000 N 
ATOM     33  H   UNL     1       2.704   9.816  17.127  0.00  0.00    +0.000 HD
ATOM     34  H   UNL     1       1.080  10.070  16.831  0.00  0.00    +0.000 HD
ENDBRANCH  24  32
ENDBRANCH  20  25
ENDBRANCH  19  20
ENDBRANCH   1  19
TORSDOF 7
ENDMDL
MODEL 5
REMARK VINA RESULT:      -8.0      0.804      1.180
REMARK  Name = 
REMARK  9 active torsions:
REMARK  status: ('A' for Active; 'I' for Inactive)
REMARK    1  A    between atoms: C_1  and  N_2
REMARK    2  A    between atoms: C_3  and  N_4
REMARK    3  A    between atoms: C_5  and  C_6
REMARK    4  A    between atoms: C_6  and  C_8
REMARK    5  A    between atoms: C_8  and  O_9
REMARK    6  A    between atoms: O_9  and  C_10
REMARK    7  A    between atoms: C_10  and  C_12
REMARK    8  A    between atoms: C_17  and  C_18
REMARK    9  A    between atoms: N_29  and  C_30
REMARK                            x       y       z     vdW  Elec       q    Type
REMARK                         _______ _______ _______ _____ _____    ______ ____
ROOT
ATOM      1  O   UNL     1       2.811   7.017  19.649  0.00  0.00    +0.000 OA
ENDROOT
BRANCH   1   2
ATOM      2  C   UNL     1       2.465   5.895  18.971  0.00  0.00    +0.000 C 
ATOM      3  O   UNL     1       1.907   5.844  17.889  0.00  0.00    +0.000 OA
BRANCH   2   4
ATOM      4  C   UNL     1       2.661   4.725  19.864  0.00  0.00    +0.000 A 
ATOM      5  C   UNL     1       1.864   4.671  21.022  0.00  0.00    +0.000 A 
ATOM      6  C   UNL     1       1.882   3.541  21.833  0.00  0.00    +0.000 A 
ATOM      7  C   UNL     1       2.685   2.460  21.486  0.00  0.00    +0.000 A 
ATOM      8  C   UNL     1       3.488   2.511  20.338  0.00  0.00    +0.000 A 
ATOM      9  C   UNL     1       3.496   3.648  19.507  0.00  0.00    +0.000 A 
BRANCH   9  10
ATOM     10  C   UNL     1       4.368   3.753  18.326  0.00  0.00    +0.000 A 
ATOM     11  N   UNL     1       5.554   4.321  18.375  0.00  0.00    +0.000 NA
ATOM     12  C   UNL     1       6.031   4.544  17.105  0.00  0.00    +0.000 A 
ATOM     13  C   UNL     1       7.164   5.314  16.787  0.00  0.00    +0.000 A 
ATOM     14  C   UNL     1       7.542   5.467  15.452  0.00  0.00    +0.000 A 
ATOM     15  C   UNL     1       6.821   4.836  14.441  0.00  0.00    +0.000 A 
ATOM     16  C   UNL     1       5.688   4.066  14.735  0.00  0.00    +0.000 A 
ATOM     17  C   UNL     1       5.292   3.958  16.078  0.00  0.00    +0.000 A 
ATOM     18  S   UNL     1       3.908   3.191  16.767  0.00  0.00    +0.000 S 
ENDBRANCH   9  10
ENDBRANCH   2   4
ENDBRANCH   1   2
BRANCH   1  19
ATOM     19  C   UNL     1       1.694   7.827  19.998  0.00  0.00    +0.000 C 
BRANCH  19  20
ATOM     20  C   UNL     1       1.471   9.090  19.159  0.00  0.00    +0.000 C 
ATOM     21  O   UNL     1       2.235   9.379  18.232  0.00  0.00    +0.000 OA
BRANCH  20  25
ATOM     22  C   UNL     1      -2.652  11.712  18.099  0.00  0.00    +0.000 C 
ATOM     23  N   UNL     1      -1.603  11.286  19.019  0.00  0.00    +0.000 N 
ATOM     24  C   UNL     1      -0.637  10.347  18.660  0.00  0.00    +0.000 A 
ATOM     25  C   UNL     1       0.339  10.026  19.547  0.00  0.00    +0.000 A 
ATOM     26  C   UNL     1       0.309  10.651  20.897  0.00  0.00    +0.000 A 
ATOM     27  O   UNL     1       1.206  10.436  21.712  0.00  0.00    +0.000 OA
ATOM     28  N   UNL     1      -0.733  11.490  21.193  0.00  0.00    +0.000 N 
ATOM     29  C   UNL     1      -0.802  12.091  22.515  0.00  0.00    +0.000 C 
ATOM     30  C   UNL     1      -1.676  11.888  20.272  0.00  0.00    +0.000 A 
ATOM     31  O   UNL     1      -2.527  12.736  20.548  0.00  0.00    +0.000 OA
BRANCH  24  32
ATOM     32  N   UNL     1      -0.705   9.765  17.398  0.00  0.00    +0.000 N 
ATOM     33  H   UNL     1       0.052  10.048  16.783  0.00  0.00    +0.000 HD
ATOM     34  H   UNL     1      -0.746   8.736  17.441  0.00  0.00    +0.000 HD
ENDBRANCH  24  32
ENDBRANCH  20  25
ENDBRANCH  19  20
ENDBRANCH   1  19
TORSDOF 7
ENDMDL
MODEL 6
REMARK VINA RESULT:      -8.0      2.200      3.064
REMARK  Name = 
REMARK  9 active torsions:
REMARK  status: ('A' for Active; 'I' for Inactive)
REMARK    1  A    between atoms: C_1  and  N_2
REMARK    2  A    between atoms: C_3  and  N_4
REMARK    3  A    between atoms: C_5  and  C_6
REMARK    4  A    between atoms: C_6  and  C_8
REMARK    5  A    between atoms: C_8  and  O_9
REMARK    6  A    between atoms: O_9  and  C_10
REMARK    7  A    between atoms: C_10  and  C_12
REMARK    8  A    between atoms: C_17  and  C_18
REMARK    9  A    between atoms: N_29  and  C_30
REMARK                            x       y       z     vdW  Elec       q    Type
REMARK                         _______ _______ _______ _____ _____    ______ ____
ROOT
ATOM      1  O   UNL     1       1.727   6.532  21.034  0.00  0.00    +0.000 OA
ENDROOT
BRANCH   1   2
ATOM      2  C   UNL     1       2.108   6.172  19.783  0.00  0.00    +0.000 C 
ATOM      3  O   UNL     1       2.290   6.920  18.837  0.00  0.00    +0.000 OA
BRANCH   2   4
ATOM      4  C   UNL     1       2.044   4.693  19.677  0.00  0.00    +0.000 A 
ATOM      5  C   UNL     1       0.876   4.074  20.157  0.00  0.00    +0.000 A 
ATOM      6  C   UNL     1       0.675   2.711  19.963  0.00  0.00    +0.000 A 
ATOM      7  C   UNL     1       1.632   1.967  19.281  0.00  0.00    +0.000 A 
ATOM      8  C   UNL     1       2.801   2.577  18.808  0.00  0.00    +0.000 A 
ATOM      9  C   UNL     1       3.033   3.952  19.001  0.00  0.00    +0.000 A 
BRANCH   9  10
ATOM     10  C   UNL     1       4.275   4.610  18.564  0.00  0.00    +0.000 A 
ATOM     11  N   UNL     1       5.373   4.595  19.290  0.00  0.00    +0.000 NA
ATOM     12  C   UNL     1       6.280   5.506  18.803  0.00  0.00    +0.000 A 
ATOM     13  C   UNL     1       7.465   5.898  19.453  0.00  0.00    +0.000 A 
ATOM     14  C   UNL     1       8.302   6.839  18.852  0.00  0.00    +0.000 A 
ATOM     15  C   UNL     1       7.986   7.364  17.601  0.00  0.00    +0.000 A 
ATOM     16  C   UNL     1       6.811   6.989  16.937  0.00  0.00    +0.000 A 
ATOM     17  C   UNL     1       5.953   6.077  17.574  0.00  0.00    +0.000 A 
ATOM     18  S   UNL     1       4.401   5.495  17.094  0.00  0.00    +0.000 S 
ENDBRANCH   9  10
ENDBRANCH   2   4
ENDBRANCH   1   2
BRANCH   1  19
ATOM     19  C   UNL     1       1.646   7.941  21.211  0.00  0.00    +0.000 C 
BRANCH  19  20
ATOM     20  C   UNL     1       0.240   8.541  21.324  0.00  0.00    +0.000 C 
ATOM     21  O   UNL     1      -0.754   7.813  21.420  0.00  0.00    +0.000 OA
BRANCH  20  25
ATOM     22  C   UNL     1      -1.349  12.942  23.086  0.00  0.00    +0.000 C 
ATOM     23  N   UNL     1      -0.699  12.128  22.066  0.00  0.00    +0.000 N 
ATOM     24  C   UNL     1      -0.485  10.760  22.232  0.00  0.00    +0.000 A 
ATOM     25  C   UNL     1       0.086  10.050  21.226  0.00  0.00    +0.000 A 
ATOM     26  C   UNL     1       0.515  10.772  19.998  0.00  0.00    +0.000 A 
ATOM     27  O   UNL     1       0.981  10.159  19.037  0.00  0.00    +0.000 OA
ATOM     28  N   UNL     1       0.350  12.131  19.962  0.00  0.00    +0.000 N 
ATOM     29  C   UNL     1       0.787  12.865  18.785  0.00  0.00    +0.000 C 
ATOM     30  C   UNL     1      -0.306  12.845  20.939  0.00  0.00    +0.000 A 
ATOM     31  O   UNL     1      -0.535  14.050  20.811  0.00  0.00    +0.000 OA
BRANCH  24  32
ATOM     32  N   UNL     1      -0.863  10.163  23.431  0.00  0.00    +0.000 N 
ATOM     33  H   UNL     1      -0.634  10.721  24.247  0.00  0.00    +0.000 HD
ATOM     34  H   UNL     1      -1.866   9.922  23.451  0.00  0.00    +0.000 HD
ENDBRANCH  24  32
ENDBRANCH  20  25
ENDBRANCH  19  20
ENDBRANCH   1  19
TORSDOF 7
ENDMDL
MODEL 7
REMARK VINA RESULT:      -8.0      2.069      2.545
REMARK  Name = 
REMARK  9 active torsions:
REMARK  status: ('A' for Active; 'I' for Inactive)
REMARK    1  A    between atoms: C_1  and  N_2
REMARK    2  A    between atoms: C_3  and  N_4
REMARK    3  A    between atoms: C_5  and  C_6
REMARK    4  A    between atoms: C_6  and  C_8
REMARK    5  A    between atoms: C_8  and  O_9
REMARK    6  A    between atoms: O_9  and  C_10
REMARK    7  A    between atoms: C_10  and  C_12
REMARK    8  A    between atoms: C_17  and  C_18
REMARK    9  A    between atoms: N_29  and  C_30
REMARK                            x       y       z     vdW  Elec       q    Type
REMARK                         _______ _______ _______ _____ _____    ______ ____
ROOT
ATOM      1  O   UNL     1       1.761   6.886  21.098  0.00  0.00    +0.000 OA
ENDROOT
BRANCH   1   2
ATOM      2  C   UNL     1       2.093   6.465  19.852  0.00  0.00    +0.000 C 
ATOM      3  O   UNL     1       2.241   7.166  18.865  0.00  0.00    +0.000 OA
BRANCH   2   4
ATOM      4  C   UNL     1       2.017   4.983  19.819  0.00  0.00    +0.000 A 
ATOM      5  C   UNL     1       0.858   4.396  20.358  0.00  0.00    +0.000 A 
ATOM      6  C   UNL     1       0.644   3.027  20.236  0.00  0.00    +0.000 A 
ATOM      7  C   UNL     1       1.578   2.244  19.566  0.00  0.00    +0.000 A 
ATOM      8  C   UNL     1       2.738   2.822  19.033  0.00  0.00    +0.000 A 
ATOM      9  C   UNL     1       2.983   4.203  19.154  0.00  0.00    +0.000 A 
BRANCH   9  10
ATOM     10  C   UNL     1       4.217   4.830  18.654  0.00  0.00    +0.000 A 
ATOM     11  N   UNL     1       5.351   4.785  19.321  0.00  0.00    +0.000 NA
ATOM     12  C   UNL     1       6.255   5.674  18.789  0.00  0.00    +0.000 A 
ATOM     13  C   UNL     1       7.482   6.033  19.376  0.00  0.00    +0.000 A 
ATOM     14  C   UNL     1       8.311   6.954  18.734  0.00  0.00    +0.000 A 
ATOM     15  C   UNL     1       7.942   7.492  17.503  0.00  0.00    +0.000 A 
ATOM     16  C   UNL     1       6.724   7.150  16.901  0.00  0.00    +0.000 A 
ATOM     17  C   UNL     1       5.879   6.258  17.580  0.00  0.00    +0.000 A 
ATOM     18  S   UNL     1       4.288   5.717  17.182  0.00  0.00    +0.000 S 
ENDBRANCH   9  10
ENDBRANCH   2   4
ENDBRANCH   1   2
BRANCH   1  19
ATOM     19  C   UNL     1       1.524   8.287  21.171  0.00  0.00    +0.000 C 
BRANCH  19  20
ATOM     20  C   UNL     1       0.068   8.730  21.347  0.00  0.00    +0.000 C 
ATOM     21  O   UNL     1      -0.821   7.908  21.594  0.00  0.00    +0.000 OA
BRANCH  20  25
ATOM     22  C   UNL     1      -0.557  12.721  18.400  0.00  0.00    +0.000 C 
ATOM     23  N   UNL     1      -0.542  12.085  19.712  0.00  0.00    +0.000 N 
ATOM     24  C   UNL     1      -0.321  10.717  19.872  0.00  0.00    +0.000 A 
ATOM     25  C   UNL     1      -0.276  10.194  21.124  0.00  0.00    +0.000 A 
ATOM     26  C   UNL     1      -0.518  11.095  22.282  0.00  0.00    +0.000 A 
ATOM     27  O   UNL     1      -0.427  10.676  23.437  0.00  0.00    +0.000 OA
ATOM     28  N   UNL     1      -0.821  12.406  22.024  0.00  0.00    +0.000 N 
ATOM     29  C   UNL     1      -1.090  13.301  23.137  0.00  0.00    +0.000 C 
ATOM     30  C   UNL     1      -0.783  12.962  20.766  0.00  0.00    +0.000 A 
ATOM     31  O   UNL     1      -0.947  14.172  20.592  0.00  0.00    +0.000 OA
BRANCH  24  32
ATOM     32  N   UNL     1      -0.156   9.928  18.738  0.00  0.00    +0.000 N 
ATOM     33  H   UNL     1       0.792   9.588  18.619  0.00  0.00    +0.000 HD
ATOM     34  H   UNL     1      -0.812   9.133  18.712  0.00  0.00    +0.000 HD
ENDBRANCH  24  32
ENDBRANCH  20  25
ENDBRANCH  19  20
ENDBRANCH   1  19
TORSDOF 7
ENDMDL
MODEL 8
REMARK VINA RESULT:      -8.0      1.956      4.954
REMARK  Name = 
REMARK  9 active torsions:
REMARK  status: ('A' for Active; 'I' for Inactive)
REMARK    1  A    between atoms: C_1  and  N_2
REMARK    2  A    between atoms: C_3  and  N_4
REMARK    3  A    between atoms: C_5  and  C_6
REMARK    4  A    between atoms: C_6  and  C_8
REMARK    5  A    between atoms: C_8  and  O_9
REMARK    6  A    between atoms: O_9  and  C_10
REMARK    7  A    between atoms: C_10  and  C_12
REMARK    8  A    between atoms: C_17  and  C_18
REMARK    9  A    between atoms: N_29  and  C_30
REMARK                            x       y       z     vdW  Elec       q    Type
REMARK                         _______ _______ _______ _____ _____    ______ ____
ROOT
ATOM      1  O   UNL     1       4.953   6.924  17.992  0.00  0.00    +0.000 OA
ENDROOT
BRANCH   1   2
ATOM      2  C   UNL     1       5.929   5.984  18.049  0.00  0.00    +0.000 C 
ATOM      3  O   UNL     1       6.786   5.879  18.910  0.00  0.00    +0.000 OA
BRANCH   2   4
ATOM      4  C   UNL     1       5.940   5.237  16.766  0.00  0.00    +0.000 A 
ATOM      5  C   UNL     1       6.773   5.736  15.749  0.00  0.00    +0.000 A 
ATOM      6  C   UNL     1       6.952   5.016  14.572  0.00  0.00    +0.000 A 
ATOM      7  C   UNL     1       6.308   3.794  14.412  0.00  0.00    +0.000 A 
ATOM      8  C   UNL     1       5.470   3.295  15.418  0.00  0.00    +0.000 A 
ATOM      9  C   UNL     1       5.265   4.010  16.614  0.00  0.00    +0.000 A 
BRANCH   9  10
ATOM     10  C   UNL     1       4.348   3.539  17.665  0.00  0.00    +0.000 A 
ATOM     11  N   UNL     1       3.046   3.473  17.487  0.00  0.00    +0.000 NA
ATOM     12  C   UNL     1       2.407   3.283  18.689  0.00  0.00    +0.000 A 
ATOM     13  C   UNL     1       1.018   3.372  18.893  0.00  0.00    +0.000 A 
ATOM     14  C   UNL     1       0.494   3.161  20.169  0.00  0.00    +0.000 A 
ATOM     15  C   UNL     1       1.335   2.830  21.229  0.00  0.00    +0.000 A 
ATOM     16  C   UNL     1       2.721   2.737  21.048  0.00  0.00    +0.000 A 
ATOM     17  C   UNL     1       3.241   2.999  19.770  0.00  0.00    +0.000 A 
ATOM     18  S   UNL     1       4.880   3.076  19.234  0.00  0.00    +0.000 S 
ENDBRANCH   9  10
ENDBRANCH   2   4
ENDBRANCH   1   2
BRANCH   1  19
ATOM     19  C   UNL     1       3.916   6.711  18.944  0.00  0.00    +0.000 C 
BRANCH  19  20
ATOM     20  C   UNL     1       2.510   7.168  18.542  0.00  0.00    +0.000 C 
ATOM     21  O   UNL     1       1.926   6.656  17.580  0.00  0.00    +0.000 OA
BRANCH  20  25
ATOM     22  C   UNL     1       0.250   9.116  22.554  0.00  0.00    +0.000 C 
ATOM     23  N   UNL     1       0.784   9.228  21.202  0.00  0.00    +0.000 N 
ATOM     24  C   UNL     1       1.445   8.172  20.575  0.00  0.00    +0.000 A 
ATOM     25  C   UNL     1       1.881   8.327  19.298  0.00  0.00    +0.000 A 
ATOM     26  C   UNL     1       1.684   9.642  18.632  0.00  0.00    +0.000 A 
ATOM     27  O   UNL     1       2.009   9.808  17.456  0.00  0.00    +0.000 OA
ATOM     28  N   UNL     1       1.110  10.650  19.359  0.00  0.00    +0.000 N 
ATOM     29  C   UNL     1       0.932  11.954  18.741  0.00  0.00    +0.000 C 
ATOM     30  C   UNL     1       0.587  10.478  20.621  0.00  0.00    +0.000 A 
ATOM     31  O   UNL     1      -0.026  11.381  21.193  0.00  0.00    +0.000 OA
BRANCH  24  32
ATOM     32  N   UNL     1       1.640   6.989  21.281  0.00  0.00    +0.000 N 
ATOM     33  H   UNL     1       1.194   6.186  20.851  0.00  0.00    +0.000 HD
ATOM     34  H   UNL     1       2.638   6.784  21.438  0.00  0.00    +0.000 HD
ENDBRANCH  24  32
ENDBRANCH  20  25
ENDBRANCH  19  20
ENDBRANCH   1  19
TORSDOF 7
ENDMDL
MODEL 9
REMARK VINA RESULT:      -7.9      1.578      1.740
REMARK  Name = 
REMARK  9 active torsions:
REMARK  status: ('A' for Active; 'I' for Inactive)
REMARK    1  A    between atoms: C_1  and  N_2
REMARK    2  A    between atoms: C_3  and  N_4
REMARK    3  A    between atoms: C_5  and  C_6
REMARK    4  A    between atoms: C_6  and  C_8
REMARK    5  A    between atoms: C_8  and  O_9
REMARK    6  A    between atoms: O_9  and  C_10
REMARK    7  A    between atoms: C_10  and  C_12
REMARK    8  A    between atoms: C_17  and  C_18
REMARK    9  A    between atoms: N_29  and  C_30
REMARK                            x       y       z     vdW  Elec       q    Type
REMARK                         _______ _______ _______ _____ _____    ______ ____
ROOT
ATOM      1  O   UNL     1       2.033   7.009  19.624  0.00  0.00    +0.000 OA
ENDROOT
BRANCH   1   2
ATOM      2  C   UNL     1       1.984   5.874  18.883  0.00  0.00    +0.000 C 
ATOM      3  O   UNL     1       1.461   5.744  17.789  0.00  0.00    +0.000 OA
BRANCH   2   4
ATOM      4  C   UNL     1       2.465   4.745  19.718  0.00  0.00    +0.000 A 
ATOM      5  C   UNL     1       1.698   4.425  20.853  0.00  0.00    +0.000 A 
ATOM      6  C   UNL     1       1.996   3.293  21.604  0.00  0.00    +0.000 A 
ATOM      7  C   UNL     1       3.052   2.472  21.219  0.00  0.00    +0.000 A 
ATOM      8  C   UNL     1       3.824   2.790  20.094  0.00  0.00    +0.000 A 
ATOM      9  C   UNL     1       3.549   3.936  19.324  0.00  0.00    +0.000 A 
BRANCH   9  10
ATOM     10  C   UNL     1       4.375   4.326  18.170  0.00  0.00    +0.000 A 
ATOM     11  N   UNL     1       4.076   3.974  16.938  0.00  0.00    +0.000 NA
ATOM     12  C   UNL     1       5.139   4.212  16.099  0.00  0.00    +0.000 A 
ATOM     13  C   UNL     1       5.239   3.768  14.769  0.00  0.00    +0.000 A 
ATOM     14  C   UNL     1       6.378   4.075  14.022  0.00  0.00    +0.000 A 
ATOM     15  C   UNL     1       7.396   4.845  14.579  0.00  0.00    +0.000 A 
ATOM     16  C   UNL     1       7.318   5.297  15.903  0.00  0.00    +0.000 A 
ATOM     17  C   UNL     1       6.188   4.941  16.658  0.00  0.00    +0.000 A 
ATOM     18  S   UNL     1       5.829   5.234  18.321  0.00  0.00    +0.000 S 
ENDBRANCH   9  10
ENDBRANCH   2   4
ENDBRANCH   1   2
BRANCH   1  19
ATOM     19  C   UNL     1       2.402   8.156  18.867  0.00  0.00    +0.000 C 
BRANCH  19  20
ATOM     20  C   UNL     1       1.273   9.121  18.488  0.00  0.00    +0.000 C 
ATOM     21  O   UNL     1       0.640   8.975  17.436  0.00  0.00    +0.000 OA
BRANCH  20  25
ATOM     22  C   UNL     1       1.876  13.919  19.759  0.00  0.00    +0.000 C 
ATOM     23  N   UNL     1       1.326  12.589  19.994  0.00  0.00    +0.000 N 
ATOM     24  C   UNL     1       1.507  11.540  19.092  0.00  0.00    +0.000 A 
ATOM     25  C   UNL     1       1.007  10.314  19.390  0.00  0.00    +0.000 A 
ATOM     26  C   UNL     1       0.233  10.147  20.650  0.00  0.00    +0.000 A 
ATOM     27  O   UNL     1      -0.187   9.041  20.990  0.00  0.00    +0.000 OA
ATOM     28  N   UNL     1       0.025  11.255  21.428  0.00  0.00    +0.000 N 
ATOM     29  C   UNL     1      -0.753  11.125  22.649  0.00  0.00    +0.000 C 
ATOM     30  C   UNL     1       0.601  12.481  21.178  0.00  0.00    +0.000 A 
ATOM     31  O   UNL     1       0.484  13.420  21.967  0.00  0.00    +0.000 OA
BRANCH  24  32
ATOM     32  N   UNL     1       2.196  11.786  17.909  0.00  0.00    +0.000 N 
ATOM     33  H   UNL     1       2.659  12.689  17.893  0.00  0.00    +0.000 HD
ATOM     34  H   UNL     1       2.880  11.046  17.690  0.00  0.00    +0.000 HD
ENDBRANCH  24  32
ENDBRANCH  20  25
ENDBRANCH  19  20
ENDBRANCH   1  19
TORSDOF 7
ENDMDL
