MODEL 1
REMARK VINA RESULT:      -7.6      0.000      0.000
REMARK  Name = 
REMARK  6 active torsions:
REMARK  status: ('A' for Active; 'I' for Inactive)
REMARK    1  A    between atoms: C_1  and  O_2
REMARK    2  A    between atoms: O_2  and  C_3
REMARK    3  A    between atoms: C_8  and  C_9
REMARK    4  A    between atoms: C_9  and  N_10
REMARK    5  A    between atoms: N_10  and  C_11
REMARK    6  A    between atoms: C_16  and  C_17
REMARK                            x       y       z     vdW  Elec       q    Type
REMARK                         _______ _______ _______ _____ _____    ______ ____
ROOT
ATOM      1  C   UNL     1       2.734   6.374  18.574  0.00  0.00    +0.000 A 
ATOM      2  N   UNL     1       2.111   7.131  19.492  0.00  0.00    +0.000 NA
ATOM      3  C   UNL     1       1.608   6.510  20.552  0.00  0.00    +0.000 A 
ATOM      4  N   UNL     1       1.730   5.214  20.797  0.00  0.00    +0.000 NA
ATOM      5  C   UNL     1       2.185   4.446  19.798  0.00  0.00    +0.000 A 
ATOM      6  C   UNL     1       2.252   3.066  19.968  0.00  0.00    +0.000 A 
ATOM      7  C   UNL     1       2.170   2.210  18.863  0.00  0.00    +0.000 A 
ATOM      8  C   UNL     1       2.193   2.758  17.578  0.00  0.00    +0.000 A 
ATOM      9  C   UNL     1       2.471   4.123  17.418  0.00  0.00    +0.000 A 
ATOM     10  C   UNL     1       2.513   4.985  18.548  0.00  0.00    +0.000 A 
ENDROOT
BRANCH   6  11
ATOM     11  C   UNL     1       2.589   2.573  21.338  0.00  0.00    +0.000 C 
ATOM     12  N   UNL     1       1.593   2.545  22.278  0.00  0.00    +0.000 N 
ATOM     13  O   UNL     1       3.695   2.129  21.623  0.00  0.00    +0.000 OA
ATOM     14  H   UNL     1       0.713   3.000  22.180  0.00  0.00    +0.000 HD
ATOM     15  H   UNL     1       1.889   2.241  23.204  0.00  0.00    +0.000 HD
ENDBRANCH   6  11
BRANCH   1  16
ATOM     16  N   UNL     1       3.911   7.016  18.260  0.00  0.00    +0.000 N 
ATOM     17  H   UNL     1       4.573   6.542  18.879  0.00  0.00    +0.000 HD
BRANCH  16  18
ATOM     18  C   UNL     1       4.606   7.331  17.027  0.00  0.00    +0.000 C 
BRANCH  18  24
ATOM     19  C   UNL     1       6.365   5.526  17.298  0.00  0.00    +0.000 A 
ATOM     20  C   UNL     1       7.126   4.461  16.796  0.00  0.00    +0.000 A 
ATOM     21  C   UNL     1       6.928   4.002  15.497  0.00  0.00    +0.000 A 
ATOM     22  C   UNL     1       6.012   4.644  14.672  0.00  0.00    +0.000 A 
ATOM     23  C   UNL     1       5.285   5.735  15.151  0.00  0.00    +0.000 A 
ATOM     24  C   UNL     1       5.420   6.176  16.479  0.00  0.00    +0.000 A 
BRANCH  19  26
ATOM     25  C   UNL     1       7.834   5.804  19.110  0.00  0.00    +0.000 C 
ATOM     26  O   UNL     1       6.527   6.007  18.575  0.00  0.00    +0.000 OA
ENDBRANCH  19  26
ENDBRANCH  18  24
ENDBRANCH  16  18
ENDBRANCH   1  16
TORSDOF 5
ENDMDL
MODEL 2
REMARK VINA RESULT:      -7.4      2.249      5.753
REMARK  Name = 
REMARK  6 active torsions:
REMARK  status: ('A' for Active; 'I' for Inactive)
REMARK    1  A    between atoms: C_1  and  O_2
REMARK    2  A    between atoms: O_2  and  C_3
REMARK    3  A    between atoms: C_8  and  C_9
REMARK    4  A    between atoms: C_9  and  N_10
REMARK    5  A    between atoms: N_10  and  C_11
REMARK    6  A    between atoms: C_16  and  C_17
REMARK                            x       y       z     vdW  Elec       q    Type
REMARK                         _______ _______ _______ _____ _____    ______ ____
ROOT
ATOM      1  C   UNL     1       4.084   3.147  17.355  0.00  0.00    +0.000 A 
ATOM      2  N   UNL     1       4.235   2.893  18.666  0.00  0.00    +0.000 NA
ATOM      3  C   UNL     1       5.205   3.536  19.302  0.00  0.00    +0.000 A 
ATOM      4  N   UNL     1       5.992   4.451  18.754  0.00  0.00    +0.000 NA
ATOM      5  C   UNL     1       5.958   4.560  17.419  0.00  0.00    +0.000 A 
ATOM      6  C   UNL     1       6.825   5.442  16.780  0.00  0.00    +0.000 A 
ATOM      7  C   UNL     1       7.228   5.211  15.459  0.00  0.00    +0.000 A 
ATOM      8  C   UNL     1       6.618   4.184  14.736  0.00  0.00    +0.000 A 
ATOM      9  C   UNL     1       5.505   3.525  15.280  0.00  0.00    +0.000 A 
ATOM     10  C   UNL     1       5.134   3.744  16.635  0.00  0.00    +0.000 A 
ENDROOT
BRANCH   6  11
ATOM     11  C   UNL     1       7.148   6.710  17.503  0.00  0.00    +0.000 C 
ATOM     12  N   UNL     1       7.898   6.628  18.647  0.00  0.00    +0.000 N 
ATOM     13  O   UNL     1       6.831   7.813  17.072  0.00  0.00    +0.000 OA
ATOM     14  H   UNL     1       8.086   5.783  19.139  0.00  0.00    +0.000 HD
ATOM     15  H   UNL     1       8.051   7.517  19.121  0.00  0.00    +0.000 HD
ENDBRANCH   6  11
BRANCH   1  16
ATOM     16  N   UNL     1       2.737   3.338  17.139  0.00  0.00    +0.000 N 
ATOM     17  H   UNL     1       2.488   2.484  16.634  0.00  0.00    +0.000 HD
BRANCH  16  18
ATOM     18  C   UNL     1       1.609   3.702  17.974  0.00  0.00    +0.000 C 
BRANCH  18  24
ATOM     19  C   UNL     1       1.552   5.054  20.118  0.00  0.00    +0.000 A 
ATOM     20  C   UNL     1       1.732   6.251  20.826  0.00  0.00    +0.000 A 
ATOM     21  C   UNL     1       2.212   7.388  20.181  0.00  0.00    +0.000 A 
ATOM     22  C   UNL     1       2.455   7.352  18.814  0.00  0.00    +0.000 A 
ATOM     23  C   UNL     1       2.234   6.176  18.094  0.00  0.00    +0.000 A 
ATOM     24  C   UNL     1       1.812   4.998  18.734  0.00  0.00    +0.000 A 
BRANCH  19  26
ATOM     25  C   UNL     1       2.034   3.268  21.565  0.00  0.00    +0.000 C 
ATOM     26  O   UNL     1       1.084   3.909  20.716  0.00  0.00    +0.000 OA
ENDBRANCH  19  26
ENDBRANCH  18  24
ENDBRANCH  16  18
ENDBRANCH   1  16
TORSDOF 5
ENDMDL
MODEL 3
REMARK VINA RESULT:      -7.3      3.092      6.207
REMARK  Name = 
REMARK  6 active torsions:
REMARK  status: ('A' for Active; 'I' for Inactive)
REMARK    1  A    between atoms: C_1  and  O_2
REMARK    2  A    between atoms: O_2  and  C_3
REMARK    3  A    between atoms: C_8  and  C_9
REMARK    4  A    between atoms: C_9  and  N_10
REMARK    5  A    between atoms: N_10  and  C_11
REMARK    6  A    between atoms: C_16  and  C_17
REMARK                            x       y       z     vdW  Elec       q    Type
REMARK                         _______ _______ _______ _____ _____    ______ ____
ROOT
ATOM      1  C   UNL     1       3.203   5.540  19.374  0.00  0.00    +0.000 A 
ATOM      2  N   UNL     1       3.114   4.331  19.952  0.00  0.00    +0.000 NA
ATOM      3  C   UNL     1       4.150   3.514  19.817  0.00  0.00    +0.000 A 
ATOM      4  N   UNL     1       5.284   3.826  19.207  0.00  0.00    +0.000 NA
ATOM      5  C   UNL     1       5.294   4.951  18.480  0.00  0.00    +0.000 A 
ATOM      6  C   UNL     1       6.429   5.286  17.747  0.00  0.00    +0.000 A 
ATOM      7  C   UNL     1       6.323   6.076  16.596  0.00  0.00    +0.000 A 
ATOM      8  C   UNL     1       5.094   6.664  16.288  0.00  0.00    +0.000 A 
ATOM      9  C   UNL     1       4.048   6.598  17.221  0.00  0.00    +0.000 A 
ATOM     10  C   UNL     1       4.157   5.761  18.365  0.00  0.00    +0.000 A 
ENDROOT
BRANCH   6  11
ATOM     11  C   UNL     1       7.748   4.916  18.344  0.00  0.00    +0.000 C 
ATOM     12  N   UNL     1       8.084   5.457  19.557  0.00  0.00    +0.000 N 
ATOM     13  O   UNL     1       8.498   4.096  17.826  0.00  0.00    +0.000 OA
ATOM     14  H   UNL     1       7.608   6.220  19.984  0.00  0.00    +0.000 HD
ATOM     15  H   UNL     1       9.011   5.204  19.895  0.00  0.00    +0.000 HD
ENDBRANCH   6  11
BRANCH   1  16
ATOM     16  N   UNL     1       2.775   6.460  20.305  0.00  0.00    +0.000 N 
ATOM     17  H   UNL     1       3.396   7.249  20.113  0.00  0.00    +0.000 HD
BRANCH  16  18
ATOM     18  C   UNL     1       1.485   6.998  20.692  0.00  0.00    +0.000 C 
BRANCH  18  24
ATOM     19  C   UNL     1       0.424   9.294  20.859  0.00  0.00    +0.000 A 
ATOM     20  C   UNL     1       0.163  10.572  20.345  0.00  0.00    +0.000 A 
ATOM     21  C   UNL     1       0.715  10.971  19.131  0.00  0.00    +0.000 A 
ATOM     22  C   UNL     1       1.479  10.074  18.395  0.00  0.00    +0.000 A 
ATOM     23  C   UNL     1       1.705   8.784  18.880  0.00  0.00    +0.000 A 
ATOM     24  C   UNL     1       1.212   8.380  20.132  0.00  0.00    +0.000 A 
BRANCH  19  26
ATOM     25  C   UNL     1      -0.305   9.903  23.008  0.00  0.00    +0.000 C 
ATOM     26  O   UNL     1      -0.098   8.862  22.055  0.00  0.00    +0.000 OA
ENDBRANCH  19  26
ENDBRANCH  18  24
ENDBRANCH  16  18
ENDBRANCH   1  16
TORSDOF 5
ENDMDL
MODEL 4
REMARK VINA RESULT:      -7.2      2.638      6.099
REMARK  Name = 
REMARK  6 active torsions:
REMARK  status: ('A' for Active; 'I' for Inactive)
REMARK    1  A    between atoms: C_1  and  O_2
REMARK    2  A    between atoms: O_2  and  C_3
REMARK    3  A    between atoms: C_8  and  C_9
REMARK    4  A    between atoms: C_9  and  N_10
REMARK    5  A    between atoms: N_10  and  C_11
REMARK    6  A    between atoms: C_16  and  C_17
REMARK                            x       y       z     vdW  Elec       q    Type
REMARK                         _______ _______ _______ _____ _____    ______ ____
ROOT
ATOM      1  C   UNL     1       4.684   3.606  16.540  0.00  0.00    +0.000 A 
ATOM      2  N   UNL     1       5.507   3.291  15.526  0.00  0.00    +0.000 NA
ATOM      3  C   UNL     1       6.445   4.173  15.207  0.00  0.00    +0.000 A 
ATOM      4  N   UNL     1       6.665   5.309  15.852  0.00  0.00    +0.000 NA
ATOM      5  C   UNL     1       5.732   5.699  16.732  0.00  0.00    +0.000 A 
ATOM      6  C   UNL     1       5.866   6.926  17.376  0.00  0.00    +0.000 A 
ATOM      7  C   UNL     1       4.736   7.614  17.834  0.00  0.00    +0.000 A 
ATOM      8  C   UNL     1       3.493   6.979  17.791  0.00  0.00    +0.000 A 
ATOM      9  C   UNL     1       3.427   5.618  17.458  0.00  0.00    +0.000 A 
ATOM     10  C   UNL     1       4.575   4.944  16.959  0.00  0.00    +0.000 A 
ENDROOT
BRANCH   6  11
ATOM     11  C   UNL     1       7.256   7.366  17.702  0.00  0.00    +0.000 C 
ATOM     12  N   UNL     1       7.977   6.622  18.599  0.00  0.00    +0.000 N 
ATOM     13  O   UNL     1       7.793   8.317  17.145  0.00  0.00    +0.000 OA
ATOM     14  H   UNL     1       7.588   5.924  19.192  0.00  0.00    +0.000 HD
ATOM     15  H   UNL     1       8.901   6.992  18.815  0.00  0.00    +0.000 HD
ENDBRANCH   6  11
BRANCH   1  16
ATOM     16  N   UNL     1       4.596   2.492  17.344  0.00  0.00    +0.000 N 
ATOM     17  H   UNL     1       5.163   2.775  18.148  0.00  0.00    +0.000 HD
BRANCH  16  18
ATOM     18  C   UNL     1       3.508   1.671  17.839  0.00  0.00    +0.000 C 
BRANCH  18  24
ATOM     19  C   UNL     1       3.433   2.637  20.182  0.00  0.00    +0.000 A 
ATOM     20  C   UNL     1       2.740   3.212  21.257  0.00  0.00    +0.000 A 
ATOM     21  C   UNL     1       1.383   3.498  21.150  0.00  0.00    +0.000 A 
ATOM     22  C   UNL     1       0.695   3.154  19.993  0.00  0.00    +0.000 A 
ATOM     23  C   UNL     1       1.370   2.538  18.936  0.00  0.00    +0.000 A 
ATOM     24  C   UNL     1       2.753   2.299  18.994  0.00  0.00    +0.000 A 
BRANCH  19  26
ATOM     25  C   UNL     1       5.090   1.261  21.119  0.00  0.00    +0.000 C 
ATOM     26  O   UNL     1       4.774   2.342  20.245  0.00  0.00    +0.000 OA
ENDBRANCH  19  26
ENDBRANCH  18  24
ENDBRANCH  16  18
ENDBRANCH   1  16
TORSDOF 5
ENDMDL
MODEL 5
REMARK VINA RESULT:      -7.1      0.979      1.932
REMARK  Name = 
REMARK  6 active torsions:
REMARK  status: ('A' for Active; 'I' for Inactive)
REMARK    1  A    between atoms: C_1  and  O_2
REMARK    2  A    between atoms: O_2  and  C_3
REMARK    3  A    between atoms: C_8  and  C_9
REMARK    4  A    between atoms: C_9  and  N_10
REMARK    5  A    between atoms: N_10  and  C_11
REMARK    6  A    between atoms: C_16  and  C_17
REMARK                            x       y       z     vdW  Elec       q    Type
REMARK                         _______ _______ _______ _____ _____    ______ ____
ROOT
ATOM      1  C   UNL     1       2.503   6.579  18.559  0.00  0.00    +0.000 A 
ATOM      2  N   UNL     1       2.041   7.345  19.561  0.00  0.00    +0.000 NA
ATOM      3  C   UNL     1       1.659   6.728  20.671  0.00  0.00    +0.000 A 
ATOM      4  N   UNL     1       1.756   5.424  20.883  0.00  0.00    +0.000 NA
ATOM      5  C   UNL     1       2.040   4.655  19.823  0.00  0.00    +0.000 A 
ATOM      6  C   UNL     1       2.069   3.270  19.966  0.00  0.00    +0.000 A 
ATOM      7  C   UNL     1       1.805   2.437  18.872  0.00  0.00    +0.000 A 
ATOM      8  C   UNL     1       1.679   3.006  17.603  0.00  0.00    +0.000 A 
ATOM      9  C   UNL     1       1.992   4.362  17.423  0.00  0.00    +0.000 A 
ATOM     10  C   UNL     1       2.221   5.202  18.547  0.00  0.00    +0.000 A 
ENDROOT
BRANCH   6  11
ATOM     11  C   UNL     1       2.565   2.740  21.273  0.00  0.00    +0.000 C 
ATOM     12  N   UNL     1       1.671   2.629  22.306  0.00  0.00    +0.000 N 
ATOM     13  O   UNL     1       3.712   2.337  21.427  0.00  0.00    +0.000 OA
ATOM     14  H   UNL     1       0.768   3.046  22.316  0.00  0.00    +0.000 HD
ATOM     15  H   UNL     1       2.073   2.303  23.183  0.00  0.00    +0.000 HD
ENDBRANCH   6  11
BRANCH   1  16
ATOM     16  N   UNL     1       3.655   7.178  18.098  0.00  0.00    +0.000 N 
ATOM     17  H   UNL     1       4.248   7.150  18.931  0.00  0.00    +0.000 HD
BRANCH  16  18
ATOM     18  C   UNL     1       4.510   6.994  16.941  0.00  0.00    +0.000 C 
BRANCH  18  24
ATOM     19  C   UNL     1       6.092   5.127  16.277  0.00  0.00    +0.000 A 
ATOM     20  C   UNL     1       7.199   4.303  16.524  0.00  0.00    +0.000 A 
ATOM     21  C   UNL     1       7.965   4.476  17.673  0.00  0.00    +0.000 A 
ATOM     22  C   UNL     1       7.594   5.430  18.612  0.00  0.00    +0.000 A 
ATOM     23  C   UNL     1       6.464   6.222  18.394  0.00  0.00    +0.000 A 
ATOM     24  C   UNL     1       5.712   6.112  17.212  0.00  0.00    +0.000 A 
BRANCH  19  26
ATOM     25  C   UNL     1       5.907   4.206  14.124  0.00  0.00    +0.000 C 
ATOM     26  O   UNL     1       5.311   4.992  15.155  0.00  0.00    +0.000 OA
ENDBRANCH  19  26
ENDBRANCH  18  24
ENDBRANCH  16  18
ENDBRANCH   1  16
TORSDOF 5
ENDMDL
MODEL 6
REMARK VINA RESULT:      -7.1      1.080      1.117
REMARK  Name = 
REMARK  6 active torsions:
REMARK  status: ('A' for Active; 'I' for Inactive)
REMARK    1  A    between atoms: C_1  and  O_2
REMARK    2  A    between atoms: O_2  and  C_3
REMARK    3  A    between atoms: C_8  and  C_9
REMARK    4  A    between atoms: C_9  and  N_10
REMARK    5  A    between atoms: N_10  and  C_11
REMARK    6  A    between atoms: C_16  and  C_17
REMARK                            x       y       z     vdW  Elec       q    Type
REMARK                         _______ _______ _______ _____ _____    ______ ____
ROOT
ATOM      1  C   UNL     1       2.599   6.196  18.609  0.00  0.00    +0.000 A 
ATOM      2  N   UNL     1       2.277   7.122  19.528  0.00  0.00    +0.000 NA
ATOM      3  C   UNL     1       1.769   6.690  20.675  0.00  0.00    +0.000 A 
ATOM      4  N   UNL     1       1.616   5.415  21.001  0.00  0.00    +0.000 NA
ATOM      5  C   UNL     1       1.763   4.515  20.020  0.00  0.00    +0.000 A 
ATOM      6  C   UNL     1       1.528   3.168  20.284  0.00  0.00    +0.000 A 
ATOM      7  C   UNL     1       1.125   2.304  19.258  0.00  0.00    +0.000 A 
ATOM      8  C   UNL     1       1.126   2.768  17.941  0.00  0.00    +0.000 A 
ATOM      9  C   UNL     1       1.692   4.020  17.654  0.00  0.00    +0.000 A 
ATOM     10  C   UNL     1       2.061   4.900  18.708  0.00  0.00    +0.000 A 
ENDROOT
BRANCH   6  11
ATOM     11  C   UNL     1       1.897   2.675  21.646  0.00  0.00    +0.000 C 
ATOM     12  N   UNL     1       0.891   2.464  22.551  0.00  0.00    +0.000 N 
ATOM     13  O   UNL     1       3.048   2.385  21.951  0.00  0.00    +0.000 OA
ATOM     14  H   UNL     1      -0.043   2.790  22.441  0.00  0.00    +0.000 HD
ATOM     15  H   UNL     1       1.203   2.170  23.475  0.00  0.00    +0.000 HD
ENDBRANCH   6  11
BRANCH   1  16
ATOM     16  N   UNL     1       3.848   6.524  18.133  0.00  0.00    +0.000 N 
ATOM     17  H   UNL     1       3.931   7.500  18.429  0.00  0.00    +0.000 HD
BRANCH  16  18
ATOM     18  C   UNL     1       5.166   5.924  18.221  0.00  0.00    +0.000 C 
BRANCH  18  24
ATOM     19  C   UNL     1       7.041   5.631  16.540  0.00  0.00    +0.000 A 
ATOM     20  C   UNL     1       7.533   5.175  15.309  0.00  0.00    +0.000 A 
ATOM     21  C   UNL     1       6.709   4.470  14.437  0.00  0.00    +0.000 A 
ATOM     22  C   UNL     1       5.372   4.271  14.762  0.00  0.00    +0.000 A 
ATOM     23  C   UNL     1       4.864   4.764  15.966  0.00  0.00    +0.000 A 
ATOM     24  C   UNL     1       5.692   5.422  16.892  0.00  0.00    +0.000 A 
BRANCH  19  26
ATOM     25  C   UNL     1       7.659   7.743  17.362  0.00  0.00    +0.000 C 
ATOM     26  O   UNL     1       7.821   6.328  17.431  0.00  0.00    +0.000 OA
ENDBRANCH  19  26
ENDBRANCH  18  24
ENDBRANCH  16  18
ENDBRANCH   1  16
TORSDOF 5
ENDMDL
MODEL 7
REMARK VINA RESULT:      -7.1      2.752      6.296
REMARK  Name = 
REMARK  6 active torsions:
REMARK  status: ('A' for Active; 'I' for Inactive)
REMARK    1  A    between atoms: C_1  and  O_2
REMARK    2  A    between atoms: O_2  and  C_3
REMARK    3  A    between atoms: C_8  and  C_9
REMARK    4  A    between atoms: C_9  and  N_10
REMARK    5  A    between atoms: N_10  and  C_11
REMARK    6  A    between atoms: C_16  and  C_17
REMARK                            x       y       z     vdW  Elec       q    Type
REMARK                         _______ _______ _______ _____ _____    ______ ____
ROOT
ATOM      1  C   UNL     1       3.134   5.543  19.281  0.00  0.00    +0.000 A 
ATOM      2  N   UNL     1       3.030   4.335  19.858  0.00  0.00    +0.000 NA
ATOM      3  C   UNL     1       4.075   3.524  19.763  0.00  0.00    +0.000 A 
ATOM      4  N   UNL     1       5.230   3.841  19.196  0.00  0.00    +0.000 NA
ATOM      5  C   UNL     1       5.260   4.965  18.467  0.00  0.00    +0.000 A 
ATOM      6  C   UNL     1       6.420   5.305  17.776  0.00  0.00    +0.000 A 
ATOM      7  C   UNL     1       6.354   6.092  16.621  0.00  0.00    +0.000 A 
ATOM      8  C   UNL     1       5.134   6.673  16.266  0.00  0.00    +0.000 A 
ATOM      9  C   UNL     1       4.053   6.602  17.159  0.00  0.00    +0.000 A 
ATOM     10  C   UNL     1       4.125   5.768  18.308  0.00  0.00    +0.000 A 
ENDROOT
BRANCH   6  11
ATOM     11  C   UNL     1       7.718   4.944  18.423  0.00  0.00    +0.000 C 
ATOM     12  N   UNL     1       8.005   5.490  19.647  0.00  0.00    +0.000 N 
ATOM     13  O   UNL     1       8.491   4.127  17.935  0.00  0.00    +0.000 OA
ATOM     14  H   UNL     1       7.510   6.251  20.053  0.00  0.00    +0.000 HD
ATOM     15  H   UNL     1       8.921   5.243  20.020  0.00  0.00    +0.000 HD
ENDBRANCH   6  11
BRANCH   1  16
ATOM     16  N   UNL     1       2.667   6.463  20.193  0.00  0.00    +0.000 N 
ATOM     17  H   UNL     1       2.935   7.345  19.751  0.00  0.00    +0.000 HD
BRANCH  16  18
ATOM     18  C   UNL     1       1.403   6.677  20.873  0.00  0.00    +0.000 C 
BRANCH  18  24
ATOM     19  C   UNL     1       1.206   9.042  19.983  0.00  0.00    +0.000 A 
ATOM     20  C   UNL     1       0.892  10.399  20.146  0.00  0.00    +0.000 A 
ATOM     21  C   UNL     1       0.385  10.866  21.355  0.00  0.00    +0.000 A 
ATOM     22  C   UNL     1       0.247   9.993  22.427  0.00  0.00    +0.000 A 
ATOM     23  C   UNL     1       0.603   8.649  22.285  0.00  0.00    +0.000 A 
ATOM     24  C   UNL     1       1.055   8.141  21.056  0.00  0.00    +0.000 A 
BRANCH  19  26
ATOM     25  C   UNL     1       1.624   9.447  17.707  0.00  0.00    +0.000 C 
ATOM     26  O   UNL     1       1.705   8.540  18.805  0.00  0.00    +0.000 OA
ENDBRANCH  19  26
ENDBRANCH  18  24
ENDBRANCH  16  18
ENDBRANCH   1  16
TORSDOF 5
ENDMDL
MODEL 8
REMARK VINA RESULT:      -6.8      2.431      3.761
REMARK  Name = 
REMARK  6 active torsions:
REMARK  status: ('A' for Active; 'I' for Inactive)
REMARK    1  A    between atoms: C_1  and  O_2
REMARK    2  A    between atoms: O_2  and  C_3
REMARK    3  A    between atoms: C_8  and  C_9
REMARK    4  A    between atoms: C_9  and  N_10
REMARK    5  A    between atoms: N_10  and  C_11
REMARK    6  A    between atoms: C_16  and  C_17
REMARK                            x       y       z     vdW  Elec       q    Type
REMARK                         _______ _______ _______ _____ _____    ______ ____
ROOT
ATOM      1  C   UNL     1       6.361   6.578  17.486  0.00  0.00    +0.000 A 
ATOM      2  N   UNL     1       7.435   6.431  18.279  0.00  0.00    +0.000 NA
ATOM      3  C   UNL     1       7.292   5.681  19.364  0.00  0.00    +0.000 A 
ATOM      4  N   UNL     1       6.189   5.021  19.687  0.00  0.00    +0.000 NA
ATOM      5  C   UNL     1       5.078   5.320  18.999  0.00  0.00    +0.000 A 
ATOM      6  C   UNL     1       3.871   4.724  19.352  0.00  0.00    +0.000 A 
ATOM      7  C   UNL     1       2.656   5.367  19.084  0.00  0.00    +0.000 A 
ATOM      8  C   UNL     1       2.662   6.530  18.311  0.00  0.00    +0.000 A 
ATOM      9  C   UNL     1       3.848   6.928  17.676  0.00  0.00    +0.000 A 
ATOM     10  C   UNL     1       5.079   6.288  17.988  0.00  0.00    +0.000 A 
ENDROOT
BRANCH   6  11
ATOM     11  C   UNL     1       3.937   3.317  19.852  0.00  0.00    +0.000 C 
ATOM     12  N   UNL     1       4.873   2.479  19.305  0.00  0.00    +0.000 N 
ATOM     13  O   UNL     1       3.240   2.914  20.776  0.00  0.00    +0.000 OA
ATOM     14  H   UNL     1       5.384   2.673  18.473  0.00  0.00    +0.000 HD
ATOM     15  H   UNL     1       4.844   1.522  19.653  0.00  0.00    +0.000 HD
ENDBRANCH   6  11
BRANCH   1  16
ATOM     16  N   UNL     1       6.790   6.387  16.192  0.00  0.00    +0.000 N 
ATOM     17  H   UNL     1       7.000   7.345  15.902  0.00  0.00    +0.000 HD
BRANCH  16  18
ATOM     18  C   UNL     1       7.755   5.512  15.554  0.00  0.00    +0.000 C 
BRANCH  18  24
ATOM     19  C   UNL     1       6.227   3.849  14.403  0.00  0.00    +0.000 A 
ATOM     20  C   UNL     1       5.737   3.217  13.251  0.00  0.00    +0.000 A 
ATOM     21  C   UNL     1       6.200   3.588  11.991  0.00  0.00    +0.000 A 
ATOM     22  C   UNL     1       7.198   4.548  11.879  0.00  0.00    +0.000 A 
ATOM     23  C   UNL     1       7.723   5.148  13.026  0.00  0.00    +0.000 A 
ATOM     24  C   UNL     1       7.227   4.838  14.304  0.00  0.00    +0.000 A 
BRANCH  19  26
ATOM     25  C   UNL     1       4.399   3.722  15.873  0.00  0.00    +0.000 C 
ATOM     26  O   UNL     1       5.795   3.516  15.664  0.00  0.00    +0.000 OA
ENDBRANCH  19  26
ENDBRANCH  18  24
ENDBRANCH  16  18
ENDBRANCH   1  16
TORSDOF 5
ENDMDL
MODEL 9
REMARK VINA RESULT:      -6.8      2.658      5.339
REMARK  Name = 
REMARK  6 active torsions:
REMARK  status: ('A' for Active; 'I' for Inactive)
REMARK    1  A    between atoms: C_1  and  O_2
REMARK    2  A    between atoms: O_2  and  C_3
REMARK    3  A    between atoms: C_8  and  C_9
REMARK    4  A    between atoms: C_9  and  N_10
REMARK    5  A    between atoms: N_10  and  C_11
REMARK    6  A    between atoms: C_16  and  C_17
REMARK                            x       y       z     vdW  Elec       q    Type
REMARK                         _______ _______ _______ _____ _____    ______ ____
ROOT
ATOM      1  C   UNL     1       2.652   3.809  19.356  0.00  0.00    +0.000 A 
ATOM      2  N   UNL     1       2.967   2.985  20.369  0.00  0.00    +0.000 NA
ATOM      3  C   UNL     1       4.244   2.653  20.509  0.00  0.00    +0.000 A 
ATOM      4  N   UNL     1       5.233   3.123  19.763  0.00  0.00    +0.000 NA
ATOM      5  C   UNL     1       4.893   3.790  18.652  0.00  0.00    +0.000 A 
ATOM      6  C   UNL     1       5.888   4.232  17.784  0.00  0.00    +0.000 A 
ATOM      7  C   UNL     1       5.615   4.410  16.422  0.00  0.00    +0.000 A 
ATOM      8  C   UNL     1       4.295   4.303  15.977  0.00  0.00    +0.000 A 
ATOM      9  C   UNL     1       3.258   4.197  16.916  0.00  0.00    +0.000 A 
ATOM     10  C   UNL     1       3.554   3.979  18.290  0.00  0.00    +0.000 A 
ENDROOT
BRANCH   6  11
ATOM     11  C   UNL     1       7.176   4.666  18.404  0.00  0.00    +0.000 C 
ATOM     12  N   UNL     1       7.122   5.418  19.548  0.00  0.00    +0.000 N 
ATOM     13  O   UNL     1       8.267   4.315  17.969  0.00  0.00    +0.000 OA
ATOM     14  H   UNL     1       6.299   5.856  19.895  0.00  0.00    +0.000 HD
ATOM     15  H   UNL     1       8.028   5.721  19.902  0.00  0.00    +0.000 HD
ENDBRANCH   6  11
BRANCH   1  16
ATOM     16  N   UNL     1       1.810   4.769  19.870  0.00  0.00    +0.000 N 
ATOM     17  H   UNL     1       1.136   4.196  20.384  0.00  0.00    +0.000 HD
BRANCH  16  18
ATOM     18  C   UNL     1       1.996   6.002  20.611  0.00  0.00    +0.000 C 
BRANCH  18  24
ATOM     19  C   UNL     1       1.251   8.392  20.215  0.00  0.00    +0.000 A 
ATOM     20  C   UNL     1       1.172   9.543  19.418  0.00  0.00    +0.000 A 
ATOM     21  C   UNL     1       1.792   9.584  18.173  0.00  0.00    +0.000 A 
ATOM     22  C   UNL     1       2.441   8.454  17.690  0.00  0.00    +0.000 A 
ATOM     23  C   UNL     1       2.483   7.289  18.459  0.00  0.00    +0.000 A 
ATOM     24  C   UNL     1       1.921   7.244  19.746  0.00  0.00    +0.000 A 
BRANCH  19  26
ATOM     25  C   UNL     1       1.086   9.316  22.368  0.00  0.00    +0.000 C 
ATOM     26  O   UNL     1       0.656   8.312  21.451  0.00  0.00    +0.000 OA
ENDBRANCH  19  26
ENDBRANCH  18  24
ENDBRANCH  16  18
ENDBRANCH   1  16
TORSDOF 5
ENDMDL
