MODEL 1
REMARK VINA RESULT:      -7.1      0.000      0.000
REMARK  Name = 
REMARK  8 active torsions:
REMARK  status: ('A' for Active; 'I' for Inactive)
REMARK    1  A    between atoms: C_1  and  C_2
REMARK    2  A    between atoms: C_2  and  O_3
REMARK    3  A    between atoms: O_3  and  C_4
REMARK    4  A    between atoms: C_9  and  C_10
REMARK    5  A    between atoms: C_13  and  N_14
REMARK    6  A    between atoms: N_14  and  C_15
REMARK    7  A    between atoms: C_25  and  N_26
REMARK    8  A    between atoms: N_29  and  C_30
REMARK                            x       y       z     vdW  Elec       q    Type
REMARK                         _______ _______ _______ _____ _____    ______ ____
ROOT
ATOM      1  C   UNL     1       1.252   8.072  21.114  0.00  0.00    +0.000 A 
ATOM      2  C   UNL     1       1.317   6.734  21.530  0.00  0.00    +0.000 A 
ATOM      3  C   UNL     1       1.781   5.717  20.714  0.00  0.00    +0.000 A 
ATOM      4  N   UNL     1       1.837   4.492  21.243  0.00  0.00    +0.000 NA
ATOM      5  C   UNL     1       2.286   3.482  20.465  0.00  0.00    +0.000 A 
ATOM      6  C   UNL     1       2.720   3.632  19.156  0.00  0.00    +0.000 A 
ATOM      7  C   UNL     1       2.706   4.930  18.605  0.00  0.00    +0.000 A 
ATOM      8  C   UNL     1       2.165   6.003  19.393  0.00  0.00    +0.000 A 
ATOM      9  C   UNL     1       1.961   7.334  18.949  0.00  0.00    +0.000 A 
ATOM     10  C   UNL     1       1.550   8.398  19.785  0.00  0.00    +0.000 A 
ENDROOT
BRANCH  10  11
ATOM     11  N   UNL     1       1.440   9.657  19.195  0.00  0.00    +0.000 N 
ATOM     12  C   UNL     1       2.258  10.066  18.044  0.00  0.00    +0.000 C 
ATOM     13  C   UNL     1       2.405  11.614  18.056  0.00  0.00    +0.000 C 
ATOM     14  N   UNL     1       1.121  12.356  18.125  0.00  0.00    +0.000 NA
ATOM     15  C   UNL     1       1.372  13.785  18.324  0.00  0.00    +0.000 C 
ATOM     16  C   UNL     1       0.287  11.830  19.229  0.00  0.00    +0.000 C 
ATOM     17  C   UNL     1       0.108  10.297  19.174  0.00  0.00    +0.000 C 
ENDBRANCH  10  11
BRANCH   6  18
ATOM     18  C   UNL     1       3.158   2.381  18.482  0.00  0.00    +0.000 C 
ATOM     19  N   UNL     1       4.214   1.690  19.000  0.00  0.00    +0.000 N 
ATOM     20  O   UNL     1       2.587   1.954  17.484  0.00  0.00    +0.000 OA
ATOM     21  H   UNL     1       4.539   1.877  19.942  0.00  0.00    +0.000 HD
ATOM     22  H   UNL     1       4.406   0.784  18.593  0.00  0.00    +0.000 HD
ENDBRANCH   6  18
BRANCH   7  23
ATOM     23  N   UNL     1       3.120   5.123  17.247  0.00  0.00    +0.000 N 
ATOM     24  H   UNL     1       2.440   5.711  16.762  0.00  0.00    +0.000 HD
BRANCH  23  25
ATOM     25  C   UNL     1       4.422   5.209  16.703  0.00  0.00    +0.000 A 
ATOM     26  C   UNL     1       4.799   4.313  15.689  0.00  0.00    +0.000 A 
ATOM     27  C   UNL     1       6.085   4.348  15.141  0.00  0.00    +0.000 A 
ATOM     28  C   UNL     1       7.010   5.271  15.612  0.00  0.00    +0.000 A 
ATOM     29  F   UNL     1       8.233   5.297  15.065  0.00  0.00    +0.000 F 
ATOM     30  C   UNL     1       6.667   6.148  16.635  0.00  0.00    +0.000 A 
ATOM     31 CL   UNL     1       7.798   7.314  17.204  0.00  0.00    +0.000 Cl
ATOM     32  C   UNL     1       5.386   6.103  17.195  0.00  0.00    +0.000 A 
ENDBRANCH  23  25
ENDBRANCH   7  23
BRANCH   1  33
ATOM     33  O   UNL     1       0.917   9.087  21.982  0.00  0.00    +0.000 OA
BRANCH  33  35
ATOM     34  C   UNL     1      -0.805  10.430  22.970  0.00  0.00    +0.000 C 
ATOM     35  C   UNL     1      -0.402   9.035  22.535  0.00  0.00    +0.000 C 
ENDBRANCH  33  35
ENDBRANCH   1  33
TORSDOF 6
ENDMDL
MODEL 2
REMARK VINA RESULT:      -7.1      2.818      4.585
REMARK  Name = 
REMARK  8 active torsions:
REMARK  status: ('A' for Active; 'I' for Inactive)
REMARK    1  A    between atoms: C_1  and  C_2
REMARK    2  A    between atoms: C_2  and  O_3
REMARK    3  A    between atoms: O_3  and  C_4
REMARK    4  A    between atoms: C_9  and  C_10
REMARK    5  A    between atoms: C_13  and  N_14
REMARK    6  A    between atoms: N_14  and  C_15
REMARK    7  A    between atoms: C_25  and  N_26
REMARK    8  A    between atoms: N_29  and  C_30
REMARK                            x       y       z     vdW  Elec       q    Type
REMARK                         _______ _______ _______ _____ _____    ______ ____
ROOT
ATOM      1  C   UNL     1       1.951   5.088  19.123  0.00  0.00    +0.000 A 
ATOM      2  C   UNL     1       2.509   4.102  18.297  0.00  0.00    +0.000 A 
ATOM      3  C   UNL     1       3.576   4.349  17.451  0.00  0.00    +0.000 A 
ATOM      4  N   UNL     1       4.046   3.314  16.749  0.00  0.00    +0.000 NA
ATOM      5  C   UNL     1       5.087   3.531  15.915  0.00  0.00    +0.000 A 
ATOM      6  C   UNL     1       5.725   4.752  15.754  0.00  0.00    +0.000 A 
ATOM      7  C   UNL     1       5.263   5.839  16.526  0.00  0.00    +0.000 A 
ATOM      8  C   UNL     1       4.111   5.644  17.364  0.00  0.00    +0.000 A 
ATOM      9  C   UNL     1       3.446   6.655  18.102  0.00  0.00    +0.000 A 
ATOM     10  C   UNL     1       2.397   6.412  19.018  0.00  0.00    +0.000 A 
ENDROOT
BRANCH  10  11
ATOM     11  N   UNL     1       1.881   7.516  19.695  0.00  0.00    +0.000 N 
ATOM     12  C   UNL     1       1.934   7.644  21.159  0.00  0.00    +0.000 C 
ATOM     13  C   UNL     1       0.762   8.551  21.628  0.00  0.00    +0.000 C 
ATOM     14  N   UNL     1       0.695   9.872  20.952  0.00  0.00    +0.000 NA
ATOM     15  C   UNL     1      -0.541  10.566  21.318  0.00  0.00    +0.000 C 
ATOM     16  C   UNL     1       0.759   9.696  19.483  0.00  0.00    +0.000 C 
ATOM     17  C   UNL     1       1.958   8.833  19.030  0.00  0.00    +0.000 C 
ENDBRANCH  10  11
BRANCH   6  18
ATOM     18  C   UNL     1       6.840   4.765  14.771  0.00  0.00    +0.000 C 
ATOM     19  N   UNL     1       6.645   4.189  13.550  0.00  0.00    +0.000 N 
ATOM     20  O   UNL     1       7.919   5.289  15.027  0.00  0.00    +0.000 OA
ATOM     21  H   UNL     1       5.709   3.975  13.225  0.00  0.00    +0.000 HD
ATOM     22  H   UNL     1       7.377   4.323  12.863  0.00  0.00    +0.000 HD
ENDBRANCH   6  18
BRANCH   7  23
ATOM     23  N   UNL     1       5.876   7.124  16.368  0.00  0.00    +0.000 N 
ATOM     24  H   UNL     1       5.205   7.775  15.956  0.00  0.00    +0.000 HD
BRANCH  23  25
ATOM     25  C   UNL     1       6.856   7.760  17.164  0.00  0.00    +0.000 A 
ATOM     26  C   UNL     1       7.584   6.997  18.091  0.00  0.00    +0.000 A 
ATOM     27  C   UNL     1       8.545   7.592  18.914  0.00  0.00    +0.000 A 
ATOM     28  C   UNL     1       8.777   8.958  18.826  0.00  0.00    +0.000 A 
ATOM     29  F   UNL     1       9.712   9.507  19.615  0.00  0.00    +0.000 F 
ATOM     30  C   UNL     1       8.048   9.738  17.935  0.00  0.00    +0.000 A 
ATOM     31 CL   UNL     1       8.350  11.427  17.799  0.00  0.00    +0.000 Cl
ATOM     32  C   UNL     1       7.075   9.146  17.123  0.00  0.00    +0.000 A 
ENDBRANCH  23  25
ENDBRANCH   7  23
BRANCH   1  33
ATOM     33  O   UNL     1       0.981   4.792  20.055  0.00  0.00    +0.000 OA
BRANCH  33  35
ATOM     34  C   UNL     1       2.127   3.576  21.772  0.00  0.00    +0.000 C 
ATOM     35  C   UNL     1       1.077   3.509  20.681  0.00  0.00    +0.000 C 
ENDBRANCH  33  35
ENDBRANCH   1  33
TORSDOF 6
ENDMDL
MODEL 3
REMARK VINA RESULT:      -7.0      1.018      1.317
REMARK  Name = 
REMARK  8 active torsions:
REMARK  status: ('A' for Active; 'I' for Inactive)
REMARK    1  A    between atoms: C_1  and  C_2
REMARK    2  A    between atoms: C_2  and  O_3
REMARK    3  A    between atoms: O_3  and  C_4
REMARK    4  A    between atoms: C_9  and  C_10
REMARK    5  A    between atoms: C_13  and  N_14
REMARK    6  A    between atoms: N_14  and  C_15
REMARK    7  A    between atoms: C_25  and  N_26
REMARK    8  A    between atoms: N_29  and  C_30
REMARK                            x       y       z     vdW  Elec       q    Type
REMARK                         _______ _______ _______ _____ _____    ______ ____
ROOT
ATOM      1  C   UNL     1       1.269   8.188  21.112  0.00  0.00    +0.000 A 
ATOM      2  C   UNL     1       1.386   6.848  21.508  0.00  0.00    +0.000 A 
ATOM      3  C   UNL     1       1.884   5.861  20.675  0.00  0.00    +0.000 A 
ATOM      4  N   UNL     1       1.988   4.631  21.186  0.00  0.00    +0.000 NA
ATOM      5  C   UNL     1       2.471   3.651  20.392  0.00  0.00    +0.000 A 
ATOM      6  C   UNL     1       2.895   3.836  19.084  0.00  0.00    +0.000 A 
ATOM      7  C   UNL     1       2.831   5.140  18.553  0.00  0.00    +0.000 A 
ATOM      8  C   UNL     1       2.253   6.181  19.358  0.00  0.00    +0.000 A 
ATOM      9  C   UNL     1       1.998   7.510  18.935  0.00  0.00    +0.000 A 
ATOM     10  C   UNL     1       1.550   8.545  19.788  0.00  0.00    +0.000 A 
ENDROOT
BRANCH  10  11
ATOM     11  N   UNL     1       1.391   9.808  19.217  0.00  0.00    +0.000 N 
ATOM     12  C   UNL     1       2.241  10.294  18.120  0.00  0.00    +0.000 C 
ATOM     13  C   UNL     1       2.289  11.846  18.170  0.00  0.00    +0.000 C 
ATOM     14  N   UNL     1       0.958  12.505  18.183  0.00  0.00    +0.000 NA
ATOM     15  C   UNL     1       1.106  13.942  18.424  0.00  0.00    +0.000 C 
ATOM     16  C   UNL     1       0.101  11.903  19.230  0.00  0.00    +0.000 C 
ATOM     17  C   UNL     1       0.025  10.363  19.136  0.00  0.00    +0.000 C 
ENDBRANCH  10  11
BRANCH   6  18
ATOM     18  C   UNL     1       3.376   2.612  18.390  0.00  0.00    +0.000 C 
ATOM     19  N   UNL     1       4.467   1.961  18.887  0.00  0.00    +0.000 N 
ATOM     20  O   UNL     1       2.811   2.172  17.394  0.00  0.00    +0.000 OA
ATOM     21  H   UNL     1       4.796   2.151  19.827  0.00  0.00    +0.000 HD
ATOM     22  H   UNL     1       4.693   1.068  18.467  0.00  0.00    +0.000 HD
ENDBRANCH   6  18
BRANCH   7  23
ATOM     23  N   UNL     1       3.232   5.369  17.197  0.00  0.00    +0.000 N 
ATOM     24  H   UNL     1       2.671   6.121  16.795  0.00  0.00    +0.000 HD
BRANCH  23  25
ATOM     25  C   UNL     1       4.507   5.243  16.599  0.00  0.00    +0.000 A 
ATOM     26  C   UNL     1       5.609   5.873  17.201  0.00  0.00    +0.000 A 
ATOM     27  C   UNL     1       6.883   5.794  16.630  0.00  0.00    +0.000 A 
ATOM     28  C   UNL     1       7.063   5.096  15.442  0.00  0.00    +0.000 A 
ATOM     29  F   UNL     1       8.294   5.021  14.917  0.00  0.00    +0.000 F 
ATOM     30  C   UNL     1       5.981   4.488  14.814  0.00  0.00    +0.000 A 
ATOM     31 CL   UNL     1       6.202   3.596  13.358  0.00  0.00    +0.000 Cl
ATOM     32  C   UNL     1       4.704   4.580  15.377  0.00  0.00    +0.000 A 
ENDBRANCH  23  25
ENDBRANCH   7  23
BRANCH   1  33
ATOM     33  O   UNL     1       0.899   9.178  21.996  0.00  0.00    +0.000 OA
BRANCH  33  35
ATOM     34  C   UNL     1      -0.860  10.458  23.001  0.00  0.00    +0.000 C 
ATOM     35  C   UNL     1      -0.426   9.085  22.529  0.00  0.00    +0.000 C 
ENDBRANCH  33  35
ENDBRANCH   1  33
TORSDOF 6
ENDMDL
MODEL 4
REMARK VINA RESULT:      -6.9      5.327      8.192
REMARK  Name = 
REMARK  8 active torsions:
REMARK  status: ('A' for Active; 'I' for Inactive)
REMARK    1  A    between atoms: C_1  and  C_2
REMARK    2  A    between atoms: C_2  and  O_3
REMARK    3  A    between atoms: O_3  and  C_4
REMARK    4  A    between atoms: C_9  and  C_10
REMARK    5  A    between atoms: C_13  and  N_14
REMARK    6  A    between atoms: N_14  and  C_15
REMARK    7  A    between atoms: C_25  and  N_26
REMARK    8  A    between atoms: N_29  and  C_30
REMARK                            x       y       z     vdW  Elec       q    Type
REMARK                         _______ _______ _______ _____ _____    ______ ____
ROOT
ATOM      1  C   UNL     1      -4.282  13.796  21.622  0.00  0.00    +0.000 A 
ATOM      2  C   UNL     1      -5.077  13.205  20.629  0.00  0.00    +0.000 A 
ATOM      3  C   UNL     1      -4.547  12.486  19.572  0.00  0.00    +0.000 A 
ATOM      4  N   UNL     1      -5.413  11.933  18.718  0.00  0.00    +0.000 NA
ATOM      5  C   UNL     1      -4.918  11.227  17.678  0.00  0.00    +0.000 A 
ATOM      6  C   UNL     1      -3.568  11.011  17.445  0.00  0.00    +0.000 A 
ATOM      7  C   UNL     1      -2.649  11.554  18.367  0.00  0.00    +0.000 A 
ATOM      8  C   UNL     1      -3.153  12.368  19.439  0.00  0.00    +0.000 A 
ATOM      9  C   UNL     1      -2.365  13.088  20.373  0.00  0.00    +0.000 A 
ATOM     10  C   UNL     1      -2.887  13.773  21.494  0.00  0.00    +0.000 A 
ENDROOT
BRANCH  10  11
ATOM     11  N   UNL     1      -1.967  14.394  22.338  0.00  0.00    +0.000 N 
ATOM     12  C   UNL     1      -1.567  13.821  23.632  0.00  0.00    +0.000 C 
ATOM     13  C   UNL     1      -1.117  14.972  24.575  0.00  0.00    +0.000 C 
ATOM     14  N   UNL     1      -0.072  15.862  24.008  0.00  0.00    +0.000 NA
ATOM     15  C   UNL     1       0.141  17.015  24.885  0.00  0.00    +0.000 C 
ATOM     16  C   UNL     1      -0.471  16.322  22.658  0.00  0.00    +0.000 C 
ATOM     17  C   UNL     1      -0.867  15.162  21.718  0.00  0.00    +0.000 C 
ENDBRANCH  10  11
BRANCH   6  18
ATOM     18  C   UNL     1      -3.249  10.217  16.229  0.00  0.00    +0.000 C 
ATOM     19  N   UNL     1      -4.020  10.382  15.116  0.00  0.00    +0.000 N 
ATOM     20  O   UNL     1      -2.308   9.431  16.202  0.00  0.00    +0.000 OA
ATOM     21  H   UNL     1      -4.633  11.185  15.029  0.00  0.00    +0.000 HD
ATOM     22  H   UNL     1      -3.703   9.922  14.273  0.00  0.00    +0.000 HD
ENDBRANCH   6  18
BRANCH   7  23
ATOM     23  N   UNL     1      -1.245  11.378  18.147  0.00  0.00    +0.000 N 
ATOM     24  H   UNL     1      -0.813  12.283  17.950  0.00  0.00    +0.000 HD
BRANCH  23  25
ATOM     25  C   UNL     1      -0.350  10.445  18.721  0.00  0.00    +0.000 A 
ATOM     26  C   UNL     1      -0.456  10.151  20.090  0.00  0.00    +0.000 A 
ATOM     27  C   UNL     1       0.424   9.254  20.703  0.00  0.00    +0.000 A 
ATOM     28  C   UNL     1       1.426   8.652  19.953  0.00  0.00    +0.000 A 
ATOM     29  F   UNL     1       2.252   7.784  20.556  0.00  0.00    +0.000 F 
ATOM     30  C   UNL     1       1.567   8.950  18.602  0.00  0.00    +0.000 A 
ATOM     31 CL   UNL     1       2.788   8.186  17.659  0.00  0.00    +0.000 Cl
ATOM     32  C   UNL     1       0.697   9.860  17.993  0.00  0.00    +0.000 A 
ENDBRANCH  23  25
ENDBRANCH   7  23
BRANCH   1  33
ATOM     33  O   UNL     1      -4.831  14.390  22.736  0.00  0.00    +0.000 OA
BRANCH  33  35
ATOM     34  C   UNL     1      -4.918  12.642  24.372  0.00  0.00    +0.000 C 
ATOM     35  C   UNL     1      -5.729  13.583  23.504  0.00  0.00    +0.000 C 
ENDBRANCH  33  35
ENDBRANCH   1  33
TORSDOF 6
ENDMDL
MODEL 5
REMARK VINA RESULT:      -6.7      1.378      1.744
REMARK  Name = 
REMARK  8 active torsions:
REMARK  status: ('A' for Active; 'I' for Inactive)
REMARK    1  A    between atoms: C_1  and  C_2
REMARK    2  A    between atoms: C_2  and  O_3
REMARK    3  A    between atoms: O_3  and  C_4
REMARK    4  A    between atoms: C_9  and  C_10
REMARK    5  A    between atoms: C_13  and  N_14
REMARK    6  A    between atoms: N_14  and  C_15
REMARK    7  A    between atoms: C_25  and  N_26
REMARK    8  A    between atoms: N_29  and  C_30
REMARK                            x       y       z     vdW  Elec       q    Type
REMARK                         _______ _______ _______ _____ _____    ______ ____
ROOT
ATOM      1  C   UNL     1       0.949   9.391  21.108  0.00  0.00    +0.000 A 
ATOM      2  C   UNL     1       0.949   8.035  21.469  0.00  0.00    +0.000 A 
ATOM      3  C   UNL     1       1.519   7.050  20.682  0.00  0.00    +0.000 A 
ATOM      4  N   UNL     1       1.495   5.802  21.160  0.00  0.00    +0.000 NA
ATOM      5  C   UNL     1       2.045   4.823  20.409  0.00  0.00    +0.000 A 
ATOM      6  C   UNL     1       2.660   5.024  19.182  0.00  0.00    +0.000 A 
ATOM      7  C   UNL     1       2.729   6.345  18.692  0.00  0.00    +0.000 A 
ATOM      8  C   UNL     1       2.087   7.389  19.443  0.00  0.00    +0.000 A 
ATOM      9  C   UNL     1       1.953   8.740  19.034  0.00  0.00    +0.000 A 
ATOM     10  C   UNL     1       1.432   9.771  19.849  0.00  0.00    +0.000 A 
ENDROOT
BRANCH  10  11
ATOM     11  N   UNL     1       1.411  11.055  19.306  0.00  0.00    +0.000 N 
ATOM     12  C   UNL     1       2.309  11.469  18.217  0.00  0.00    +0.000 C 
ATOM     13  C   UNL     1       2.525  13.006  18.300  0.00  0.00    +0.000 C 
ATOM     14  N   UNL     1       1.274  13.805  18.330  0.00  0.00    +0.000 NA
ATOM     15  C   UNL     1       1.578  15.211  18.601  0.00  0.00    +0.000 C 
ATOM     16  C   UNL     1       0.357  13.277  19.367  0.00  0.00    +0.000 C 
ATOM     17  C   UNL     1       0.113  11.758  19.240  0.00  0.00    +0.000 C 
ENDBRANCH  10  11
BRANCH   6  18
ATOM     18  C   UNL     1       3.184   3.799  18.522  0.00  0.00    +0.000 C 
ATOM     19  N   UNL     1       4.319   3.223  19.012  0.00  0.00    +0.000 N 
ATOM     20  O   UNL     1       2.614   3.293  17.560  0.00  0.00    +0.000 OA
ATOM     21  H   UNL     1       4.663   3.466  19.933  0.00  0.00    +0.000 HD
ATOM     22  H   UNL     1       4.577   2.326  18.620  0.00  0.00    +0.000 HD
ENDBRANCH   6  18
BRANCH   7  23
ATOM     23  N   UNL     1       3.331   6.592  17.416  0.00  0.00    +0.000 N 
ATOM     24  H   UNL     1       3.098   7.536  17.104  0.00  0.00    +0.000 HD
BRANCH  23  25
ATOM     25  C   UNL     1       4.551   6.114  16.885  0.00  0.00    +0.000 A 
ATOM     26  C   UNL     1       5.754   6.452  17.527  0.00  0.00    +0.000 A 
ATOM     27  C   UNL     1       6.984   6.021  17.021  0.00  0.00    +0.000 A 
ATOM     28  C   UNL     1       7.023   5.259  15.860  0.00  0.00    +0.000 A 
ATOM     29  F   UNL     1       8.211   4.844  15.399  0.00  0.00    +0.000 F 
ATOM     30  C   UNL     1       5.846   4.936  15.193  0.00  0.00    +0.000 A 
ATOM     31 CL   UNL     1       5.884   3.967  13.771  0.00  0.00    +0.000 Cl
ATOM     32  C   UNL     1       4.617   5.381  15.690  0.00  0.00    +0.000 A 
ENDBRANCH  23  25
ENDBRANCH   7  23
BRANCH   1  33
ATOM     33  O   UNL     1       0.498  10.371  21.963  0.00  0.00    +0.000 OA
BRANCH  33  35
ATOM     34  C   UNL     1      -1.438  11.186  23.117  0.00  0.00    +0.000 C 
ATOM     35  C   UNL     1      -0.541   9.989  22.870  0.00  0.00    +0.000 C 
ENDBRANCH  33  35
ENDBRANCH   1  33
TORSDOF 6
ENDMDL
MODEL 6
REMARK VINA RESULT:      -6.6      7.272     11.320
REMARK  Name = 
REMARK  8 active torsions:
REMARK  status: ('A' for Active; 'I' for Inactive)
REMARK    1  A    between atoms: C_1  and  C_2
REMARK    2  A    between atoms: C_2  and  O_3
REMARK    3  A    between atoms: O_3  and  C_4
REMARK    4  A    between atoms: C_9  and  C_10
REMARK    5  A    between atoms: C_13  and  N_14
REMARK    6  A    between atoms: N_14  and  C_15
REMARK    7  A    between atoms: C_25  and  N_26
REMARK    8  A    between atoms: N_29  and  C_30
REMARK                            x       y       z     vdW  Elec       q    Type
REMARK                         _______ _______ _______ _____ _____    ______ ____
ROOT
ATOM      1  C   UNL     1      -1.011  11.705  22.394  0.00  0.00    +0.000 A 
ATOM      2  C   UNL     1      -1.981  11.568  23.398  0.00  0.00    +0.000 A 
ATOM      3  C   UNL     1      -3.180  12.259  23.381  0.00  0.00    +0.000 A 
ATOM      4  N   UNL     1      -4.041  12.006  24.370  0.00  0.00    +0.000 NA
ATOM      5  C   UNL     1      -5.218  12.670  24.375  0.00  0.00    +0.000 A 
ATOM      6  C   UNL     1      -5.611  13.580  23.405  0.00  0.00    +0.000 A 
ATOM      7  C   UNL     1      -4.727  13.818  22.333  0.00  0.00    +0.000 A 
ATOM      8  C   UNL     1      -3.441  13.176  22.349  0.00  0.00    +0.000 A 
ATOM      9  C   UNL     1      -2.393  13.402  21.422  0.00  0.00    +0.000 A 
ATOM     10  C   UNL     1      -1.189  12.661  21.387  0.00  0.00    +0.000 A 
ENDROOT
BRANCH  10  11
ATOM     11  N   UNL     1      -0.279  12.984  20.380  0.00  0.00    +0.000 N 
ATOM     12  C   UNL     1       0.053  12.059  19.286  0.00  0.00    +0.000 C 
ATOM     13  C   UNL     1       1.483  12.382  18.770  0.00  0.00    +0.000 C 
ATOM     14  N   UNL     1       1.698  13.801  18.390  0.00  0.00    +0.000 NA
ATOM     15  C   UNL     1       3.114  14.040  18.105  0.00  0.00    +0.000 C 
ATOM     16  C   UNL     1       1.243  14.695  19.480  0.00  0.00    +0.000 C 
ATOM     17  C   UNL     1      -0.198  14.394  19.946  0.00  0.00    +0.000 C 
ENDBRANCH  10  11
BRANCH   6  18
ATOM     18  C   UNL     1      -6.944  14.204  23.619  0.00  0.00    +0.000 C 
ATOM     19  N   UNL     1      -7.758  13.697  24.589  0.00  0.00    +0.000 N 
ATOM     20  O   UNL     1      -7.320  15.163  22.953  0.00  0.00    +0.000 OA
ATOM     21  H   UNL     1      -7.386  13.083  25.304  0.00  0.00    +0.000 HD
ATOM     22  H   UNL     1      -8.602  14.219  24.791  0.00  0.00    +0.000 HD
ENDBRANCH   6  18
BRANCH   7  23
ATOM     23  N   UNL     1      -5.084  14.772  21.325  0.00  0.00    +0.000 N 
ATOM     24  H   UNL     1      -4.413  15.542  21.330  0.00  0.00    +0.000 HD
BRANCH  23  25
ATOM     25  C   UNL     1      -5.694  14.570  20.066  0.00  0.00    +0.000 A 
ATOM     26  C   UNL     1      -5.717  13.278  19.518  0.00  0.00    +0.000 A 
ATOM     27  C   UNL     1      -6.289  13.039  18.264  0.00  0.00    +0.000 A 
ATOM     28  C   UNL     1      -6.831  14.094  17.542  0.00  0.00    +0.000 A 
ATOM     29  F   UNL     1      -7.386  13.843  16.348  0.00  0.00    +0.000 F 
ATOM     30  C   UNL     1      -6.794  15.387  18.054  0.00  0.00    +0.000 A 
ATOM     31 CL   UNL     1      -7.490  16.696  17.178  0.00  0.00    +0.000 Cl
ATOM     32  C   UNL     1      -6.208  15.629  19.300  0.00  0.00    +0.000 A 
ENDBRANCH  23  25
ENDBRANCH   7  23
BRANCH   1  33
ATOM     33  O   UNL     1       0.114  10.911  22.358  0.00  0.00    +0.000 OA
BRANCH  33  35
ATOM     34  C   UNL     1       0.878   8.776  21.583  0.00  0.00    +0.000 C 
ATOM     35  C   UNL     1      -0.103   9.502  22.481  0.00  0.00    +0.000 C 
ENDBRANCH  33  35
ENDBRANCH   1  33
TORSDOF 6
ENDMDL
MODEL 7
REMARK VINA RESULT:      -6.5      5.645      8.941
REMARK  Name = 
REMARK  8 active torsions:
REMARK  status: ('A' for Active; 'I' for Inactive)
REMARK    1  A    between atoms: C_1  and  C_2
REMARK    2  A    between atoms: C_2  and  O_3
REMARK    3  A    between atoms: O_3  and  C_4
REMARK    4  A    between atoms: C_9  and  C_10
REMARK    5  A    between atoms: C_13  and  N_14
REMARK    6  A    between atoms: N_14  and  C_15
REMARK    7  A    between atoms: C_25  and  N_26
REMARK    8  A    between atoms: N_29  and  C_30
REMARK                            x       y       z     vdW  Elec       q    Type
REMARK                         _______ _______ _______ _____ _____    ______ ____
ROOT
ATOM      1  C   UNL     1      -5.143  13.888  22.079  0.00  0.00    +0.000 A 
ATOM      2  C   UNL     1      -5.749  13.284  20.967  0.00  0.00    +0.000 A 
ATOM      3  C   UNL     1      -5.024  12.675  19.958  0.00  0.00    +0.000 A 
ATOM      4  N   UNL     1      -5.719  12.094  18.976  0.00  0.00    +0.000 NA
ATOM      5  C   UNL     1      -5.034  11.494  17.979  0.00  0.00    +0.000 A 
ATOM      6  C   UNL     1      -3.650  11.413  17.914  0.00  0.00    +0.000 A 
ATOM      7  C   UNL     1      -2.910  11.984  18.969  0.00  0.00    +0.000 A 
ATOM      8  C   UNL     1      -3.620  12.689  20.001  0.00  0.00    +0.000 A 
ATOM      9  C   UNL     1      -3.027  13.424  21.059  0.00  0.00    +0.000 A 
ATOM     10  C   UNL     1      -3.747  13.997  22.132  0.00  0.00    +0.000 A 
ENDROOT
BRANCH  10  11
ATOM     11  N   UNL     1      -3.004  14.651  23.114  0.00  0.00    +0.000 N 
ATOM     12  C   UNL     1      -2.720  14.048  24.425  0.00  0.00    +0.000 C 
ATOM     13  C   UNL     1      -2.502  15.183  25.464  0.00  0.00    +0.000 C 
ATOM     14  N   UNL     1      -1.481  16.189  25.076  0.00  0.00    +0.000 NA
ATOM     15  C   UNL     1      -1.488  17.308  26.020  0.00  0.00    +0.000 C 
ATOM     16  C   UNL     1      -1.746  16.681  23.705  0.00  0.00    +0.000 C 
ATOM     17  C   UNL     1      -1.910  15.542  22.675  0.00  0.00    +0.000 C 
ENDBRANCH  10  11
BRANCH   6  18
ATOM     18  C   UNL     1      -3.107  10.718  16.716  0.00  0.00    +0.000 C 
ATOM     19  N   UNL     1      -3.135  11.363  15.515  0.00  0.00    +0.000 N 
ATOM     20  O   UNL     1      -2.629   9.591  16.787  0.00  0.00    +0.000 OA
ATOM     21  H   UNL     1      -3.290  12.364  15.470  0.00  0.00    +0.000 HD
ATOM     22  H   UNL     1      -2.648  10.914  14.748  0.00  0.00    +0.000 HD
ENDBRANCH   6  18
BRANCH   7  23
ATOM     23  N   UNL     1      -1.479  11.946  18.926  0.00  0.00    +0.000 N 
ATOM     24  H   UNL     1      -1.107  12.888  19.065  0.00  0.00    +0.000 HD
BRANCH  23  25
ATOM     25  C   UNL     1      -0.589  10.928  19.337  0.00  0.00    +0.000 A 
ATOM     26  C   UNL     1      -0.544  10.567  20.693  0.00  0.00    +0.000 A 
ATOM     27  C   UNL     1       0.340   9.582  21.146  0.00  0.00    +0.000 A 
ATOM     28  C   UNL     1       1.195   8.959  20.247  0.00  0.00    +0.000 A 
ATOM     29  F   UNL     1       2.025   8.007  20.699  0.00  0.00    +0.000 F 
ATOM     30  C   UNL     1       1.187   9.320  18.904  0.00  0.00    +0.000 A 
ATOM     31 CL   UNL     1       2.224   8.530  17.779  0.00  0.00    +0.000 Cl
ATOM     32  C   UNL     1       0.315  10.316  18.454  0.00  0.00    +0.000 A 
ENDBRANCH  23  25
ENDBRANCH   7  23
BRANCH   1  33
ATOM     33  O   UNL     1      -5.882  14.369  23.137  0.00  0.00    +0.000 OA
BRANCH  33  35
ATOM     34  C   UNL     1      -6.798  16.559  22.807  0.00  0.00    +0.000 C 
ATOM     35  C   UNL     1      -7.083  15.070  22.802  0.00  0.00    +0.000 C 
ENDBRANCH  33  35
ENDBRANCH   1  33
TORSDOF 6
ENDMDL
MODEL 8
REMARK VINA RESULT:      -6.5      6.506     10.502
REMARK  Name = 
REMARK  8 active torsions:
REMARK  status: ('A' for Active; 'I' for Inactive)
REMARK    1  A    between atoms: C_1  and  C_2
REMARK    2  A    between atoms: C_2  and  O_3
REMARK    3  A    between atoms: O_3  and  C_4
REMARK    4  A    between atoms: C_9  and  C_10
REMARK    5  A    between atoms: C_13  and  N_14
REMARK    6  A    between atoms: N_14  and  C_15
REMARK    7  A    between atoms: C_25  and  N_26
REMARK    8  A    between atoms: N_29  and  C_30
REMARK                            x       y       z     vdW  Elec       q    Type
REMARK                         _______ _______ _______ _____ _____    ______ ____
ROOT
ATOM      1  C   UNL     1      -0.005  10.944  18.470  0.00  0.00    +0.000 A 
ATOM      2  C   UNL     1      -1.028  10.092  18.029  0.00  0.00    +0.000 A 
ATOM      3  C   UNL     1      -2.370  10.417  18.129  0.00  0.00    +0.000 A 
ATOM      4  N   UNL     1      -3.246   9.541  17.630  0.00  0.00    +0.000 NA
ATOM      5  C   UNL     1      -4.562   9.836  17.717  0.00  0.00    +0.000 A 
ATOM      6  C   UNL     1      -5.071  11.004  18.267  0.00  0.00    +0.000 A 
ATOM      7  C   UNL     1      -4.150  11.954  18.755  0.00  0.00    +0.000 A 
ATOM      8  C   UNL     1      -2.751  11.625  18.736  0.00  0.00    +0.000 A 
ATOM      9  C   UNL     1      -1.710  12.407  19.298  0.00  0.00    +0.000 A 
ATOM     10  C   UNL     1      -0.333  12.123  19.150  0.00  0.00    +0.000 A 
ENDROOT
BRANCH  10  11
ATOM     11  N   UNL     1       0.562  13.020  19.732  0.00  0.00    +0.000 N 
ATOM     12  C   UNL     1       1.731  13.550  19.014  0.00  0.00    +0.000 C 
ATOM     13  C   UNL     1       2.827  13.931  20.049  0.00  0.00    +0.000 C 
ATOM     14  N   UNL     1       2.369  14.845  21.126  0.00  0.00    +0.000 NA
ATOM     15  C   UNL     1       3.409  14.988  22.146  0.00  0.00    +0.000 C 
ATOM     16  C   UNL     1       1.126  14.325  21.741  0.00  0.00    +0.000 C 
ATOM     17  C   UNL     1       0.030  13.998  20.703  0.00  0.00    +0.000 C 
ENDBRANCH  10  11
BRANCH   6  18
ATOM     18  C   UNL     1      -6.554  11.113  18.272  0.00  0.00    +0.000 C 
ATOM     19  N   UNL     1      -7.280  10.152  18.912  0.00  0.00    +0.000 N 
ATOM     20  O   UNL     1      -7.132  12.047  17.728  0.00  0.00    +0.000 OA
ATOM     21  H   UNL     1      -6.835   9.520  19.567  0.00  0.00    +0.000 HD
ATOM     22  H   UNL     1      -8.274  10.321  19.003  0.00  0.00    +0.000 HD
ENDBRANCH   6  18
BRANCH   7  23
ATOM     23  N   UNL     1      -4.636  13.160  19.355  0.00  0.00    +0.000 N 
ATOM     24  H   UNL     1      -5.020  13.772  18.634  0.00  0.00    +0.000 HD
BRANCH  23  25
ATOM     25  C   UNL     1      -5.215  13.365  20.629  0.00  0.00    +0.000 A 
ATOM     26  C   UNL     1      -6.406  14.103  20.725  0.00  0.00    +0.000 A 
ATOM     27  C   UNL     1      -6.999  14.351  21.967  0.00  0.00    +0.000 A 
ATOM     28  C   UNL     1      -6.399  13.873  23.125  0.00  0.00    +0.000 A 
ATOM     29  F   UNL     1      -6.990  14.109  24.305  0.00  0.00    +0.000 F 
ATOM     30  C   UNL     1      -5.204  13.164  23.055  0.00  0.00    +0.000 A 
ATOM     31 CL   UNL     1      -4.470  12.543  24.482  0.00  0.00    +0.000 Cl
ATOM     32  C   UNL     1      -4.602  12.930  21.814  0.00  0.00    +0.000 A 
ENDBRANCH  23  25
ENDBRANCH   7  23
BRANCH   1  33
ATOM     33  O   UNL     1       1.324  10.663  18.240  0.00  0.00    +0.000 OA
BRANCH  33  35
ATOM     34  C   UNL     1       2.337   8.562  17.693  0.00  0.00    +0.000 C 
ATOM     35  C   UNL     1       1.820   9.448  18.809  0.00  0.00    +0.000 C 
ENDBRANCH  33  35
ENDBRANCH   1  33
TORSDOF 6
ENDMDL
MODEL 9
REMARK VINA RESULT:      -6.5      3.479      6.939
REMARK  Name = 
REMARK  8 active torsions:
REMARK  status: ('A' for Active; 'I' for Inactive)
REMARK    1  A    between atoms: C_1  and  C_2
REMARK    2  A    between atoms: C_2  and  O_3
REMARK    3  A    between atoms: O_3  and  C_4
REMARK    4  A    between atoms: C_9  and  C_10
REMARK    5  A    between atoms: C_13  and  N_14
REMARK    6  A    between atoms: N_14  and  C_15
REMARK    7  A    between atoms: C_25  and  N_26
REMARK    8  A    between atoms: N_29  and  C_30
REMARK                            x       y       z     vdW  Elec       q    Type
REMARK                         _______ _______ _______ _____ _____    ______ ____
ROOT
ATOM      1  C   UNL     1       6.315   4.783  16.554  0.00  0.00    +0.000 A 
ATOM      2  C   UNL     1       5.401   3.722  16.478  0.00  0.00    +0.000 A 
ATOM      3  C   UNL     1       4.317   3.604  17.331  0.00  0.00    +0.000 A 
ATOM      4  N   UNL     1       3.493   2.572  17.127  0.00  0.00    +0.000 NA
ATOM      5  C   UNL     1       2.428   2.436  17.947  0.00  0.00    +0.000 A 
ATOM      6  C   UNL     1       2.111   3.311  18.976  0.00  0.00    +0.000 A 
ATOM      7  C   UNL     1       2.950   4.427  19.169  0.00  0.00    +0.000 A 
ATOM      8  C   UNL     1       4.128   4.549  18.353  0.00  0.00    +0.000 A 
ATOM      9  C   UNL     1       5.137   5.534  18.499  0.00  0.00    +0.000 A 
ATOM     10  C   UNL     1       6.215   5.708  17.601  0.00  0.00    +0.000 A 
ENDROOT
BRANCH  10  11
ATOM     11  N   UNL     1       7.097   6.755  17.869  0.00  0.00    +0.000 N 
ATOM     12  C   UNL     1       8.317   6.577  18.671  0.00  0.00    +0.000 C 
ATOM     13  C   UNL     1       8.687   7.934  19.331  0.00  0.00    +0.000 C 
ATOM     14  N   UNL     1       8.799   9.072  18.384  0.00  0.00    +0.000 NA
ATOM     15  C   UNL     1       8.959  10.329  19.118  0.00  0.00    +0.000 C 
ATOM     16  C   UNL     1       7.596   9.139  17.523  0.00  0.00    +0.000 C 
ATOM     17  C   UNL     1       7.271   7.796  16.835  0.00  0.00    +0.000 C 
ENDBRANCH  10  11
BRANCH   6  18
ATOM     18  C   UNL     1       0.900   2.958  19.763  0.00  0.00    +0.000 C 
ATOM     19  N   UNL     1       0.942   3.076  21.121  0.00  0.00    +0.000 N 
ATOM     20  O   UNL     1      -0.132   2.576  19.220  0.00  0.00    +0.000 OA
ATOM     21  H   UNL     1       1.676   3.613  21.569  0.00  0.00    +0.000 HD
ATOM     22  H   UNL     1       0.067   2.947  21.614  0.00  0.00    +0.000 HD
ENDBRANCH   6  18
BRANCH   7  23
ATOM     23  N   UNL     1       2.674   5.339  20.238  0.00  0.00    +0.000 N 
ATOM     24  H   UNL     1       3.367   5.220  20.978  0.00  0.00    +0.000 HD
BRANCH  23  25
ATOM     25  C   UNL     1       2.120   6.639  20.196  0.00  0.00    +0.000 A 
ATOM     26  C   UNL     1       1.325   7.078  21.267  0.00  0.00    +0.000 A 
ATOM     27  C   UNL     1       0.738   8.347  21.255  0.00  0.00    +0.000 A 
ATOM     28  C   UNL     1       0.930   9.184  20.163  0.00  0.00    +0.000 A 
ATOM     29  F   UNL     1       0.370  10.402  20.176  0.00  0.00    +0.000 F 
ATOM     30  C   UNL     1       1.691   8.759  19.079  0.00  0.00    +0.000 A 
ATOM     31 CL   UNL     1       1.959   9.802  17.736  0.00  0.00    +0.000 Cl
ATOM     32  C   UNL     1       2.265   7.484  19.084  0.00  0.00    +0.000 A 
ENDBRANCH  23  25
ENDBRANCH   7  23
BRANCH   1  33
ATOM     33  O   UNL     1       7.307   4.956  15.615  0.00  0.00    +0.000 OA
BRANCH  33  35
ATOM     34  C   UNL     1       7.914   5.389  13.337  0.00  0.00    +0.000 C 
ATOM     35  C   UNL     1       6.951   4.668  14.259  0.00  0.00    +0.000 C 
ENDBRANCH  33  35
ENDBRANCH   1  33
TORSDOF 6
ENDMDL
