MODEL 1
REMARK VINA RESULT:      -8.4      0.000      0.000
REMARK  Name = 
REMARK  7 active torsions:
REMARK  status: ('A' for Active; 'I' for Inactive)
REMARK    1  A    between atoms: C_8  and  C_9
REMARK    2  A    between atoms: C_9  and  C_11
REMARK    3  A    between atoms: C_11  and  S_12
REMARK    4  A    between atoms: S_12  and  C_13
REMARK    5  A    between atoms: C_16  and  C_17
REMARK    6  A    between atoms: N_22  and  C_23
REMARK    7  A    between atoms: C_23  and  C_24
REMARK                            x       y       z     vdW  Elec       q    Type
REMARK                         _______ _______ _______ _____ _____    ______ ____
ROOT
ATOM      1  C   UNL     1       0.166  11.261  21.027  0.00  0.00    +0.000 A 
ATOM      2  N   UNL     1       0.406  10.588  22.126  0.00  0.00    +0.000 NA
ATOM      3  N   UNL     1      -0.498  11.019  23.082  0.00  0.00    +0.000 NA
ATOM      4  C   UNL     1      -1.250  11.975  22.560  0.00  0.00    +0.000 A 
ATOM      5  N   UNL     1      -0.914  12.090  21.225  0.00  0.00    +0.000 N 
ENDROOT
BRANCH   4   6
ATOM      6  C   UNL     1      -2.178  12.798  23.307  0.00  0.00    +0.000 A 
ATOM      7  C   UNL     1      -3.496  12.534  23.654  0.00  0.00    +0.000 A 
ATOM      8  C   UNL     1      -4.138  13.608  24.330  0.00  0.00    +0.000 A 
ATOM      9  C   UNL     1      -3.301  14.677  24.492  0.00  0.00    +0.000 A 
ATOM     10  S   UNL     1      -1.743  14.376  23.841  0.00  0.00    +0.000 S 
ENDBRANCH   4   6
BRANCH   1  11
ATOM     11  S   UNL     1       1.063  11.224  19.546  0.00  0.00    +0.000 S 
BRANCH  11  12
ATOM     12  C   UNL     1       0.768   9.551  18.892  0.00  0.00    +0.000 C 
BRANCH  12  13
ATOM     13  C   UNL     1       1.968   9.061  18.069  0.00  0.00    +0.000 C 
ATOM     14  O   UNL     1       2.486   9.715  17.163  0.00  0.00    +0.000 OA
BRANCH  13  22
ATOM     15  O   UNL     1       2.174   3.200  22.226  0.00  0.00    +0.000 OA
ATOM     16  C   UNL     1       2.560   3.792  21.227  0.00  0.00    +0.000 C 
ATOM     17  C   UNL     1       3.466   3.153  20.175  0.00  0.00    +0.000 C 
ATOM     18  O   UNL     1       4.210   3.988  19.296  0.00  0.00    +0.000 OA
ATOM     19  C   UNL     1       3.620   5.194  19.031  0.00  0.00    +0.000 A 
ATOM     20  C   UNL     1       4.122   5.905  17.942  0.00  0.00    +0.000 A 
ATOM     21  C   UNL     1       3.595   7.161  17.610  0.00  0.00    +0.000 A 
ATOM     22  C   UNL     1       2.572   7.721  18.382  0.00  0.00    +0.000 A 
ATOM     23  C   UNL     1       2.082   7.004  19.492  0.00  0.00    +0.000 A 
ATOM     24  C   UNL     1       2.605   5.746  19.811  0.00  0.00    +0.000 A 
ATOM     25  N   UNL     1       2.129   5.056  20.926  0.00  0.00    +0.000 N 
ATOM     26  H   UNL     1       1.463   5.477  21.563  0.00  0.00    +0.000 HD
ENDBRANCH  13  22
ENDBRANCH  12  13
ENDBRANCH  11  12
ENDBRANCH   1  11
BRANCH   5  27
ATOM     27  C   UNL     1      -1.525  12.964  20.242  0.00  0.00    +0.000 C 
BRANCH  27  28
ATOM     28  C   UNL     1      -2.692  12.331  19.513  0.00  0.00    +0.000 A 
ATOM     29  C   UNL     1      -2.539  11.455  18.422  0.00  0.00    +0.000 A 
ATOM     30  C   UNL     1      -3.644  10.852  17.824  0.00  0.00    +0.000 A 
ATOM     31  C   UNL     1      -4.921  11.124  18.297  0.00  0.00    +0.000 A 
ATOM     32  C   UNL     1      -5.098  12.031  19.340  0.00  0.00    +0.000 A 
ATOM     33  C   UNL     1      -3.993  12.637  19.940  0.00  0.00    +0.000 A 
ENDBRANCH  27  28
ENDBRANCH   5  27
TORSDOF 7
ENDMDL
MODEL 2
REMARK VINA RESULT:      -8.3      3.680      9.478
REMARK  Name = 
REMARK  7 active torsions:
REMARK  status: ('A' for Active; 'I' for Inactive)
REMARK    1  A    between atoms: C_8  and  C_9
REMARK    2  A    between atoms: C_9  and  C_11
REMARK    3  A    between atoms: C_11  and  S_12
REMARK    4  A    between atoms: S_12  and  C_13
REMARK    5  A    between atoms: C_16  and  C_17
REMARK    6  A    between atoms: N_22  and  C_23
REMARK    7  A    between atoms: C_23  and  C_24
REMARK                            x       y       z     vdW  Elec       q    Type
REMARK                         _______ _______ _______ _____ _____    ______ ____
ROOT
ATOM      1  C   UNL     1       2.315   7.724  19.132  0.00  0.00    +0.000 A 
ATOM      2  N   UNL     1       2.266   8.518  18.090  0.00  0.00    +0.000 NA
ATOM      3  N   UNL     1       3.141   8.014  17.144  0.00  0.00    +0.000 NA
ATOM      4  C   UNL     1       3.737   6.941  17.639  0.00  0.00    +0.000 A 
ATOM      5  N   UNL     1       3.167   6.677  18.869  0.00  0.00    +0.000 N 
ENDROOT
BRANCH   4   6
ATOM      6  C   UNL     1       4.849   6.252  17.019  0.00  0.00    +0.000 A 
ATOM      7  C   UNL     1       4.837   5.130  16.202  0.00  0.00    +0.000 A 
ATOM      8  C   UNL     1       6.132   4.675  15.831  0.00  0.00    +0.000 A 
ATOM      9  C   UNL     1       7.117   5.457  16.369  0.00  0.00    +0.000 A 
ATOM     10  S   UNL     1       6.475   6.743  17.305  0.00  0.00    +0.000 S 
ENDBRANCH   4   6
BRANCH   1  11
ATOM     11  S   UNL     1       1.523   7.932  20.659  0.00  0.00    +0.000 S 
BRANCH  11  12
ATOM     12  C   UNL     1       1.448   9.738  20.876  0.00  0.00    +0.000 C 
BRANCH  12  13
ATOM     13  C   UNL     1       0.055  10.178  21.345  0.00  0.00    +0.000 C 
ATOM     14  O   UNL     1      -0.303  10.170  22.523  0.00  0.00    +0.000 OA
BRANCH  13  22
ATOM     15  O   UNL     1      -2.657   9.837  14.696  0.00  0.00    +0.000 OA
ATOM     16  C   UNL     1      -2.716  10.290  15.832  0.00  0.00    +0.000 C 
ATOM     17  C   UNL     1      -3.869  11.166  16.323  0.00  0.00    +0.000 C 
ATOM     18  O   UNL     1      -3.678  11.991  17.466  0.00  0.00    +0.000 OA
ATOM     19  C   UNL     1      -2.774  11.503  18.369  0.00  0.00    +0.000 A 
ATOM     20  C   UNL     1      -2.787  12.082  19.636  0.00  0.00    +0.000 A 
ATOM     21  C   UNL     1      -1.879  11.663  20.620  0.00  0.00    +0.000 A 
ATOM     22  C   UNL     1      -0.938  10.669  20.329  0.00  0.00    +0.000 A 
ATOM     23  C   UNL     1      -0.919  10.101  19.039  0.00  0.00    +0.000 A 
ATOM     24  C   UNL     1      -1.835  10.517  18.067  0.00  0.00    +0.000 A 
ATOM     25  N   UNL     1      -1.791   9.965  16.786  0.00  0.00    +0.000 N 
ATOM     26  H   UNL     1      -1.059   9.321  16.515  0.00  0.00    +0.000 HD
ENDBRANCH  13  22
ENDBRANCH  12  13
ENDBRANCH  11  12
ENDBRANCH   1  11
BRANCH   5  27
ATOM     27  C   UNL     1       3.459   5.558  19.746  0.00  0.00    +0.000 C 
BRANCH  27  28
ATOM     28  C   UNL     1       2.546   4.368  19.533  0.00  0.00    +0.000 A 
ATOM     29  C   UNL     1       1.366   4.158  20.270  0.00  0.00    +0.000 A 
ATOM     30  C   UNL     1       0.529   3.078  19.993  0.00  0.00    +0.000 A 
ATOM     31  C   UNL     1       0.864   2.183  18.985  0.00  0.00    +0.000 A 
ATOM     32  C   UNL     1       2.057   2.343  18.282  0.00  0.00    +0.000 A 
ATOM     33  C   UNL     1       2.896   3.423  18.557  0.00  0.00    +0.000 A 
ENDBRANCH  27  28
ENDBRANCH   5  27
TORSDOF 7
ENDMDL
MODEL 3
REMARK VINA RESULT:      -8.2      3.713      9.805
REMARK  Name = 
REMARK  7 active torsions:
REMARK  status: ('A' for Active; 'I' for Inactive)
REMARK    1  A    between atoms: C_8  and  C_9
REMARK    2  A    between atoms: C_9  and  C_11
REMARK    3  A    between atoms: C_11  and  S_12
REMARK    4  A    between atoms: S_12  and  C_13
REMARK    5  A    between atoms: C_16  and  C_17
REMARK    6  A    between atoms: N_22  and  C_23
REMARK    7  A    between atoms: C_23  and  C_24
REMARK                            x       y       z     vdW  Elec       q    Type
REMARK                         _______ _______ _______ _____ _____    ______ ____
ROOT
ATOM      1  C   UNL     1       2.091   7.190  19.858  0.00  0.00    +0.000 A 
ATOM      2  N   UNL     1       1.651   6.553  20.915  0.00  0.00    +0.000 NA
ATOM      3  N   UNL     1       1.955   5.213  20.747  0.00  0.00    +0.000 NA
ATOM      4  C   UNL     1       2.542   5.051  19.572  0.00  0.00    +0.000 A 
ATOM      5  N   UNL     1       2.725   6.303  19.020  0.00  0.00    +0.000 N 
ENDROOT
BRANCH   4   6
ATOM      6  C   UNL     1       2.835   3.770  18.964  0.00  0.00    +0.000 A 
ATOM      7  C   UNL     1       2.282   3.195  17.827  0.00  0.00    +0.000 A 
ATOM      8  C   UNL     1       2.755   1.881  17.560  0.00  0.00    +0.000 A 
ATOM      9  C   UNL     1       3.664   1.469  18.496  0.00  0.00    +0.000 A 
ATOM     10  S   UNL     1       3.953   2.675  19.682  0.00  0.00    +0.000 S 
ENDBRANCH   4   6
BRANCH   1  11
ATOM     11  S   UNL     1       1.882   8.865  19.469  0.00  0.00    +0.000 S 
BRANCH  11  12
ATOM     12  C   UNL     1       0.904   9.522  20.857  0.00  0.00    +0.000 C 
BRANCH  12  13
ATOM     13  C   UNL     1       0.471  10.970  20.588  0.00  0.00    +0.000 C 
ATOM     14  O   UNL     1       1.082  11.954  21.006  0.00  0.00    +0.000 OA
BRANCH  13  22
ATOM     15  O   UNL     1      -3.060  10.134  14.383  0.00  0.00    +0.000 OA
ATOM     16  C   UNL     1      -3.053  10.529  15.541  0.00  0.00    +0.000 C 
ATOM     17  C   UNL     1      -4.294  11.080  16.244  0.00  0.00    +0.000 C 
ATOM     18  O   UNL     1      -4.136  11.898  17.396  0.00  0.00    +0.000 OA
ATOM     19  C   UNL     1      -3.014  11.626  18.131  0.00  0.00    +0.000 A 
ATOM     20  C   UNL     1      -2.973  12.153  19.421  0.00  0.00    +0.000 A 
ATOM     21  C   UNL     1      -1.852  11.946  20.238  0.00  0.00    +0.000 A 
ATOM     22  C   UNL     1      -0.754  11.225  19.756  0.00  0.00    +0.000 A 
ATOM     23  C   UNL     1      -0.796  10.712  18.444  0.00  0.00    +0.000 A 
ATOM     24  C   UNL     1      -1.923  10.912  17.639  0.00  0.00    +0.000 A 
ATOM     25  N   UNL     1      -1.942  10.420  16.333  0.00  0.00    +0.000 N 
ATOM     26  H   UNL     1      -1.126   9.984  15.921  0.00  0.00    +0.000 HD
ENDBRANCH  13  22
ENDBRANCH  12  13
ENDBRANCH  11  12
ENDBRANCH   1  11
BRANCH   5  27
ATOM     27  C   UNL     1       3.390   6.618  17.769  0.00  0.00    +0.000 C 
BRANCH  27  28
ATOM     28  C   UNL     1       4.751   5.968  17.627  0.00  0.00    +0.000 A 
ATOM     29  C   UNL     1       5.711   5.951  18.656  0.00  0.00    +0.000 A 
ATOM     30  C   UNL     1       6.926   5.287  18.494  0.00  0.00    +0.000 A 
ATOM     31  C   UNL     1       7.207   4.640  17.298  0.00  0.00    +0.000 A 
ATOM     32  C   UNL     1       6.292   4.692  16.247  0.00  0.00    +0.000 A 
ATOM     33  C   UNL     1       5.076   5.357  16.407  0.00  0.00    +0.000 A 
ENDBRANCH  27  28
ENDBRANCH   5  27
TORSDOF 7
ENDMDL
MODEL 4
REMARK VINA RESULT:      -8.1      3.894     10.011
REMARK  Name = 
REMARK  7 active torsions:
REMARK  status: ('A' for Active; 'I' for Inactive)
REMARK    1  A    between atoms: C_8  and  C_9
REMARK    2  A    between atoms: C_9  and  C_11
REMARK    3  A    between atoms: C_11  and  S_12
REMARK    4  A    between atoms: S_12  and  C_13
REMARK    5  A    between atoms: C_16  and  C_17
REMARK    6  A    between atoms: N_22  and  C_23
REMARK    7  A    between atoms: C_23  and  C_24
REMARK                            x       y       z     vdW  Elec       q    Type
REMARK                         _______ _______ _______ _____ _____    ______ ____
ROOT
ATOM      1  C   UNL     1       2.276   7.637  19.087  0.00  0.00    +0.000 A 
ATOM      2  N   UNL     1       1.801   7.204  20.228  0.00  0.00    +0.000 NA
ATOM      3  N   UNL     1       2.045   5.843  20.288  0.00  0.00    +0.000 NA
ATOM      4  C   UNL     1       2.631   5.462  19.165  0.00  0.00    +0.000 A 
ATOM      5  N   UNL     1       2.875   6.597  18.415  0.00  0.00    +0.000 N 
ENDROOT
BRANCH   4   6
ATOM      6  C   UNL     1       2.870   4.087  18.780  0.00  0.00    +0.000 A 
ATOM      7  C   UNL     1       2.193   3.310  17.850  0.00  0.00    +0.000 A 
ATOM      8  C   UNL     1       2.652   1.965  17.783  0.00  0.00    +0.000 A 
ATOM      9  C   UNL     1       3.674   1.734  18.662  0.00  0.00    +0.000 A 
ATOM     10  S   UNL     1       4.084   3.141  19.552  0.00  0.00    +0.000 S 
ENDBRANCH   4   6
BRANCH   1  11
ATOM     11  S   UNL     1       2.145   9.232  18.424  0.00  0.00    +0.000 S 
BRANCH  11  12
ATOM     12  C   UNL     1       1.017  10.094  19.564  0.00  0.00    +0.000 C 
BRANCH  12  13
ATOM     13  C   UNL     1       0.297  11.250  18.856  0.00  0.00    +0.000 C 
ATOM     14  O   UNL     1       0.846  12.307  18.544  0.00  0.00    +0.000 OA
BRANCH  13  22
ATOM     15  O   UNL     1      -6.496  13.497  19.545  0.00  0.00    +0.000 OA
ATOM     16  C   UNL     1      -5.685  12.759  19.002  0.00  0.00    +0.000 C 
ATOM     17  C   UNL     1      -6.043  11.840  17.833  0.00  0.00    +0.000 C 
ATOM     18  O   UNL     1      -5.204  10.730  17.539  0.00  0.00    +0.000 OA
ATOM     19  C   UNL     1      -3.889  10.913  17.871  0.00  0.00    +0.000 A 
ATOM     20  C   UNL     1      -2.978  10.016  17.317  0.00  0.00    +0.000 A 
ATOM     21  C   UNL     1      -1.612  10.111  17.620  0.00  0.00    +0.000 A 
ATOM     22  C   UNL     1      -1.155  11.099  18.499  0.00  0.00    +0.000 A 
ATOM     23  C   UNL     1      -2.085  11.991  19.069  0.00  0.00    +0.000 A 
ATOM     24  C   UNL     1      -3.445  11.897  18.753  0.00  0.00    +0.000 A 
ATOM     25  N   UNL     1      -4.360  12.770  19.342  0.00  0.00    +0.000 N 
ATOM     26  H   UNL     1      -4.076  13.427  20.058  0.00  0.00    +0.000 HD
ENDBRANCH  13  22
ENDBRANCH  12  13
ENDBRANCH  11  12
ENDBRANCH   1  11
BRANCH   5  27
ATOM     27  C   UNL     1       3.560   6.671  17.139  0.00  0.00    +0.000 C 
BRANCH  27  28
ATOM     28  C   UNL     1       4.869   5.908  17.110  0.00  0.00    +0.000 A 
ATOM     29  C   UNL     1       5.134   4.860  16.208  0.00  0.00    +0.000 A 
ATOM     30  C   UNL     1       6.377   4.231  16.183  0.00  0.00    +0.000 A 
ATOM     31  C   UNL     1       7.372   4.629  17.067  0.00  0.00    +0.000 A 
ATOM     32  C   UNL     1       7.111   5.626  18.005  0.00  0.00    +0.000 A 
ATOM     33  C   UNL     1       5.867   6.257  18.032  0.00  0.00    +0.000 A 
ENDBRANCH  27  28
ENDBRANCH   5  27
TORSDOF 7
ENDMDL
MODEL 5
REMARK VINA RESULT:      -8.1      3.851     10.100
REMARK  Name = 
REMARK  7 active torsions:
REMARK  status: ('A' for Active; 'I' for Inactive)
REMARK    1  A    between atoms: C_8  and  C_9
REMARK    2  A    between atoms: C_9  and  C_11
REMARK    3  A    between atoms: C_11  and  S_12
REMARK    4  A    between atoms: S_12  and  C_13
REMARK    5  A    between atoms: C_16  and  C_17
REMARK    6  A    between atoms: N_22  and  C_23
REMARK    7  A    between atoms: C_23  and  C_24
REMARK                            x       y       z     vdW  Elec       q    Type
REMARK                         _______ _______ _______ _____ _____    ______ ____
ROOT
ATOM      1  C   UNL     1       2.385   7.008  19.233  0.00  0.00    +0.000 A 
ATOM      2  N   UNL     1       1.795   6.558  20.313  0.00  0.00    +0.000 NA
ATOM      3  N   UNL     1       2.112   5.215  20.428  0.00  0.00    +0.000 NA
ATOM      4  C   UNL     1       2.860   4.861  19.396  0.00  0.00    +0.000 A 
ATOM      5  N   UNL     1       3.128   6.000  18.663  0.00  0.00    +0.000 N 
ENDROOT
BRANCH   4   6
ATOM      6  C   UNL     1       3.229   3.499  19.070  0.00  0.00    +0.000 A 
ATOM      7  C   UNL     1       2.897   2.747  17.952  0.00  0.00    +0.000 A 
ATOM      8  C   UNL     1       3.373   1.408  17.998  0.00  0.00    +0.000 A 
ATOM      9  C   UNL     1       4.064   1.155  19.151  0.00  0.00    +0.000 A 
ATOM     10  S   UNL     1       4.147   2.537  20.164  0.00  0.00    +0.000 S 
ENDBRANCH   4   6
BRANCH   1  11
ATOM     11  S   UNL     1       2.244   8.585  18.529  0.00  0.00    +0.000 S 
BRANCH  11  12
ATOM     12  C   UNL     1       0.980   9.411  19.546  0.00  0.00    +0.000 C 
BRANCH  12  13
ATOM     13  C   UNL     1       0.448  10.670  18.848  0.00  0.00    +0.000 C 
ATOM     14  O   UNL     1       1.138  11.663  18.613  0.00  0.00    +0.000 OA
BRANCH  13  22
ATOM     15  O   UNL     1      -6.146  13.462  19.481  0.00  0.00    +0.000 OA
ATOM     16  C   UNL     1      -5.371  12.724  18.886  0.00  0.00    +0.000 C 
ATOM     17  C   UNL     1      -5.735  12.002  17.589  0.00  0.00    +0.000 C 
ATOM     18  O   UNL     1      -4.982  10.862  17.192  0.00  0.00    +0.000 OA
ATOM     19  C   UNL     1      -3.680  10.872  17.612  0.00  0.00    +0.000 A 
ATOM     20  C   UNL     1      -2.820   9.968  16.992  0.00  0.00    +0.000 A 
ATOM     21  C   UNL     1      -1.473   9.890  17.375  0.00  0.00    +0.000 A 
ATOM     22  C   UNL     1      -0.986  10.708  18.400  0.00  0.00    +0.000 A 
ATOM     23  C   UNL     1      -1.867  11.606  19.035  0.00  0.00    +0.000 A 
ATOM     24  C   UNL     1      -3.206  11.686  18.639  0.00  0.00    +0.000 A 
ATOM     25  N   UNL     1      -4.074  12.562  19.293  0.00  0.00    +0.000 N 
ATOM     26  H   UNL     1      -3.779  13.091  20.103  0.00  0.00    +0.000 HD
ENDBRANCH  13  22
ENDBRANCH  12  13
ENDBRANCH  11  12
ENDBRANCH   1  11
BRANCH   5  27
ATOM     27  C   UNL     1       3.966   6.104  17.483  0.00  0.00    +0.000 C 
BRANCH  27  28
ATOM     28  C   UNL     1       5.429   6.340  17.800  0.00  0.00    +0.000 A 
ATOM     29  C   UNL     1       6.202   7.341  17.181  0.00  0.00    +0.000 A 
ATOM     30  C   UNL     1       7.528   7.556  17.552  0.00  0.00    +0.000 A 
ATOM     31  C   UNL     1       8.108   6.766  18.536  0.00  0.00    +0.000 A 
ATOM     32  C   UNL     1       7.376   5.734  19.121  0.00  0.00    +0.000 A 
ATOM     33  C   UNL     1       6.048   5.516  18.751  0.00  0.00    +0.000 A 
ENDBRANCH  27  28
ENDBRANCH   5  27
TORSDOF 7
ENDMDL
MODEL 6
REMARK VINA RESULT:      -8.0      1.124      1.491
REMARK  Name = 
REMARK  7 active torsions:
REMARK  status: ('A' for Active; 'I' for Inactive)
REMARK    1  A    between atoms: C_8  and  C_9
REMARK    2  A    between atoms: C_9  and  C_11
REMARK    3  A    between atoms: C_11  and  S_12
REMARK    4  A    between atoms: S_12  and  C_13
REMARK    5  A    between atoms: C_16  and  C_17
REMARK    6  A    between atoms: N_22  and  C_23
REMARK    7  A    between atoms: C_23  and  C_24
REMARK                            x       y       z     vdW  Elec       q    Type
REMARK                         _______ _______ _______ _____ _____    ______ ____
ROOT
ATOM      1  C   UNL     1      -0.144  11.430  21.153  0.00  0.00    +0.000 A 
ATOM      2  N   UNL     1      -0.229  11.126  22.424  0.00  0.00    +0.000 NA
ATOM      3  N   UNL     1      -1.371  11.733  22.919  0.00  0.00    +0.000 NA
ATOM      4  C   UNL     1      -1.942  12.428  21.948  0.00  0.00    +0.000 A 
ATOM      5  N   UNL     1      -1.236  12.183  20.787  0.00  0.00    +0.000 N 
ENDROOT
BRANCH   4   6
ATOM      6  C   UNL     1      -3.048  13.345  22.128  0.00  0.00    +0.000 A 
ATOM      7  C   UNL     1      -4.410  13.080  22.143  0.00  0.00    +0.000 A 
ATOM      8  C   UNL     1      -5.220  14.242  22.267  0.00  0.00    +0.000 A 
ATOM      9  C   UNL     1      -4.466  15.380  22.347  0.00  0.00    +0.000 A 
ATOM     10  S   UNL     1      -2.785  15.040  22.286  0.00  0.00    +0.000 S 
ENDBRANCH   4   6
BRANCH   1  11
ATOM     11  S   UNL     1       1.143  11.048  20.058  0.00  0.00    +0.000 S 
BRANCH  11  12
ATOM     12  C   UNL     1       1.022   9.243  19.847  0.00  0.00    +0.000 C 
BRANCH  12  13
ATOM     13  C   UNL     1       1.857   8.772  18.649  0.00  0.00    +0.000 C 
ATOM     14  O   UNL     1       2.016   9.436  17.623  0.00  0.00    +0.000 OA
BRANCH  13  22
ATOM     15  O   UNL     1       2.715   2.427  21.918  0.00  0.00    +0.000 OA
ATOM     16  C   UNL     1       2.975   3.168  20.978  0.00  0.00    +0.000 C 
ATOM     17  C   UNL     1       3.797   2.724  19.768  0.00  0.00    +0.000 C 
ATOM     18  O   UNL     1       4.415   3.709  18.948  0.00  0.00    +0.000 OA
ATOM     19  C   UNL     1       3.753   4.905  18.908  0.00  0.00    +0.000 A 
ATOM     20  C   UNL     1       4.115   5.782  17.886  0.00  0.00    +0.000 A 
ATOM     21  C   UNL     1       3.507   7.041  17.781  0.00  0.00    +0.000 A 
ATOM     22  C   UNL     1       2.543   7.437  18.715  0.00  0.00    +0.000 A 
ATOM     23  C   UNL     1       2.197   6.552  19.756  0.00  0.00    +0.000 A 
ATOM     24  C   UNL     1       2.799   5.292  19.848  0.00  0.00    +0.000 A 
ATOM     25  N   UNL     1       2.465   4.435  20.897  0.00  0.00    +0.000 N 
ATOM     26  H   UNL     1       1.850   4.731  21.644  0.00  0.00    +0.000 HD
ENDBRANCH  13  22
ENDBRANCH  12  13
ENDBRANCH  11  12
ENDBRANCH   1  11
BRANCH   5  27
ATOM     27  C   UNL     1      -1.539  12.679  19.458  0.00  0.00    +0.000 C 
BRANCH  27  28
ATOM     28  C   UNL     1      -2.356  11.714  18.624  0.00  0.00    +0.000 A 
ATOM     29  C   UNL     1      -3.763  11.682  18.635  0.00  0.00    +0.000 A 
ATOM     30  C   UNL     1      -4.469  10.815  17.802  0.00  0.00    +0.000 A 
ATOM     31  C   UNL     1      -3.780   9.956  16.956  0.00  0.00    +0.000 A 
ATOM     32  C   UNL     1      -2.387   9.933  16.971  0.00  0.00    +0.000 A 
ATOM     33  C   UNL     1      -1.678  10.800  17.803  0.00  0.00    +0.000 A 
ENDBRANCH  27  28
ENDBRANCH   5  27
TORSDOF 7
ENDMDL
MODEL 7
REMARK VINA RESULT:      -8.0      3.751     10.059
REMARK  Name = 
REMARK  7 active torsions:
REMARK  status: ('A' for Active; 'I' for Inactive)
REMARK    1  A    between atoms: C_8  and  C_9
REMARK    2  A    between atoms: C_9  and  C_11
REMARK    3  A    between atoms: C_11  and  S_12
REMARK    4  A    between atoms: S_12  and  C_13
REMARK    5  A    between atoms: C_16  and  C_17
REMARK    6  A    between atoms: N_22  and  C_23
REMARK    7  A    between atoms: C_23  and  C_24
REMARK                            x       y       z     vdW  Elec       q    Type
REMARK                         _______ _______ _______ _____ _____    ______ ____
ROOT
ATOM      1  C   UNL     1       2.223   7.636  19.355  0.00  0.00    +0.000 A 
ATOM      2  N   UNL     1       2.106   8.457  18.341  0.00  0.00    +0.000 NA
ATOM      3  N   UNL     1       2.948   8.003  17.341  0.00  0.00    +0.000 NA
ATOM      4  C   UNL     1       3.593   6.933  17.777  0.00  0.00    +0.000 A 
ATOM      5  N   UNL     1       3.088   6.619  19.023  0.00  0.00    +0.000 N 
ENDROOT
BRANCH   4   6
ATOM      6  C   UNL     1       4.693   6.292  17.087  0.00  0.00    +0.000 A 
ATOM      7  C   UNL     1       4.671   5.193  16.239  0.00  0.00    +0.000 A 
ATOM      8  C   UNL     1       5.959   4.783  15.796  0.00  0.00    +0.000 A 
ATOM      9  C   UNL     1       6.948   5.577  16.310  0.00  0.00    +0.000 A 
ATOM     10  S   UNL     1       6.317   6.819  17.311  0.00  0.00    +0.000 S 
ENDBRANCH   4   6
BRANCH   1  11
ATOM     11  S   UNL     1       1.498   7.779  20.922  0.00  0.00    +0.000 S 
BRANCH  11  12
ATOM     12  C   UNL     1       0.483   9.286  20.803  0.00  0.00    +0.000 C 
BRANCH  12  13
ATOM     13  C   UNL     1       0.461  10.042  22.138  0.00  0.00    +0.000 C 
ATOM     14  O   UNL     1       1.169   9.746  23.102  0.00  0.00    +0.000 OA
BRANCH  13  22
ATOM     15  O   UNL     1      -5.685  12.803  24.644  0.00  0.00    +0.000 OA
ATOM     16  C   UNL     1      -4.603  12.974  24.097  0.00  0.00    +0.000 C 
ATOM     17  C   UNL     1      -4.051  14.357  23.754  0.00  0.00    +0.000 C 
ATOM     18  O   UNL     1      -3.034  14.475  22.766  0.00  0.00    +0.000 OA
ATOM     19  C   UNL     1      -2.218  13.382  22.663  0.00  0.00    +0.000 A 
ATOM     20  C   UNL     1      -1.026  13.560  21.963  0.00  0.00    +0.000 A 
ATOM     21  C   UNL     1      -0.139  12.488  21.786  0.00  0.00    +0.000 A 
ATOM     22  C   UNL     1      -0.454  11.224  22.295  0.00  0.00    +0.000 A 
ATOM     23  C   UNL     1      -1.670  11.048  22.985  0.00  0.00    +0.000 A 
ATOM     24  C   UNL     1      -2.545  12.124  23.168  0.00  0.00    +0.000 A 
ATOM     25  N   UNL     1      -3.757  11.932  23.832  0.00  0.00    +0.000 N 
ATOM     26  H   UNL     1      -4.059  11.010  24.121  0.00  0.00    +0.000 HD
ENDBRANCH  13  22
ENDBRANCH  12  13
ENDBRANCH  11  12
ENDBRANCH   1  11
BRANCH   5  27
ATOM     27  C   UNL     1       3.449   5.485  19.852  0.00  0.00    +0.000 C 
BRANCH  27  28
ATOM     28  C   UNL     1       2.879   4.170  19.360  0.00  0.00    +0.000 A 
ATOM     29  C   UNL     1       3.674   3.053  19.043  0.00  0.00    +0.000 A 
ATOM     30  C   UNL     1       3.095   1.847  18.652  0.00  0.00    +0.000 A 
ATOM     31  C   UNL     1       1.713   1.741  18.559  0.00  0.00    +0.000 A 
ATOM     32  C   UNL     1       0.911   2.852  18.815  0.00  0.00    +0.000 A 
ATOM     33  C   UNL     1       1.489   4.060  19.206  0.00  0.00    +0.000 A 
ENDBRANCH  27  28
ENDBRANCH   5  27
TORSDOF 7
ENDMDL
MODEL 8
REMARK VINA RESULT:      -8.0      1.884      2.920
REMARK  Name = 
REMARK  7 active torsions:
REMARK  status: ('A' for Active; 'I' for Inactive)
REMARK    1  A    between atoms: C_8  and  C_9
REMARK    2  A    between atoms: C_9  and  C_11
REMARK    3  A    between atoms: C_11  and  S_12
REMARK    4  A    between atoms: S_12  and  C_13
REMARK    5  A    between atoms: C_16  and  C_17
REMARK    6  A    between atoms: N_22  and  C_23
REMARK    7  A    between atoms: C_23  and  C_24
REMARK                            x       y       z     vdW  Elec       q    Type
REMARK                         _______ _______ _______ _____ _____    ______ ____
ROOT
ATOM      1  C   UNL     1      -0.536  10.767  20.930  0.00  0.00    +0.000 A 
ATOM      2  N   UNL     1      -0.235  10.163  22.052  0.00  0.00    +0.000 NA
ATOM      3  N   UNL     1      -0.776  10.910  23.084  0.00  0.00    +0.000 NA
ATOM      4  C   UNL     1      -1.367  11.979  22.575  0.00  0.00    +0.000 A 
ATOM      5  N   UNL     1      -1.312  11.871  21.199  0.00  0.00    +0.000 N 
ENDROOT
BRANCH   4   6
ATOM      6  C   UNL     1      -1.882  13.088  23.350  0.00  0.00    +0.000 A 
ATOM      7  C   UNL     1      -1.246  14.265  23.719  0.00  0.00    +0.000 A 
ATOM      8  C   UNL     1      -2.033  15.106  24.553  0.00  0.00    +0.000 A 
ATOM      9  C   UNL     1      -3.261  14.561  24.808  0.00  0.00    +0.000 A 
ATOM     10  S   UNL     1      -3.463  13.046  24.029  0.00  0.00    +0.000 S 
ENDBRANCH   4   6
BRANCH   1  11
ATOM     11  S   UNL     1      -0.019  10.349  19.330  0.00  0.00    +0.000 S 
BRANCH  11  12
ATOM     12  C   UNL     1       1.170   8.995  19.590  0.00  0.00    +0.000 C 
BRANCH  12  13
ATOM     13  C   UNL     1       2.003   8.744  18.326  0.00  0.00    +0.000 C 
ATOM     14  O   UNL     1       1.946   9.451  17.319  0.00  0.00    +0.000 OA
BRANCH  13  22
ATOM     15  O   UNL     1       7.597   5.430  15.261  0.00  0.00    +0.000 OA
ATOM     16  C   UNL     1       6.784   5.489  16.174  0.00  0.00    +0.000 C 
ATOM     17  C   UNL     1       6.828   4.568  17.393  0.00  0.00    +0.000 C 
ATOM     18  O   UNL     1       5.653   4.394  18.177  0.00  0.00    +0.000 OA
ATOM     19  C   UNL     1       4.814   5.475  18.182  0.00  0.00    +0.000 A 
ATOM     20  C   UNL     1       3.833   5.495  19.172  0.00  0.00    +0.000 A 
ATOM     21  C   UNL     1       2.913   6.551  19.239  0.00  0.00    +0.000 A 
ATOM     22  C   UNL     1       2.960   7.586  18.299  0.00  0.00    +0.000 A 
ATOM     23  C   UNL     1       3.944   7.548  17.290  0.00  0.00    +0.000 A 
ATOM     24  C   UNL     1       4.866   6.497  17.236  0.00  0.00    +0.000 A 
ATOM     25  N   UNL     1       5.819   6.458  16.217  0.00  0.00    +0.000 N 
ATOM     26  H   UNL     1       5.814   7.135  15.465  0.00  0.00    +0.000 HD
ENDBRANCH  13  22
ENDBRANCH  12  13
ENDBRANCH  11  12
ENDBRANCH   1  11
BRANCH   5  27
ATOM     27  C   UNL     1      -1.891  12.780  20.227  0.00  0.00    +0.000 C 
BRANCH  27  28
ATOM     28  C   UNL     1      -3.274  12.369  19.764  0.00  0.00    +0.000 A 
ATOM     29  C   UNL     1      -4.454  12.723  20.446  0.00  0.00    +0.000 A 
ATOM     30  C   UNL     1      -5.706  12.371  19.944  0.00  0.00    +0.000 A 
ATOM     31  C   UNL     1      -5.799  11.648  18.762  0.00  0.00    +0.000 A 
ATOM     32  C   UNL     1      -4.641  11.241  18.102  0.00  0.00    +0.000 A 
ATOM     33  C   UNL     1      -3.386  11.592  18.602  0.00  0.00    +0.000 A 
ENDBRANCH  27  28
ENDBRANCH   5  27
TORSDOF 7
ENDMDL
MODEL 9
REMARK VINA RESULT:      -8.0      3.792     10.213
REMARK  Name = 
REMARK  7 active torsions:
REMARK  status: ('A' for Active; 'I' for Inactive)
REMARK    1  A    between atoms: C_8  and  C_9
REMARK    2  A    between atoms: C_9  and  C_11
REMARK    3  A    between atoms: C_11  and  S_12
REMARK    4  A    between atoms: S_12  and  C_13
REMARK    5  A    between atoms: C_16  and  C_17
REMARK    6  A    between atoms: N_22  and  C_23
REMARK    7  A    between atoms: C_23  and  C_24
REMARK                            x       y       z     vdW  Elec       q    Type
REMARK                         _______ _______ _______ _____ _____    ______ ____
ROOT
ATOM      1  C   UNL     1       2.381   7.725  19.028  0.00  0.00    +0.000 A 
ATOM      2  N   UNL     1       1.885   7.368  20.186  0.00  0.00    +0.000 NA
ATOM      3  N   UNL     1       2.152   6.021  20.354  0.00  0.00    +0.000 NA
ATOM      4  C   UNL     1       2.775   5.570  19.277  0.00  0.00    +0.000 A 
ATOM      5  N   UNL     1       3.017   6.650  18.451  0.00  0.00    +0.000 N 
ENDROOT
BRANCH   4   6
ATOM      6  C   UNL     1       3.048   4.175  19.002  0.00  0.00    +0.000 A 
ATOM      7  C   UNL     1       4.049   3.362  19.518  0.00  0.00    +0.000 A 
ATOM      8  C   UNL     1       4.068   2.053  18.965  0.00  0.00    +0.000 A 
ATOM      9  C   UNL     1       3.081   1.881  18.034  0.00  0.00    +0.000 A 
ATOM     10  S   UNL     1       2.127   3.295  17.844  0.00  0.00    +0.000 S 
ENDBRANCH   4   6
BRANCH   1  11
ATOM     11  S   UNL     1       2.238   9.264  18.244  0.00  0.00    +0.000 S 
BRANCH  11  12
ATOM     12  C   UNL     1       0.498   9.330  17.715  0.00  0.00    +0.000 C 
BRANCH  12  13
ATOM     13  C   UNL     1      -0.252  10.464  18.428  0.00  0.00    +0.000 C 
ATOM     14  O   UNL     1       0.250  11.169  19.303  0.00  0.00    +0.000 OA
BRANCH  13  22
ATOM     15  O   UNL     1      -6.492  13.732  19.858  0.00  0.00    +0.000 OA
ATOM     16  C   UNL     1      -5.805  13.072  19.089  0.00  0.00    +0.000 C 
ATOM     17  C   UNL     1      -6.249  12.713  17.671  0.00  0.00    +0.000 C 
ATOM     18  O   UNL     1      -5.628  11.621  17.004  0.00  0.00    +0.000 OA
ATOM     19  C   UNL     1      -4.333  11.393  17.381  0.00  0.00    +0.000 A 
ATOM     20  C   UNL     1      -3.579  10.568  16.547  0.00  0.00    +0.000 A 
ATOM     21  C   UNL     1      -2.249  10.259  16.866  0.00  0.00    +0.000 A 
ATOM     22  C   UNL     1      -1.673  10.760  18.038  0.00  0.00    +0.000 A 
ATOM     23  C   UNL     1      -2.447  11.577  18.886  0.00  0.00    +0.000 A 
ATOM     24  C   UNL     1      -3.770  11.891  18.554  0.00  0.00    +0.000 A 
ATOM     25  N   UNL     1      -4.535  12.681  19.414  0.00  0.00    +0.000 N 
ATOM     26  H   UNL     1      -4.181  12.973  20.316  0.00  0.00    +0.000 HD
ENDBRANCH  13  22
ENDBRANCH  12  13
ENDBRANCH  11  12
ENDBRANCH   1  11
BRANCH   5  27
ATOM     27  C   UNL     1       3.733   6.643  17.190  0.00  0.00    +0.000 C 
BRANCH  27  28
ATOM     28  C   UNL     1       5.089   5.971  17.269  0.00  0.00    +0.000 A 
ATOM     29  C   UNL     1       6.068   6.314  18.221  0.00  0.00    +0.000 A 
ATOM     30  C   UNL     1       7.276   5.623  18.289  0.00  0.00    +0.000 A 
ATOM     31  C   UNL     1       7.533   4.588  17.399  0.00  0.00    +0.000 A 
ATOM     32  C   UNL     1       6.600   4.271  16.413  0.00  0.00    +0.000 A 
ATOM     33  C   UNL     1       5.390   4.962  16.343  0.00  0.00    +0.000 A 
ENDBRANCH  27  28
ENDBRANCH   5  27
TORSDOF 7
ENDMDL
