MODEL 1
REMARK VINA RESULT:      -6.5      0.000      0.000
REMARK  Name = 
REMARK  6 active torsions:
REMARK  status: ('A' for Active; 'I' for Inactive)
REMARK    1  A    between atoms: C_1  and  C_2
REMARK    2  A    between atoms: C_2  and  C_3
REMARK    3  A    between atoms: C_3  and  C_4
REMARK    4  A    between atoms: N_6  and  C_7
REMARK    5  A    between atoms: N_11  and  C_12
REMARK    6  A    between atoms: N_15  and  C_16
REMARK                            x       y       z     vdW  Elec       q    Type
REMARK                         _______ _______ _______ _____ _____    ______ ____
ROOT
ATOM      1  C   UNL     1       4.574   5.316  18.432  0.00  0.00    +0.000 A 
ATOM      2  C   UNL     1       3.915   5.601  19.562  0.00  0.00    +0.000 A 
ATOM      3  C   UNL     1       2.639   4.960  19.883  0.00  0.00    +0.000 A 
ATOM      4  O   UNL     1       2.082   5.245  20.941  0.00  0.00    +0.000 OA
ATOM      5  N   UNL     1       2.156   4.075  18.950  0.00  0.00    +0.000 N 
ATOM      6  C   UNL     1       0.909   3.388  19.227  0.00  0.00    +0.000 C 
ATOM      7  C   UNL     1       2.796   3.776  17.756  0.00  0.00    +0.000 A 
ATOM      8  O   UNL     1       2.308   2.986  16.946  0.00  0.00    +0.000 OA
ATOM      9  N   UNL     1       4.022   4.414  17.529  0.00  0.00    +0.000 N 
ATOM     10  C   UNL     1       4.742   4.031  16.318  0.00  0.00    +0.000 C 
ENDROOT
BRANCH   1  13
ATOM     11  C   UNL     1       6.935   5.883  18.904  0.00  0.00    +0.000 C 
ATOM     12  O   UNL     1       7.102   5.189  19.904  0.00  0.00    +0.000 OA
ATOM     13  N   UNL     1       5.782   5.928  18.138  0.00  0.00    +0.000 N 
ATOM     14  H   UNL     1       5.871   6.354  17.227  0.00  0.00    +0.000 HD
BRANCH  11  15
ATOM     15  C   UNL     1       8.050   6.778  18.402  0.00  0.00    +0.000 C 
BRANCH  15  17
ATOM     16  C   UNL     1       8.298   9.275  18.006  0.00  0.00    +0.000 C 
ATOM     17  C   UNL     1       7.535   8.004  17.656  0.00  0.00    +0.000 C 
ENDBRANCH  15  17
ENDBRANCH  11  15
ENDBRANCH   1  13
TORSDOF 3
ENDMDL
MODEL 2
REMARK VINA RESULT:      -6.3      2.504      3.750
REMARK  Name = 
REMARK  6 active torsions:
REMARK  status: ('A' for Active; 'I' for Inactive)
REMARK    1  A    between atoms: C_1  and  C_2
REMARK    2  A    between atoms: C_2  and  C_3
REMARK    3  A    between atoms: C_3  and  C_4
REMARK    4  A    between atoms: N_6  and  C_7
REMARK    5  A    between atoms: N_11  and  C_12
REMARK    6  A    between atoms: N_15  and  C_16
REMARK                            x       y       z     vdW  Elec       q    Type
REMARK                         _______ _______ _______ _____ _____    ______ ____
ROOT
ATOM      1  C   UNL     1       4.130   4.296  17.266  0.00  0.00    +0.000 A 
ATOM      2  C   UNL     1       3.702   3.157  17.826  0.00  0.00    +0.000 A 
ATOM      3  C   UNL     1       2.908   3.164  19.055  0.00  0.00    +0.000 A 
ATOM      4  O   UNL     1       2.527   2.092  19.520  0.00  0.00    +0.000 OA
ATOM      5  N   UNL     1       2.654   4.398  19.604  0.00  0.00    +0.000 N 
ATOM      6  C   UNL     1       1.849   4.467  20.808  0.00  0.00    +0.000 C 
ATOM      7  C   UNL     1       3.105   5.596  19.068  0.00  0.00    +0.000 A 
ATOM      8  O   UNL     1       2.861   6.674  19.613  0.00  0.00    +0.000 OA
ATOM      9  N   UNL     1       3.840   5.510  17.880  0.00  0.00    +0.000 N 
ATOM     10  C   UNL     1       4.235   6.774  17.265  0.00  0.00    +0.000 C 
ENDROOT
BRANCH   1  13
ATOM     11  C   UNL     1       6.259   4.360  16.008  0.00  0.00    +0.000 C 
ATOM     12  O   UNL     1       7.041   4.334  16.955  0.00  0.00    +0.000 OA
ATOM     13  N   UNL     1       4.879   4.280  16.100  0.00  0.00    +0.000 N 
ATOM     14  H   UNL     1       4.388   4.078  15.242  0.00  0.00    +0.000 HD
BRANCH  11  15
ATOM     15  C   UNL     1       6.781   4.474  14.590  0.00  0.00    +0.000 C 
BRANCH  15  17
ATOM     16  C   UNL     1       6.499   3.520  12.253  0.00  0.00    +0.000 C 
ATOM     17  C   UNL     1       5.813   3.911  13.555  0.00  0.00    +0.000 C 
ENDBRANCH  15  17
ENDBRANCH  11  15
ENDBRANCH   1  13
TORSDOF 3
ENDMDL
MODEL 3
REMARK VINA RESULT:      -6.2      2.689      4.622
REMARK  Name = 
REMARK  6 active torsions:
REMARK  status: ('A' for Active; 'I' for Inactive)
REMARK    1  A    between atoms: C_1  and  C_2
REMARK    2  A    between atoms: C_2  and  C_3
REMARK    3  A    between atoms: C_3  and  C_4
REMARK    4  A    between atoms: N_6  and  C_7
REMARK    5  A    between atoms: N_11  and  C_12
REMARK    6  A    between atoms: N_15  and  C_16
REMARK                            x       y       z     vdW  Elec       q    Type
REMARK                         _______ _______ _______ _____ _____    ______ ____
ROOT
ATOM      1  C   UNL     1       5.300   4.022  16.442  0.00  0.00    +0.000 A 
ATOM      2  C   UNL     1       3.969   3.911  16.541  0.00  0.00    +0.000 A 
ATOM      3  C   UNL     1       3.272   4.193  17.797  0.00  0.00    +0.000 A 
ATOM      4  O   UNL     1       2.048   4.091  17.831  0.00  0.00    +0.000 OA
ATOM      5  N   UNL     1       4.065   4.551  18.860  0.00  0.00    +0.000 N 
ATOM      6  C   UNL     1       3.426   4.870  20.123  0.00  0.00    +0.000 C 
ATOM      7  C   UNL     1       5.448   4.649  18.803  0.00  0.00    +0.000 A 
ATOM      8  O   UNL     1       6.111   4.959  19.795  0.00  0.00    +0.000 OA
ATOM      9  N   UNL     1       6.040   4.384  17.562  0.00  0.00    +0.000 N 
ATOM     10  C   UNL     1       7.485   4.576  17.476  0.00  0.00    +0.000 C 
ENDROOT
BRANCH   1  13
ATOM     11  C   UNL     1       6.311   4.677  14.282  0.00  0.00    +0.000 C 
ATOM     12  O   UNL     1       6.220   5.898  14.391  0.00  0.00    +0.000 OA
ATOM     13  N   UNL     1       5.951   3.754  15.248  0.00  0.00    +0.000 N 
ATOM     14  H   UNL     1       6.297   2.815  15.115  0.00  0.00    +0.000 HD
BRANCH  11  15
ATOM     15  C   UNL     1       6.871   4.065  13.014  0.00  0.00    +0.000 C 
BRANCH  15  17
ATOM     16  C   UNL     1       4.716   3.485  11.802  0.00  0.00    +0.000 C 
ATOM     17  C   UNL     1       5.989   2.957  12.452  0.00  0.00    +0.000 C 
ENDBRANCH  15  17
ENDBRANCH  11  15
ENDBRANCH   1  13
TORSDOF 3
ENDMDL
MODEL 4
REMARK VINA RESULT:      -6.2      2.702      3.599
REMARK  Name = 
REMARK  6 active torsions:
REMARK  status: ('A' for Active; 'I' for Inactive)
REMARK    1  A    between atoms: C_1  and  C_2
REMARK    2  A    between atoms: C_2  and  C_3
REMARK    3  A    between atoms: C_3  and  C_4
REMARK    4  A    between atoms: N_6  and  C_7
REMARK    5  A    between atoms: N_11  and  C_12
REMARK    6  A    between atoms: N_15  and  C_16
REMARK                            x       y       z     vdW  Elec       q    Type
REMARK                         _______ _______ _______ _____ _____    ______ ____
ROOT
ATOM      1  C   UNL     1       3.867   3.592  18.184  0.00  0.00    +0.000 A 
ATOM      2  C   UNL     1       4.605   2.933  19.086  0.00  0.00    +0.000 A 
ATOM      3  C   UNL     1       4.045   2.520  20.374  0.00  0.00    +0.000 A 
ATOM      4  O   UNL     1       4.760   1.904  21.161  0.00  0.00    +0.000 OA
ATOM      5  N   UNL     1       2.737   2.870  20.604  0.00  0.00    +0.000 N 
ATOM      6  C   UNL     1       2.120   2.463  21.852  0.00  0.00    +0.000 C 
ATOM      7  C   UNL     1       1.950   3.576  19.705  0.00  0.00    +0.000 A 
ATOM      8  O   UNL     1       0.785   3.878  19.971  0.00  0.00    +0.000 OA
ATOM      9  N   UNL     1       2.550   3.918  18.487  0.00  0.00    +0.000 N 
ATOM     10  C   UNL     1       1.696   4.579  17.503  0.00  0.00    +0.000 C 
ENDROOT
BRANCH   1  13
ATOM     11  C   UNL     1       5.087   5.154  16.704  0.00  0.00    +0.000 C 
ATOM     12  O   UNL     1       5.428   5.985  17.542  0.00  0.00    +0.000 OA
ATOM     13  N   UNL     1       4.406   3.977  16.967  0.00  0.00    +0.000 N 
ATOM     14  H   UNL     1       4.403   3.292  16.226  0.00  0.00    +0.000 HD
BRANCH  11  15
ATOM     15  C   UNL     1       5.423   5.365  15.241  0.00  0.00    +0.000 C 
BRANCH  15  17
ATOM     16  C   UNL     1       5.997   3.776  13.344  0.00  0.00    +0.000 C 
ATOM     17  C   UNL     1       6.405   4.330  14.704  0.00  0.00    +0.000 C 
ENDBRANCH  15  17
ENDBRANCH  11  15
ENDBRANCH   1  13
TORSDOF 3
ENDMDL
MODEL 5
REMARK VINA RESULT:      -6.1      2.739      3.458
REMARK  Name = 
REMARK  6 active torsions:
REMARK  status: ('A' for Active; 'I' for Inactive)
REMARK    1  A    between atoms: C_1  and  C_2
REMARK    2  A    between atoms: C_2  and  C_3
REMARK    3  A    between atoms: C_3  and  C_4
REMARK    4  A    between atoms: N_6  and  C_7
REMARK    5  A    between atoms: N_11  and  C_12
REMARK    6  A    between atoms: N_15  and  C_16
REMARK                            x       y       z     vdW  Elec       q    Type
REMARK                         _______ _______ _______ _____ _____    ______ ____
ROOT
ATOM      1  C   UNL     1       3.901   4.539  17.405  0.00  0.00    +0.000 A 
ATOM      2  C   UNL     1       3.623   5.795  17.780  0.00  0.00    +0.000 A 
ATOM      3  C   UNL     1       2.782   6.073  18.945  0.00  0.00    +0.000 A 
ATOM      4  O   UNL     1       2.570   7.243  19.257  0.00  0.00    +0.000 OA
ATOM      5  N   UNL     1       2.281   4.978  19.605  0.00  0.00    +0.000 N 
ATOM      6  C   UNL     1       1.463   5.193  20.783  0.00  0.00    +0.000 C 
ATOM      7  C   UNL     1       2.524   3.664  19.228  0.00  0.00    +0.000 A 
ATOM      8  O   UNL     1       2.034   2.718  19.849  0.00  0.00    +0.000 OA
ATOM      9  N   UNL     1       3.354   3.478  18.117  0.00  0.00    +0.000 N 
ATOM     10  C   UNL     1       3.686   2.097  17.776  0.00  0.00    +0.000 C 
ENDROOT
BRANCH   1  13
ATOM     11  C   UNL     1       6.083   4.335  16.258  0.00  0.00    +0.000 C 
ATOM     12  O   UNL     1       6.823   4.490  17.227  0.00  0.00    +0.000 OA
ATOM     13  N   UNL     1       4.700   4.286  16.301  0.00  0.00    +0.000 N 
ATOM     14  H   UNL     1       4.243   3.922  15.478  0.00  0.00    +0.000 HD
BRANCH  11  15
ATOM     15  C   UNL     1       6.668   4.160  14.872  0.00  0.00    +0.000 C 
BRANCH  15  17
ATOM     16  C   UNL     1       6.162   3.455  12.484  0.00  0.00    +0.000 C 
ATOM     17  C   UNL     1       5.602   3.992  13.795  0.00  0.00    +0.000 C 
ENDBRANCH  15  17
ENDBRANCH  11  15
ENDBRANCH   1  13
TORSDOF 3
ENDMDL
MODEL 6
REMARK VINA RESULT:      -6.1      1.699      2.022
REMARK  Name = 
REMARK  6 active torsions:
REMARK  status: ('A' for Active; 'I' for Inactive)
REMARK    1  A    between atoms: C_1  and  C_2
REMARK    2  A    between atoms: C_2  and  C_3
REMARK    3  A    between atoms: C_3  and  C_4
REMARK    4  A    between atoms: N_6  and  C_7
REMARK    5  A    between atoms: N_11  and  C_12
REMARK    6  A    between atoms: N_15  and  C_16
REMARK                            x       y       z     vdW  Elec       q    Type
REMARK                         _______ _______ _______ _____ _____    ______ ____
ROOT
ATOM      1  C   UNL     1       4.898   5.020  18.747  0.00  0.00    +0.000 A 
ATOM      2  C   UNL     1       5.065   3.765  19.186  0.00  0.00    +0.000 A 
ATOM      3  C   UNL     1       3.986   2.780  19.105  0.00  0.00    +0.000 A 
ATOM      4  O   UNL     1       4.195   1.638  19.507  0.00  0.00    +0.000 OA
ATOM      5  N   UNL     1       2.798   3.227  18.580  0.00  0.00    +0.000 N 
ATOM      6  C   UNL     1       1.701   2.288  18.450  0.00  0.00    +0.000 C 
ATOM      7  C   UNL     1       2.580   4.526  18.143  0.00  0.00    +0.000 A 
ATOM      8  O   UNL     1       1.486   4.877  17.695  0.00  0.00    +0.000 OA
ATOM      9  N   UNL     1       3.666   5.405  18.232  0.00  0.00    +0.000 N 
ATOM     10  C   UNL     1       3.467   6.744  17.687  0.00  0.00    +0.000 C 
ENDROOT
BRANCH   1  13
ATOM     11  C   UNL     1       6.961   6.106  17.919  0.00  0.00    +0.000 C 
ATOM     12  O   UNL     1       7.056   5.534  16.836  0.00  0.00    +0.000 OA
ATOM     13  N   UNL     1       5.927   5.945  18.826  0.00  0.00    +0.000 N 
ATOM     14  H   UNL     1       5.862   6.643  19.552  0.00  0.00    +0.000 HD
BRANCH  11  15
ATOM     15  C   UNL     1       8.022   7.096  18.354  0.00  0.00    +0.000 C 
BRANCH  15  17
ATOM     16  C   UNL     1       8.623   9.564  18.389  0.00  0.00    +0.000 C 
ATOM     17  C   UNL     1       7.895   8.445  17.655  0.00  0.00    +0.000 C 
ENDBRANCH  15  17
ENDBRANCH  11  15
ENDBRANCH   1  13
TORSDOF 3
ENDMDL
MODEL 7
REMARK VINA RESULT:      -6.0      2.643      3.860
REMARK  Name = 
REMARK  6 active torsions:
REMARK  status: ('A' for Active; 'I' for Inactive)
REMARK    1  A    between atoms: C_1  and  C_2
REMARK    2  A    between atoms: C_2  and  C_3
REMARK    3  A    between atoms: C_3  and  C_4
REMARK    4  A    between atoms: N_6  and  C_7
REMARK    5  A    between atoms: N_11  and  C_12
REMARK    6  A    between atoms: N_15  and  C_16
REMARK                            x       y       z     vdW  Elec       q    Type
REMARK                         _______ _______ _______ _____ _____    ______ ____
ROOT
ATOM      1  C   UNL     1       4.284   5.752  17.367  0.00  0.00    +0.000 A 
ATOM      2  C   UNL     1       3.784   6.976  17.150  0.00  0.00    +0.000 A 
ATOM      3  C   UNL     1       2.919   7.630  18.133  0.00  0.00    +0.000 A 
ATOM      4  O   UNL     1       2.499   8.760  17.893  0.00  0.00    +0.000 OA
ATOM      5  N   UNL     1       2.638   6.908  19.267  0.00  0.00    +0.000 N 
ATOM      6  C   UNL     1       1.808   7.518  20.288  0.00  0.00    +0.000 C 
ATOM      7  C   UNL     1       3.114   5.628  19.513  0.00  0.00    +0.000 A 
ATOM      8  O   UNL     1       2.815   5.019  20.542  0.00  0.00    +0.000 OA
ATOM      9  N   UNL     1       3.952   5.076  18.536  0.00  0.00    +0.000 N 
ATOM     10  C   UNL     1       4.529   3.769  18.836  0.00  0.00    +0.000 C 
ENDROOT
BRANCH   1  13
ATOM     11  C   UNL     1       6.365   5.559  16.045  0.00  0.00    +0.000 C 
ATOM     12  O   UNL     1       7.007   6.469  16.564  0.00  0.00    +0.000 OA
ATOM     13  N   UNL     1       5.103   5.141  16.431  0.00  0.00    +0.000 N 
ATOM     14  H   UNL     1       4.805   4.244  16.076  0.00  0.00    +0.000 HD
BRANCH  11  15
ATOM     15  C   UNL     1       6.953   4.776  14.889  0.00  0.00    +0.000 C 
BRANCH  15  17
ATOM     16  C   UNL     1       6.383   3.633  12.693  0.00  0.00    +0.000 C 
ATOM     17  C   UNL     1       5.896   4.031  14.080  0.00  0.00    +0.000 C 
ENDBRANCH  15  17
ENDBRANCH  11  15
ENDBRANCH   1  13
TORSDOF 3
ENDMDL
MODEL 8
REMARK VINA RESULT:      -6.0      1.311      2.358
REMARK  Name = 
REMARK  6 active torsions:
REMARK  status: ('A' for Active; 'I' for Inactive)
REMARK    1  A    between atoms: C_1  and  C_2
REMARK    2  A    between atoms: C_2  and  C_3
REMARK    3  A    between atoms: C_3  and  C_4
REMARK    4  A    between atoms: N_6  and  C_7
REMARK    5  A    between atoms: N_11  and  C_12
REMARK    6  A    between atoms: N_15  and  C_16
REMARK                            x       y       z     vdW  Elec       q    Type
REMARK                         _______ _______ _______ _____ _____    ______ ____
ROOT
ATOM      1  C   UNL     1       4.315   4.687  18.221  0.00  0.00    +0.000 A 
ATOM      2  C   UNL     1       4.405   3.360  18.063  0.00  0.00    +0.000 A 
ATOM      3  C   UNL     1       3.415   2.453  18.645  0.00  0.00    +0.000 A 
ATOM      4  O   UNL     1       3.534   1.245  18.457  0.00  0.00    +0.000 OA
ATOM      5  N   UNL     1       2.412   3.043  19.376  0.00  0.00    +0.000 N 
ATOM      6  C   UNL     1       1.387   2.196  19.954  0.00  0.00    +0.000 C 
ATOM      7  C   UNL     1       2.302   4.410  19.586  0.00  0.00    +0.000 A 
ATOM      8  O   UNL     1       1.390   4.884  20.266  0.00  0.00    +0.000 OA
ATOM      9  N   UNL     1       3.275   5.214  18.980  0.00  0.00    +0.000 N 
ATOM     10  C   UNL     1       3.109   6.658  19.121  0.00  0.00    +0.000 C 
ENDROOT
BRANCH   1  13
ATOM     11  C   UNL     1       6.526   5.793  18.156  0.00  0.00    +0.000 C 
ATOM     12  O   UNL     1       7.060   5.210  19.096  0.00  0.00    +0.000 OA
ATOM     13  N   UNL     1       5.257   5.537  17.665  0.00  0.00    +0.000 N 
ATOM     14  H   UNL     1       5.047   5.922  16.756  0.00  0.00    +0.000 HD
BRANCH  11  15
ATOM     15  C   UNL     1       7.270   6.887  17.416  0.00  0.00    +0.000 C 
BRANCH  15  17
ATOM     16  C   UNL     1       8.174   9.193  17.979  0.00  0.00    +0.000 C 
ATOM     17  C   UNL     1       8.172   7.710  18.328  0.00  0.00    +0.000 C 
ENDBRANCH  15  17
ENDBRANCH  11  15
ENDBRANCH   1  13
TORSDOF 3
ENDMDL
MODEL 9
REMARK VINA RESULT:      -5.9      1.295      1.313
REMARK  Name = 
REMARK  6 active torsions:
REMARK  status: ('A' for Active; 'I' for Inactive)
REMARK    1  A    between atoms: C_1  and  C_2
REMARK    2  A    between atoms: C_2  and  C_3
REMARK    3  A    between atoms: C_3  and  C_4
REMARK    4  A    between atoms: N_6  and  C_7
REMARK    5  A    between atoms: N_11  and  C_12
REMARK    6  A    between atoms: N_15  and  C_16
REMARK                            x       y       z     vdW  Elec       q    Type
REMARK                         _______ _______ _______ _____ _____    ______ ____
ROOT
ATOM      1  C   UNL     1       4.494   4.959  18.606  0.00  0.00    +0.000 A 
ATOM      2  C   UNL     1       3.819   5.355  19.693  0.00  0.00    +0.000 A 
ATOM      3  C   UNL     1       2.541   4.745  20.061  0.00  0.00    +0.000 A 
ATOM      4  O   UNL     1       1.970   5.133  21.077  0.00  0.00    +0.000 OA
ATOM      5  N   UNL     1       2.072   3.769  19.216  0.00  0.00    +0.000 N 
ATOM      6  C   UNL     1       0.823   3.110  19.545  0.00  0.00    +0.000 C 
ATOM      7  C   UNL     1       2.728   3.354  18.066  0.00  0.00    +0.000 A 
ATOM      8  O   UNL     1       2.251   2.484  17.334  0.00  0.00    +0.000 OA
ATOM      9  N   UNL     1       3.955   3.969  17.792  0.00  0.00    +0.000 N 
ATOM     10  C   UNL     1       4.692   3.468  16.635  0.00  0.00    +0.000 C 
ENDROOT
BRANCH   1  13
ATOM     11  C   UNL     1       5.902   6.544  17.332  0.00  0.00    +0.000 C 
ATOM     12  O   UNL     1       5.015   7.160  16.746  0.00  0.00    +0.000 OA
ATOM     13  N   UNL     1       5.705   5.542  18.267  0.00  0.00    +0.000 N 
ATOM     14  H   UNL     1       6.506   5.296  18.829  0.00  0.00    +0.000 HD
BRANCH  11  15
ATOM     15  C   UNL     1       7.358   6.870  17.067  0.00  0.00    +0.000 C 
BRANCH  15  17
ATOM     16  C   UNL     1       8.229   9.059  18.018  0.00  0.00    +0.000 C 
ATOM     17  C   UNL     1       8.033   7.565  18.245  0.00  0.00    +0.000 C 
ENDBRANCH  15  17
ENDBRANCH  11  15
ENDBRANCH   1  13
TORSDOF 3
ENDMDL
