MODEL 1
REMARK VINA RESULT:      -7.6      0.000      0.000
REMARK  Name = 
REMARK  3 active torsions:
REMARK  status: ('A' for Active; 'I' for Inactive)
REMARK    1  A    between atoms: C_2  and  C_3
REMARK    2  A    between atoms: C_5  and  S_6
REMARK    3  A    between atoms: S_6  and  N_9
REMARK                            x       y       z     vdW  Elec       q    Type
REMARK                         _______ _______ _______ _____ _____    ______ ____
ROOT
ATOM      1  C   UNL     1       2.809   5.509  18.489  0.00  0.00    +0.000 A 
ATOM      2  C   UNL     1       3.931   5.915  17.753  0.00  0.00    +0.000 A 
ATOM      3  C   UNL     1       4.582   5.059  16.862  0.00  0.00    +0.000 A 
ATOM      4  C   UNL     1       4.200   3.729  16.804  0.00  0.00    +0.000 A 
ATOM      5 CL   UNL     1       5.224   2.489  16.187  0.00  0.00    +0.000 Cl
ATOM      6  C   UNL     1       3.023   3.328  17.446  0.00  0.00    +0.000 A 
ATOM      7  C   UNL     1       2.312   4.215  18.267  0.00  0.00    +0.000 A 
ATOM      8 CL   UNL     1       0.853   3.612  18.973  0.00  0.00    +0.000 Cl
ENDROOT
BRANCH   1  10
ATOM      9  O   UNL     1       2.215   5.883  20.715  0.00  0.00    +0.000 OA
ATOM     10  C   UNL     1       2.284   6.375  19.590  0.00  0.00    +0.000 C 
ATOM     11  N   UNL     1       1.950   7.701  19.361  0.00  0.00    +0.000 N 
ATOM     12  C   UNL     1       1.499   8.535  20.460  0.00  0.00    +0.000 C 
ATOM     13  C   UNL     1       0.654   9.594  19.790  0.00  0.00    +0.000 C 
ATOM     14  C   UNL     1       1.368   9.828  18.469  0.00  0.00    +0.000 C 
ATOM     15  C   UNL     1       1.962   8.472  18.124  0.00  0.00    +0.000 C 
ENDBRANCH   1  10
BRANCH   3  16
ATOM     16  S   UNL     1       5.687   5.788  15.675  0.00  0.00    +0.000 S 
ATOM     17  O   UNL     1       5.812   4.834  14.594  0.00  0.00    +0.000 OA
ATOM     18  O   UNL     1       5.223   7.126  15.410  0.00  0.00    +0.000 OA
BRANCH  16  19
ATOM     19  N   UNL     1       7.174   5.924  16.450  0.00  0.00    +0.000 NA
ATOM     20  C   UNL     1       7.615   4.843  17.344  0.00  0.00    +0.000 C 
ATOM     21  C   UNL     1       7.629   5.447  18.733  0.00  0.00    +0.000 C 
ATOM     22  C   UNL     1       7.947   6.911  18.506  0.00  0.00    +0.000 C 
ATOM     23  C   UNL     1       7.437   7.228  17.107  0.00  0.00    +0.000 C 
ENDBRANCH  16  19
ENDBRANCH   3  16
TORSDOF 3
ENDMDL
MODEL 2
REMARK VINA RESULT:      -7.3      3.161      6.412
REMARK  Name = 
REMARK  3 active torsions:
REMARK  status: ('A' for Active; 'I' for Inactive)
REMARK    1  A    between atoms: C_2  and  C_3
REMARK    2  A    between atoms: C_5  and  S_6
REMARK    3  A    between atoms: S_6  and  N_9
REMARK                            x       y       z     vdW  Elec       q    Type
REMARK                         _______ _______ _______ _____ _____    ______ ____
ROOT
ATOM      1  C   UNL     1       6.077   4.925  16.995  0.00  0.00    +0.000 A 
ATOM      2  C   UNL     1       4.906   4.180  16.799  0.00  0.00    +0.000 A 
ATOM      3  C   UNL     1       4.227   3.574  17.858  0.00  0.00    +0.000 A 
ATOM      4  C   UNL     1       4.799   3.585  19.120  0.00  0.00    +0.000 A 
ATOM      5 CL   UNL     1       4.370   2.459  20.350  0.00  0.00    +0.000 Cl
ATOM      6  C   UNL     1       5.906   4.407  19.360  0.00  0.00    +0.000 A 
ATOM      7  C   UNL     1       6.533   5.096  18.312  0.00  0.00    +0.000 A 
ATOM      8 CL   UNL     1       7.866   6.109  18.743  0.00  0.00    +0.000 Cl
ENDROOT
BRANCH   1  10
ATOM      9  O   UNL     1       7.663   6.306  15.982  0.00  0.00    +0.000 OA
ATOM     10  C   UNL     1       6.889   5.364  15.818  0.00  0.00    +0.000 C 
ATOM     11  N   UNL     1       6.818   4.691  14.608  0.00  0.00    +0.000 N 
ATOM     12  C   UNL     1       7.661   5.102  13.499  0.00  0.00    +0.000 C 
ATOM     13  C   UNL     1       6.899   4.650  12.276  0.00  0.00    +0.000 C 
ATOM     14  C   UNL     1       6.251   3.350  12.726  0.00  0.00    +0.000 C 
ATOM     15  C   UNL     1       5.985   3.564  14.208  0.00  0.00    +0.000 C 
ENDBRANCH   1  10
BRANCH   3  16
ATOM     16  S   UNL     1       2.553   3.046  17.572  0.00  0.00    +0.000 S 
ATOM     17  O   UNL     1       2.316   3.192  16.152  0.00  0.00    +0.000 OA
ATOM     18  O   UNL     1       2.385   1.764  18.207  0.00  0.00    +0.000 OA
BRANCH  16  19
ATOM     19  N   UNL     1       1.576   4.140  18.397  0.00  0.00    +0.000 NA
ATOM     20  C   UNL     1       1.996   5.547  18.485  0.00  0.00    +0.000 C 
ATOM     21  C   UNL     1       2.295   5.788  19.951  0.00  0.00    +0.000 C 
ATOM     22  C   UNL     1       1.361   4.850  20.688  0.00  0.00    +0.000 C 
ATOM     23  C   UNL     1       1.102   3.696  19.730  0.00  0.00    +0.000 C 
ENDBRANCH  16  19
ENDBRANCH   3  16
TORSDOF 3
ENDMDL
MODEL 3
REMARK VINA RESULT:      -6.9      3.204      6.451
REMARK  Name = 
REMARK  3 active torsions:
REMARK  status: ('A' for Active; 'I' for Inactive)
REMARK    1  A    between atoms: C_2  and  C_3
REMARK    2  A    between atoms: C_5  and  S_6
REMARK    3  A    between atoms: S_6  and  N_9
REMARK                            x       y       z     vdW  Elec       q    Type
REMARK                         _______ _______ _______ _____ _____    ______ ____
ROOT
ATOM      1  C   UNL     1       5.205   5.312  17.783  0.00  0.00    +0.000 A 
ATOM      2  C   UNL     1       5.119   4.215  18.653  0.00  0.00    +0.000 A 
ATOM      3  C   UNL     1       4.108   4.105  19.609  0.00  0.00    +0.000 A 
ATOM      4  C   UNL     1       3.247   5.174  19.806  0.00  0.00    +0.000 A 
ATOM      5 CL   UNL     1       2.345   5.391  21.257  0.00  0.00    +0.000 Cl
ATOM      6  C   UNL     1       3.247   6.229  18.887  0.00  0.00    +0.000 A 
ATOM      7  C   UNL     1       4.203   6.292  17.863  0.00  0.00    +0.000 A 
ATOM      8 CL   UNL     1       4.074   7.624  16.767  0.00  0.00    +0.000 Cl
ENDROOT
BRANCH   1  10
ATOM      9  O   UNL     1       7.358   6.136  17.415  0.00  0.00    +0.000 OA
ATOM     10  C   UNL     1       6.422   5.498  16.934  0.00  0.00    +0.000 C 
ATOM     11  N   UNL     1       6.515   4.919  15.678  0.00  0.00    +0.000 N 
ATOM     12  C   UNL     1       7.731   5.066  14.899  0.00  0.00    +0.000 C 
ATOM     13  C   UNL     1       7.267   4.919  13.469  0.00  0.00    +0.000 C 
ATOM     14  C   UNL     1       6.157   3.885  13.565  0.00  0.00    +0.000 C 
ATOM     15  C   UNL     1       5.540   4.132  14.933  0.00  0.00    +0.000 C 
ENDBRANCH   1  10
BRANCH   3  16
ATOM     16  S   UNL     1       3.829   2.507  20.337  0.00  0.00    +0.000 S 
ATOM     17  O   UNL     1       5.025   1.732  20.088  0.00  0.00    +0.000 OA
ATOM     18  O   UNL     1       3.369   2.716  21.686  0.00  0.00    +0.000 OA
BRANCH  16  19
ATOM     19  N   UNL     1       2.554   1.824  19.479  0.00  0.00    +0.000 NA
ATOM     20  C   UNL     1       2.555   1.907  18.011  0.00  0.00    +0.000 C 
ATOM     21  C   UNL     1       1.388   2.805  17.656  0.00  0.00    +0.000 C 
ATOM     22  C   UNL     1       0.380   2.572  18.762  0.00  0.00    +0.000 C 
ATOM     23  C   UNL     1       1.196   2.155  19.977  0.00  0.00    +0.000 C 
ENDBRANCH  16  19
ENDBRANCH   3  16
TORSDOF 3
ENDMDL
MODEL 4
REMARK VINA RESULT:      -6.6      3.239      4.643
REMARK  Name = 
REMARK  3 active torsions:
REMARK  status: ('A' for Active; 'I' for Inactive)
REMARK    1  A    between atoms: C_2  and  C_3
REMARK    2  A    between atoms: C_5  and  S_6
REMARK    3  A    between atoms: S_6  and  N_9
REMARK                            x       y       z     vdW  Elec       q    Type
REMARK                         _______ _______ _______ _____ _____    ______ ____
ROOT
ATOM      1  C   UNL     1       3.063   4.785  17.869  0.00  0.00    +0.000 A 
ATOM      2  C   UNL     1       3.942   4.218  16.935  0.00  0.00    +0.000 A 
ATOM      3  C   UNL     1       4.889   4.982  16.250  0.00  0.00    +0.000 A 
ATOM      4  C   UNL     1       4.870   6.361  16.388  0.00  0.00    +0.000 A 
ATOM      5 CL   UNL     1       5.583   7.424  15.236  0.00  0.00    +0.000 Cl
ATOM      6  C   UNL     1       4.077   6.936  17.387  0.00  0.00    +0.000 A 
ATOM      7  C   UNL     1       3.193   6.155  18.145  0.00  0.00    +0.000 A 
ATOM      8 CL   UNL     1       2.299   6.976  19.376  0.00  0.00    +0.000 Cl
ENDROOT
BRANCH   1  10
ATOM      9  O   UNL     1       0.922   3.871  17.704  0.00  0.00    +0.000 OA
ATOM     10  C   UNL     1       1.924   3.979  18.408  0.00  0.00    +0.000 C 
ATOM     11  N   UNL     1       2.022   3.325  19.627  0.00  0.00    +0.000 N 
ATOM     12  C   UNL     1       0.924   2.501  20.099  0.00  0.00    +0.000 C 
ATOM     13  C   UNL     1       1.080   2.513  21.601  0.00  0.00    +0.000 C 
ATOM     14  C   UNL     1       2.587   2.532  21.798  0.00  0.00    +0.000 C 
ATOM     15  C   UNL     1       3.105   3.315  20.602  0.00  0.00    +0.000 C 
ENDBRANCH   1  10
BRANCH   3  16
ATOM     16  S   UNL     1       6.220   4.121  15.445  0.00  0.00    +0.000 S 
ATOM     17  O   UNL     1       7.446   4.700  15.951  0.00  0.00    +0.000 OA
ATOM     18  O   UNL     1       5.975   2.708  15.587  0.00  0.00    +0.000 OA
BRANCH  16  19
ATOM     19  N   UNL     1       6.084   4.486  13.809  0.00  0.00    +0.000 NA
ATOM     20  C   UNL     1       5.238   3.639  12.955  0.00  0.00    +0.000 C 
ATOM     21  C   UNL     1       6.190   2.948  12.001  0.00  0.00    +0.000 C 
ATOM     22  C   UNL     1       7.329   3.930  11.823  0.00  0.00    +0.000 C 
ATOM     23  C   UNL     1       7.363   4.753  13.104  0.00  0.00    +0.000 C 
ENDBRANCH  16  19
ENDBRANCH   3  16
TORSDOF 3
ENDMDL
MODEL 5
REMARK VINA RESULT:      -6.5      2.134      2.641
REMARK  Name = 
REMARK  3 active torsions:
REMARK  status: ('A' for Active; 'I' for Inactive)
REMARK    1  A    between atoms: C_2  and  C_3
REMARK    2  A    between atoms: C_5  and  S_6
REMARK    3  A    between atoms: S_6  and  N_9
REMARK                            x       y       z     vdW  Elec       q    Type
REMARK                         _______ _______ _______ _____ _____    ______ ____
ROOT
ATOM      1  C   UNL     1       2.552   5.931  19.804  0.00  0.00    +0.000 A 
ATOM      2  C   UNL     1       3.892   6.066  19.412  0.00  0.00    +0.000 A 
ATOM      3  C   UNL     1       4.710   4.960  19.173  0.00  0.00    +0.000 A 
ATOM      4  C   UNL     1       4.233   3.693  19.468  0.00  0.00    +0.000 A 
ATOM      5 CL   UNL     1       5.269   2.343  19.736  0.00  0.00    +0.000 Cl
ATOM      6  C   UNL     1       2.873   3.525  19.758  0.00  0.00    +0.000 A 
ATOM      7  C   UNL     1       2.026   4.633  19.903  0.00  0.00    +0.000 A 
ATOM      8 CL   UNL     1       0.360   4.294  20.221  0.00  0.00    +0.000 Cl
ENDROOT
BRANCH   1  10
ATOM      9  O   UNL     1       1.282   7.085  21.385  0.00  0.00    +0.000 OA
ATOM     10  C   UNL     1       1.784   7.129  20.263  0.00  0.00    +0.000 C 
ATOM     11  N   UNL     1       1.695   8.267  19.478  0.00  0.00    +0.000 N 
ATOM     12  C   UNL     1       0.992   9.438  19.973  0.00  0.00    +0.000 C 
ATOM     13  C   UNL     1       0.547  10.153  18.719  0.00  0.00    +0.000 C 
ATOM     14  C   UNL     1       1.689   9.901  17.747  0.00  0.00    +0.000 C 
ATOM     15  C   UNL     1       2.212   8.528  18.140  0.00  0.00    +0.000 C 
ENDBRANCH   1  10
BRANCH   3  16
ATOM     16  S   UNL     1       6.217   5.227  18.269  0.00  0.00    +0.000 S 
ATOM     17  O   UNL     1       6.201   6.611  17.848  0.00  0.00    +0.000 OA
ATOM     18  O   UNL     1       7.303   4.727  19.074  0.00  0.00    +0.000 OA
BRANCH  16  19
ATOM     19  N   UNL     1       6.119   4.246  16.906  0.00  0.00    +0.000 NA
ATOM     20  C   UNL     1       7.261   4.190  15.982  0.00  0.00    +0.000 C 
ATOM     21  C   UNL     1       6.771   4.824  14.696  0.00  0.00    +0.000 C 
ATOM     22  C   UNL     1       5.288   4.516  14.661  0.00  0.00    +0.000 C 
ATOM     23  C   UNL     1       4.868   4.370  16.118  0.00  0.00    +0.000 C 
ENDBRANCH  16  19
ENDBRANCH   3  16
TORSDOF 3
ENDMDL
MODEL 6
REMARK VINA RESULT:      -6.5      3.563      6.873
REMARK  Name = 
REMARK  3 active torsions:
REMARK  status: ('A' for Active; 'I' for Inactive)
REMARK    1  A    between atoms: C_2  and  C_3
REMARK    2  A    between atoms: C_5  and  S_6
REMARK    3  A    between atoms: S_6  and  N_9
REMARK                            x       y       z     vdW  Elec       q    Type
REMARK                         _______ _______ _______ _____ _____    ______ ____
ROOT
ATOM      1  C   UNL     1       5.600   4.908  15.924  0.00  0.00    +0.000 A 
ATOM      2  C   UNL     1       5.387   4.008  16.979  0.00  0.00    +0.000 A 
ATOM      3  C   UNL     1       4.587   4.330  18.077  0.00  0.00    +0.000 A 
ATOM      4  C   UNL     1       4.104   5.623  18.204  0.00  0.00    +0.000 A 
ATOM      5 CL   UNL     1       3.590   6.285  19.708  0.00  0.00    +0.000 Cl
ATOM      6  C   UNL     1       4.215   6.502  17.120  0.00  0.00    +0.000 A 
ATOM      7  C   UNL     1       4.938   6.145  15.973  0.00  0.00    +0.000 A 
ATOM      8 CL   UNL     1       4.968   7.301  14.688  0.00  0.00    +0.000 Cl
ENDROOT
BRANCH   1  10
ATOM      9  O   UNL     1       7.805   4.878  15.159  0.00  0.00    +0.000 OA
ATOM     10  C   UNL     1       6.636   4.610  14.887  0.00  0.00    +0.000 C 
ATOM     11  N   UNL     1       6.296   3.997  13.691  0.00  0.00    +0.000 N 
ATOM     12  C   UNL     1       7.330   3.666  12.726  0.00  0.00    +0.000 C 
ATOM     13  C   UNL     1       6.601   3.653  11.403  0.00  0.00    +0.000 C 
ATOM     14  C   UNL     1       5.232   3.099  11.762  0.00  0.00    +0.000 C 
ATOM     15  C   UNL     1       4.992   3.597  13.178  0.00  0.00    +0.000 C 
ENDBRANCH   1  10
BRANCH   3  16
ATOM     16  S   UNL     1       4.028   2.997  19.112  0.00  0.00    +0.000 S 
ATOM     17  O   UNL     1       3.530   1.970  18.221  0.00  0.00    +0.000 OA
ATOM     18  O   UNL     1       5.085   2.696  20.045  0.00  0.00    +0.000 OA
BRANCH  16  19
ATOM     19  N   UNL     1       2.740   3.610  20.002  0.00  0.00    +0.000 NA
ATOM     20  C   UNL     1       2.649   3.297  21.436  0.00  0.00    +0.000 C 
ATOM     21  C   UNL     1       1.418   2.426  21.582  0.00  0.00    +0.000 C 
ATOM     22  C   UNL     1       0.492   2.889  20.478  0.00  0.00    +0.000 C 
ATOM     23  C   UNL     1       1.400   3.443  19.388  0.00  0.00    +0.000 C 
ENDBRANCH  16  19
ENDBRANCH   3  16
TORSDOF 3
ENDMDL
MODEL 7
REMARK VINA RESULT:      -6.5      3.431      6.732
REMARK  Name = 
REMARK  3 active torsions:
REMARK  status: ('A' for Active; 'I' for Inactive)
REMARK    1  A    between atoms: C_2  and  C_3
REMARK    2  A    between atoms: C_5  and  S_6
REMARK    3  A    between atoms: S_6  and  N_9
REMARK                            x       y       z     vdW  Elec       q    Type
REMARK                         _______ _______ _______ _____ _____    ______ ____
ROOT
ATOM      1  C   UNL     1       5.542   4.578  16.579  0.00  0.00    +0.000 A 
ATOM      2  C   UNL     1       5.386   3.572  17.545  0.00  0.00    +0.000 A 
ATOM      3  C   UNL     1       4.528   3.719  18.636  0.00  0.00    +0.000 A 
ATOM      4  C   UNL     1       3.919   4.945  18.855  0.00  0.00    +0.000 A 
ATOM      5 CL   UNL     1       3.301   5.420  20.391  0.00  0.00    +0.000 Cl
ATOM      6  C   UNL     1       3.976   5.923  17.855  0.00  0.00    +0.000 A 
ATOM      7  C   UNL     1       4.762   5.738  16.709  0.00  0.00    +0.000 A 
ATOM      8 CL   UNL     1       4.717   7.002  15.530  0.00  0.00    +0.000 Cl
ENDROOT
BRANCH   1  10
ATOM      9  O   UNL     1       7.780   4.706  15.929  0.00  0.00    +0.000 OA
ATOM     10  C   UNL     1       6.630   4.472  15.559  0.00  0.00    +0.000 C 
ATOM     11  N   UNL     1       6.359   4.063  14.263  0.00  0.00    +0.000 N 
ATOM     12  C   UNL     1       7.444   3.912  13.309  0.00  0.00    +0.000 C 
ATOM     13  C   UNL     1       6.777   4.110  11.967  0.00  0.00    +0.000 C 
ATOM     14  C   UNL     1       5.405   3.486  12.161  0.00  0.00    +0.000 C 
ATOM     15  C   UNL     1       5.089   3.736  13.627  0.00  0.00    +0.000 C 
ENDBRANCH   1  10
BRANCH   3  16
ATOM     16  S   UNL     1       4.071   2.253  19.532  0.00  0.00    +0.000 S 
ATOM     17  O   UNL     1       4.774   1.155  18.902  0.00  0.00    +0.000 OA
ATOM     18  O   UNL     1       4.257   2.522  20.935  0.00  0.00    +0.000 OA
BRANCH  16  19
ATOM     19  N   UNL     1       2.420   2.052  19.279  0.00  0.00    +0.000 NA
ATOM     20  C   UNL     1       1.838   2.471  17.996  0.00  0.00    +0.000 C 
ATOM     21  C   UNL     1       0.930   3.638  18.327  0.00  0.00    +0.000 C 
ATOM     22  C   UNL     1       0.449   3.359  19.736  0.00  0.00    +0.000 C 
ATOM     23  C   UNL     1       1.543   2.519  20.381  0.00  0.00    +0.000 C 
ENDBRANCH  16  19
ENDBRANCH   3  16
TORSDOF 3
ENDMDL
MODEL 8
REMARK VINA RESULT:      -6.4      7.965     12.364
REMARK  Name = 
REMARK  3 active torsions:
REMARK  status: ('A' for Active; 'I' for Inactive)
REMARK    1  A    between atoms: C_2  and  C_3
REMARK    2  A    between atoms: C_5  and  S_6
REMARK    3  A    between atoms: S_6  and  N_9
REMARK                            x       y       z     vdW  Elec       q    Type
REMARK                         _______ _______ _______ _____ _____    ______ ____
ROOT
ATOM      1  C   UNL     1      -1.425  12.326  22.620  0.00  0.00    +0.000 A 
ATOM      2  C   UNL     1      -2.739  12.165  23.082  0.00  0.00    +0.000 A 
ATOM      3  C   UNL     1      -3.474  13.227  23.613  0.00  0.00    +0.000 A 
ATOM      4  C   UNL     1      -2.845  14.443  23.823  0.00  0.00    +0.000 A 
ATOM      5 CL   UNL     1      -3.440  15.624  24.926  0.00  0.00    +0.000 Cl
ATOM      6  C   UNL     1      -1.575  14.658  23.276  0.00  0.00    +0.000 A 
ATOM      7  C   UNL     1      -0.872  13.616  22.655  0.00  0.00    +0.000 A 
ATOM      8 CL   UNL     1       0.671  14.017  21.985  0.00  0.00    +0.000 Cl
ENDROOT
BRANCH   1  10
ATOM      9  O   UNL     1      -0.093  10.499  23.199  0.00  0.00    +0.000 OA
ATOM     10  C   UNL     1      -0.603  11.126  22.272  0.00  0.00    +0.000 C 
ATOM     11  N   UNL     1      -0.474  10.703  20.959  0.00  0.00    +0.000 N 
ATOM     12  C   UNL     1       0.281   9.500  20.655  0.00  0.00    +0.000 C 
ATOM     13  C   UNL     1       0.744   9.711  19.232  0.00  0.00    +0.000 C 
ATOM     14  C   UNL     1      -0.417  10.456  18.593  0.00  0.00    +0.000 C 
ATOM     15  C   UNL     1      -0.992  11.287  19.728  0.00  0.00    +0.000 C 
ENDBRANCH   1  10
BRANCH   3  16
ATOM     16  S   UNL     1      -5.236  13.026  23.749  0.00  0.00    +0.000 S 
ATOM     17  O   UNL     1      -5.454  12.010  24.756  0.00  0.00    +0.000 OA
ATOM     18  O   UNL     1      -5.814  14.336  23.904  0.00  0.00    +0.000 OA
BRANCH  16  19
ATOM     19  N   UNL     1      -5.749  12.430  22.261  0.00  0.00    +0.000 NA
ATOM     20  C   UNL     1      -5.293  13.093  21.031  0.00  0.00    +0.000 C 
ATOM     21  C   UNL     1      -6.535  13.709  20.419  0.00  0.00    +0.000 C 
ATOM     22  C   UNL     1      -7.663  12.791  20.843  0.00  0.00    +0.000 C 
ATOM     23  C   UNL     1      -7.203  12.156  22.149  0.00  0.00    +0.000 C 
ENDBRANCH  16  19
ENDBRANCH   3  16
TORSDOF 3
ENDMDL
MODEL 9
REMARK VINA RESULT:      -6.4      3.130      6.247
REMARK  Name = 
REMARK  3 active torsions:
REMARK  status: ('A' for Active; 'I' for Inactive)
REMARK    1  A    between atoms: C_2  and  C_3
REMARK    2  A    between atoms: C_5  and  S_6
REMARK    3  A    between atoms: S_6  and  N_9
REMARK                            x       y       z     vdW  Elec       q    Type
REMARK                         _______ _______ _______ _____ _____    ______ ____
ROOT
ATOM      1  C   UNL     1       4.499   5.571  18.413  0.00  0.00    +0.000 A 
ATOM      2  C   UNL     1       4.064   4.604  19.331  0.00  0.00    +0.000 A 
ATOM      3  C   UNL     1       2.890   4.761  20.071  0.00  0.00    +0.000 A 
ATOM      4  C   UNL     1       2.209   5.966  20.007  0.00  0.00    +0.000 A 
ATOM      5 CL   UNL     1       1.107   6.481  21.226  0.00  0.00    +0.000 Cl
ATOM      6  C   UNL     1       2.563   6.899  19.026  0.00  0.00    +0.000 A 
ATOM      7  C   UNL     1       3.687   6.698  18.212  0.00  0.00    +0.000 A 
ATOM      8 CL   UNL     1       3.996   7.903  17.012  0.00  0.00    +0.000 Cl
ENDROOT
BRANCH   1  10
ATOM      9  O   UNL     1       6.816   5.839  18.499  0.00  0.00    +0.000 OA
ATOM     10  C   UNL     1       5.865   5.469  17.812  0.00  0.00    +0.000 C 
ATOM     11  N   UNL     1       6.056   4.918  16.555  0.00  0.00    +0.000 N 
ATOM     12  C   UNL     1       7.398   4.776  16.020  0.00  0.00    +0.000 C 
ATOM     13  C   UNL     1       7.196   4.787  14.523  0.00  0.00    +0.000 C 
ATOM     14  C   UNL     1       5.873   4.062  14.342  0.00  0.00    +0.000 C 
ATOM     15  C   UNL     1       5.083   4.419  15.591  0.00  0.00    +0.000 C 
ENDBRANCH   1  10
BRANCH   3  16
ATOM     16  S   UNL     1       2.207   3.317  20.852  0.00  0.00    +0.000 S 
ATOM     17  O   UNL     1       3.173   2.894  21.844  0.00  0.00    +0.000 OA
ATOM     18  O   UNL     1       0.857   3.631  21.244  0.00  0.00    +0.000 OA
BRANCH  16  19
ATOM     19  N   UNL     1       2.115   2.142  19.652  0.00  0.00    +0.000 NA
ATOM     20  C   UNL     1       3.322   1.374  19.311  0.00  0.00    +0.000 C 
ATOM     21  C   UNL     1       3.677   1.786  17.897  0.00  0.00    +0.000 C 
ATOM     22  C   UNL     1       2.347   2.124  17.255  0.00  0.00    +0.000 C 
ATOM     23  C   UNL     1       1.440   2.559  18.399  0.00  0.00    +0.000 C 
ENDBRANCH  16  19
ENDBRANCH   3  16
TORSDOF 3
ENDMDL
