MODEL 1
REMARK VINA RESULT:      -7.3      0.000      0.000
REMARK  Name = 
REMARK  3 active torsions:
REMARK  status: ('A' for Active; 'I' for Inactive)
REMARK    1  A    between atoms: C_2  and  C_3
REMARK    2  A    between atoms: C_2  and  C_14
REMARK    3  A    between atoms: C_3  and  N_4
REMARK                            x       y       z     vdW  Elec       q    Type
REMARK                         _______ _______ _______ _____ _____    ______ ____
ROOT
ATOM      1  C   UNL     1       4.171   5.773  19.375  0.00  0.00    +0.000 C 
ENDROOT
BRANCH   1   2
ATOM      2  N   UNL     1       3.225   4.578  19.621  0.00  0.00    +0.000 N 
ATOM      3  C   UNL     1       3.960   3.300  19.855  0.00  0.00    +0.000 C 
ATOM      4  N   UNL     1       3.035   2.232  20.151  0.00  0.00    +0.000 NA
ATOM      5  C   UNL     1       2.259   2.548  21.337  0.00  0.00    +0.000 C 
ATOM      6  N   UNL     1       1.500   3.766  21.108  0.00  0.00    +0.000 NA
ATOM      7  C   UNL     1       0.603   3.575  19.980  0.00  0.00    +0.000 C 
ATOM      8  N   UNL     1       1.380   3.261  18.793  0.00  0.00    +0.000 NA
ATOM      9  C   UNL     1       2.138   2.039  19.021  0.00  0.00    +0.000 C 
ATOM     10  C   UNL     1       2.287   4.342  18.485  0.00  0.00    +0.000 C 
ATOM     11  C   UNL     1       2.402   4.851  20.832  0.00  0.00    +0.000 C 
ENDBRANCH   1   2
BRANCH   1  13
ATOM     12  O   UNL     1       6.522   5.382  19.730  0.00  0.00    +0.000 OA
ATOM     13  C   UNL     1       5.594   5.455  18.928  0.00  0.00    +0.000 C 
BRANCH  13  14
ATOM     14  C   UNL     1       5.851   5.222  17.473  0.00  0.00    +0.000 A 
ATOM     15  C   UNL     1       6.971   4.457  17.112  0.00  0.00    +0.000 A 
ATOM     16  C   UNL     1       7.254   4.203  15.766  0.00  0.00    +0.000 A 
ATOM     17  C   UNL     1       6.420   4.715  14.777  0.00  0.00    +0.000 A 
ATOM     18 BR   UNL     1       6.795   4.372  12.958  0.00  0.00    +0.000 Br
ATOM     19  C   UNL     1       5.307   5.479  15.121  0.00  0.00    +0.000 A 
ATOM     20  C   UNL     1       5.019   5.735  16.468  0.00  0.00    +0.000 A 
ENDBRANCH  13  14
ENDBRANCH   1  13
TORSDOF 3
ENDMDL
MODEL 2
REMARK VINA RESULT:      -7.3      0.750      1.079
REMARK  Name = 
REMARK  3 active torsions:
REMARK  status: ('A' for Active; 'I' for Inactive)
REMARK    1  A    between atoms: C_2  and  C_3
REMARK    2  A    between atoms: C_2  and  C_14
REMARK    3  A    between atoms: C_3  and  N_4
REMARK                            x       y       z     vdW  Elec       q    Type
REMARK                         _______ _______ _______ _____ _____    ______ ____
ROOT
ATOM      1  C   UNL     1       4.255   5.583  18.763  0.00  0.00    +0.000 C 
ENDROOT
BRANCH   1   2
ATOM      2  N   UNL     1       3.282   4.516  19.305  0.00  0.00    +0.000 N 
ATOM      3  C   UNL     1       3.955   3.218  19.601  0.00  0.00    +0.000 C 
ATOM      4  N   UNL     1       3.018   2.280  20.173  0.00  0.00    +0.000 NA
ATOM      5  C   UNL     1       2.461   2.808  21.405  0.00  0.00    +0.000 C 
ATOM      6  N   UNL     1       1.760   4.050  21.126  0.00  0.00    +0.000 NA
ATOM      7  C   UNL     1       0.687   3.800  20.178  0.00  0.00    +0.000 C 
ATOM      8  N   UNL     1       1.244   3.273  18.945  0.00  0.00    +0.000 NA
ATOM      9  C   UNL     1       1.944   2.028  19.224  0.00  0.00    +0.000 C 
ATOM     10  C   UNL     1       2.162   4.224  18.363  0.00  0.00    +0.000 C 
ATOM     11  C   UNL     1       2.679   5.009  20.575  0.00  0.00    +0.000 C 
ENDBRANCH   1   2
BRANCH   1  13
ATOM     12  O   UNL     1       6.548   4.982  19.199  0.00  0.00    +0.000 OA
ATOM     13  C   UNL     1       5.652   5.116  18.368  0.00  0.00    +0.000 C 
BRANCH  13  14
ATOM     14  C   UNL     1       5.924   4.810  16.929  0.00  0.00    +0.000 A 
ATOM     15  C   UNL     1       4.955   4.095  16.209  0.00  0.00    +0.000 A 
ATOM     16  C   UNL     1       5.155   3.789  14.859  0.00  0.00    +0.000 A 
ATOM     17  C   UNL     1       6.326   4.194  14.226  0.00  0.00    +0.000 A 
ATOM     18 BR   UNL     1       6.600   3.787  12.402  0.00  0.00    +0.000 Br
ATOM     19  C   UNL     1       7.298   4.902  14.930  0.00  0.00    +0.000 A 
ATOM     20  C   UNL     1       7.101   5.212  16.281  0.00  0.00    +0.000 A 
ENDBRANCH  13  14
ENDBRANCH   1  13
TORSDOF 3
ENDMDL
MODEL 3
REMARK VINA RESULT:      -7.2      0.729      1.791
REMARK  Name = 
REMARK  3 active torsions:
REMARK  status: ('A' for Active; 'I' for Inactive)
REMARK    1  A    between atoms: C_2  and  C_3
REMARK    2  A    between atoms: C_2  and  C_14
REMARK    3  A    between atoms: C_3  and  N_4
REMARK                            x       y       z     vdW  Elec       q    Type
REMARK                         _______ _______ _______ _____ _____    ______ ____
ROOT
ATOM      1  C   UNL     1       4.372   5.611  18.925  0.00  0.00    +0.000 C 
ENDROOT
BRANCH   1   2
ATOM      2  N   UNL     1       3.322   4.599  19.428  0.00  0.00    +0.000 N 
ATOM      3  C   UNL     1       2.218   4.378  18.449  0.00  0.00    +0.000 C 
ATOM      4  N   UNL     1       1.304   3.371  18.934  0.00  0.00    +0.000 NA
ATOM      5  C   UNL     1       1.999   2.114  19.143  0.00  0.00    +0.000 C 
ATOM      6  N   UNL     1       3.049   2.301  20.131  0.00  0.00    +0.000 NA
ATOM      7  C   UNL     1       2.463   2.743  21.385  0.00  0.00    +0.000 C 
ATOM      8  N   UNL     1       1.768   4.002  21.176  0.00  0.00    +0.000 NA
ATOM      9  C   UNL     1       0.715   3.815  20.189  0.00  0.00    +0.000 C 
ATOM     10  C   UNL     1       2.690   5.014  20.714  0.00  0.00    +0.000 C 
ATOM     11  C   UNL     1       3.985   3.285  19.660  0.00  0.00    +0.000 C 
ENDBRANCH   1   2
BRANCH   1  13
ATOM     12  O   UNL     1       6.636   4.848  19.241  0.00  0.00    +0.000 OA
ATOM     13  C   UNL     1       5.711   5.052  18.458  0.00  0.00    +0.000 C 
BRANCH  13  14
ATOM     14  C   UNL     1       5.890   4.743  17.005  0.00  0.00    +0.000 A 
ATOM     15  C   UNL     1       7.075   5.160  16.379  0.00  0.00    +0.000 A 
ATOM     16  C   UNL     1       7.296   4.891  15.025  0.00  0.00    +0.000 A 
ATOM     17  C   UNL     1       6.332   4.205  14.291  0.00  0.00    +0.000 A 
ATOM     18 BR   UNL     1       6.627   3.835  12.463  0.00  0.00    +0.000 Br
ATOM     19  C   UNL     1       5.150   3.787  14.899  0.00  0.00    +0.000 A 
ATOM     20  C   UNL     1       4.925   4.054  16.255  0.00  0.00    +0.000 A 
ENDBRANCH  13  14
ENDBRANCH   1  13
TORSDOF 3
ENDMDL
MODEL 4
REMARK VINA RESULT:      -7.2      0.254      1.584
REMARK  Name = 
REMARK  3 active torsions:
REMARK  status: ('A' for Active; 'I' for Inactive)
REMARK    1  A    between atoms: C_2  and  C_3
REMARK    2  A    between atoms: C_2  and  C_14
REMARK    3  A    between atoms: C_3  and  N_4
REMARK                            x       y       z     vdW  Elec       q    Type
REMARK                         _______ _______ _______ _____ _____    ______ ____
ROOT
ATOM      1  C   UNL     1       4.169   5.727  19.354  0.00  0.00    +0.000 C 
ENDROOT
BRANCH   1   2
ATOM      2  N   UNL     1       3.208   4.570  19.696  0.00  0.00    +0.000 N 
ATOM      3  C   UNL     1       2.450   4.805  20.960  0.00  0.00    +0.000 C 
ATOM      4  N   UNL     1       1.514   3.731  21.197  0.00  0.00    +0.000 NA
ATOM      5  C   UNL     1       0.569   3.632  20.099  0.00  0.00    +0.000 C 
ATOM      6  N   UNL     1       1.288   3.356  18.866  0.00  0.00    +0.000 NA
ATOM      7  C   UNL     1       2.012   2.102  18.995  0.00  0.00    +0.000 C 
ATOM      8  N   UNL     1       2.958   2.202  20.093  0.00  0.00    +0.000 NA
ATOM      9  C   UNL     1       2.239   2.476  21.328  0.00  0.00    +0.000 C 
ATOM     10  C   UNL     1       3.908   3.261  19.842  0.00  0.00    +0.000 C 
ATOM     11  C   UNL     1       2.212   4.424  18.597  0.00  0.00    +0.000 C 
ENDBRANCH   1   2
BRANCH   1  13
ATOM     12  O   UNL     1       6.514   5.288  19.692  0.00  0.00    +0.000 OA
ATOM     13  C   UNL     1       5.576   5.354  18.901  0.00  0.00    +0.000 C 
BRANCH  13  14
ATOM     14  C   UNL     1       5.806   5.056  17.453  0.00  0.00    +0.000 A 
ATOM     15  C   UNL     1       7.090   4.653  17.054  0.00  0.00    +0.000 A 
ATOM     16  C   UNL     1       7.357   4.355  15.715  0.00  0.00    +0.000 A 
ATOM     17  C   UNL     1       6.342   4.461  14.768  0.00  0.00    +0.000 A 
ATOM     18 BR   UNL     1       6.697   4.056  12.958  0.00  0.00    +0.000 Br
ATOM     19  C   UNL     1       5.064   4.862  15.149  0.00  0.00    +0.000 A 
ATOM     20  C   UNL     1       4.792   5.160  16.490  0.00  0.00    +0.000 A 
ENDBRANCH  13  14
ENDBRANCH   1  13
TORSDOF 3
ENDMDL
MODEL 5
REMARK VINA RESULT:      -7.2      0.773      1.966
REMARK  Name = 
REMARK  3 active torsions:
REMARK  status: ('A' for Active; 'I' for Inactive)
REMARK    1  A    between atoms: C_2  and  C_3
REMARK    2  A    between atoms: C_2  and  C_14
REMARK    3  A    between atoms: C_3  and  N_4
REMARK                            x       y       z     vdW  Elec       q    Type
REMARK                         _______ _______ _______ _____ _____    ______ ____
ROOT
ATOM      1  C   UNL     1       4.264   5.627  18.660  0.00  0.00    +0.000 C 
ENDROOT
BRANCH   1   2
ATOM      2  N   UNL     1       3.260   4.621  19.260  0.00  0.00    +0.000 N 
ATOM      3  C   UNL     1       2.115   4.335  18.346  0.00  0.00    +0.000 C 
ATOM      4  N   UNL     1       1.245   3.336  18.920  0.00  0.00    +0.000 NA
ATOM      5  C   UNL     1       1.975   2.103  19.154  0.00  0.00    +0.000 C 
ATOM      6  N   UNL     1       3.066   2.354  20.080  0.00  0.00    +0.000 NA
ATOM      7  C   UNL     1       2.532   2.845  21.340  0.00  0.00    +0.000 C 
ATOM      8  N   UNL     1       1.803   4.080  21.106  0.00  0.00    +0.000 NA
ATOM      9  C   UNL     1       0.708   3.828  20.181  0.00  0.00    +0.000 C 
ATOM     10  C   UNL     1       2.681   5.085  20.554  0.00  0.00    +0.000 C 
ATOM     11  C   UNL     1       3.959   3.332  19.520  0.00  0.00    +0.000 C 
ENDBRANCH   1   2
BRANCH   1  13
ATOM     12  O   UNL     1       6.513   4.902  19.134  0.00  0.00    +0.000 OA
ATOM     13  C   UNL     1       5.644   5.096  18.287  0.00  0.00    +0.000 C 
BRANCH  13  14
ATOM     14  C   UNL     1       5.933   4.803  16.849  0.00  0.00    +0.000 A 
ATOM     15  C   UNL     1       4.963   4.112  16.106  0.00  0.00    +0.000 A 
ATOM     16  C   UNL     1       5.179   3.818  14.756  0.00  0.00    +0.000 A 
ATOM     17  C   UNL     1       6.365   4.213  14.144  0.00  0.00    +0.000 A 
ATOM     18 BR   UNL     1       6.660   3.823  12.320  0.00  0.00    +0.000 Br
ATOM     19  C   UNL     1       7.337   4.898  14.871  0.00  0.00    +0.000 A 
ATOM     20  C   UNL     1       7.125   5.194  16.223  0.00  0.00    +0.000 A 
ENDBRANCH  13  14
ENDBRANCH   1  13
TORSDOF 3
ENDMDL
MODEL 6
REMARK VINA RESULT:      -7.1      0.779      1.906
REMARK  Name = 
REMARK  3 active torsions:
REMARK  status: ('A' for Active; 'I' for Inactive)
REMARK    1  A    between atoms: C_2  and  C_3
REMARK    2  A    between atoms: C_2  and  C_14
REMARK    3  A    between atoms: C_3  and  N_4
REMARK                            x       y       z     vdW  Elec       q    Type
REMARK                         _______ _______ _______ _____ _____    ______ ____
ROOT
ATOM      1  C   UNL     1       3.976   5.757  18.494  0.00  0.00    +0.000 C 
ENDROOT
BRANCH   1   2
ATOM      2  N   UNL     1       3.165   4.641  19.186  0.00  0.00    +0.000 N 
ATOM      3  C   UNL     1       2.632   5.057  20.517  0.00  0.00    +0.000 C 
ATOM      4  N   UNL     1       1.822   4.007  21.088  0.00  0.00    +0.000 NA
ATOM      5  C   UNL     1       0.704   3.697  20.215  0.00  0.00    +0.000 C 
ATOM      6  N   UNL     1       1.207   3.245  18.928  0.00  0.00    +0.000 NA
ATOM      7  C   UNL     1       2.020   2.054  19.114  0.00  0.00    +0.000 C 
ATOM      8  N   UNL     1       3.138   2.365  19.987  0.00  0.00    +0.000 NA
ATOM      9  C   UNL     1       2.636   2.815  21.277  0.00  0.00    +0.000 C 
ATOM     10  C   UNL     1       3.961   3.398  19.402  0.00  0.00    +0.000 C 
ATOM     11  C   UNL     1       2.000   4.284  18.329  0.00  0.00    +0.000 C 
ENDBRANCH   1   2
BRANCH   1  13
ATOM     12  O   UNL     1       6.318   5.534  19.016  0.00  0.00    +0.000 OA
ATOM     13  C   UNL     1       5.434   5.457  18.165  0.00  0.00    +0.000 C 
BRANCH  13  14
ATOM     14  C   UNL     1       5.784   5.053  16.768  0.00  0.00    +0.000 A 
ATOM     15  C   UNL     1       4.830   4.340  16.025  0.00  0.00    +0.000 A 
ATOM     16  C   UNL     1       5.102   3.945  14.712  0.00  0.00    +0.000 A 
ATOM     17  C   UNL     1       6.330   4.259  14.137  0.00  0.00    +0.000 A 
ATOM     18 BR   UNL     1       6.701   3.731  12.362  0.00  0.00    +0.000 Br
ATOM     19  C   UNL     1       7.287   4.964  14.863  0.00  0.00    +0.000 A 
ATOM     20  C   UNL     1       7.018   5.363  16.179  0.00  0.00    +0.000 A 
ENDBRANCH  13  14
ENDBRANCH   1  13
TORSDOF 3
ENDMDL
MODEL 7
REMARK VINA RESULT:      -7.1      3.988      6.206
REMARK  Name = 
REMARK  3 active torsions:
REMARK  status: ('A' for Active; 'I' for Inactive)
REMARK    1  A    between atoms: C_2  and  C_3
REMARK    2  A    between atoms: C_2  and  C_14
REMARK    3  A    between atoms: C_3  and  N_4
REMARK                            x       y       z     vdW  Elec       q    Type
REMARK                         _______ _______ _______ _____ _____    ______ ____
ROOT
ATOM      1  C   UNL     1       3.426   5.158  17.874  0.00  0.00    +0.000 C 
ENDROOT
BRANCH   1   2
ATOM      2  N   UNL     1       4.906   5.363  17.492  0.00  0.00    +0.000 N 
ATOM      3  C   UNL     1       5.771   5.661  18.671  0.00  0.00    +0.000 C 
ATOM      4  N   UNL     1       7.154   5.771  18.271  0.00  0.00    +0.000 NA
ATOM      5  C   UNL     1       7.606   4.533  17.662  0.00  0.00    +0.000 C 
ATOM      6  N   UNL     1       6.804   4.253  16.482  0.00  0.00    +0.000 NA
ATOM      7  C   UNL     1       6.945   5.341  15.529  0.00  0.00    +0.000 C 
ATOM      8  N   UNL     1       6.492   6.579  16.138  0.00  0.00    +0.000 NA
ATOM      9  C   UNL     1       7.297   6.861  17.317  0.00  0.00    +0.000 C 
ATOM     10  C   UNL     1       5.102   6.474  16.515  0.00  0.00    +0.000 C 
ATOM     11  C   UNL     1       5.423   4.117  16.860  0.00  0.00    +0.000 C 
ENDBRANCH   1   2
BRANCH   1  13
ATOM     12  O   UNL     1       3.082   5.198  20.259  0.00  0.00    +0.000 OA
ATOM     13  C   UNL     1       2.952   5.779  19.184  0.00  0.00    +0.000 C 
BRANCH  13  14
ATOM     14  C   UNL     1       2.318   7.133  19.146  0.00  0.00    +0.000 A 
ATOM     15  C   UNL     1       1.771   7.643  20.334  0.00  0.00    +0.000 A 
ATOM     16  C   UNL     1       1.173   8.907  20.355  0.00  0.00    +0.000 A 
ATOM     17  C   UNL     1       1.117   9.664  19.189  0.00  0.00    +0.000 A 
ATOM     18 BR   UNL     1       0.314  11.373  19.214  0.00  0.00    +0.000 Br
ATOM     19  C   UNL     1       1.654   9.169  18.002  0.00  0.00    +0.000 A 
ATOM     20  C   UNL     1       2.254   7.904  17.976  0.00  0.00    +0.000 A 
ENDBRANCH  13  14
ENDBRANCH   1  13
TORSDOF 3
ENDMDL
MODEL 8
REMARK VINA RESULT:      -7.1      3.974      6.210
REMARK  Name = 
REMARK  3 active torsions:
REMARK  status: ('A' for Active; 'I' for Inactive)
REMARK    1  A    between atoms: C_2  and  C_3
REMARK    2  A    between atoms: C_2  and  C_14
REMARK    3  A    between atoms: C_3  and  N_4
REMARK                            x       y       z     vdW  Elec       q    Type
REMARK                         _______ _______ _______ _____ _____    ______ ____
ROOT
ATOM      1  C   UNL     1       3.412   5.205  17.883  0.00  0.00    +0.000 C 
ENDROOT
BRANCH   1   2
ATOM      2  N   UNL     1       4.897   5.396  17.509  0.00  0.00    +0.000 N 
ATOM      3  C   UNL     1       5.754   5.704  18.692  0.00  0.00    +0.000 C 
ATOM      4  N   UNL     1       7.141   5.800  18.301  0.00  0.00    +0.000 NA
ATOM      5  C   UNL     1       7.590   4.551  17.712  0.00  0.00    +0.000 C 
ATOM      6  N   UNL     1       6.795   4.261  16.530  0.00  0.00    +0.000 NA
ATOM      7  C   UNL     1       6.951   5.334  15.563  0.00  0.00    +0.000 C 
ATOM      8  N   UNL     1       6.501   6.584  16.152  0.00  0.00    +0.000 NA
ATOM      9  C   UNL     1       7.298   6.877  17.334  0.00  0.00    +0.000 C 
ATOM     10  C   UNL     1       5.107   6.492  16.519  0.00  0.00    +0.000 C 
ATOM     11  C   UNL     1       5.411   4.138  16.898  0.00  0.00    +0.000 C 
ENDBRANCH   1   2
BRANCH   1  13
ATOM     12  O   UNL     1       3.100   5.160  20.272  0.00  0.00    +0.000 OA
ATOM     13  C   UNL     1       2.951   5.776  19.219  0.00  0.00    +0.000 C 
BRANCH  13  14
ATOM     14  C   UNL     1       2.306   7.126  19.235  0.00  0.00    +0.000 A 
ATOM     15  C   UNL     1       2.265   7.856  18.037  0.00  0.00    +0.000 A 
ATOM     16  C   UNL     1       1.668   9.119  17.995  0.00  0.00    +0.000 A 
ATOM     17  C   UNL     1       1.111   9.658  19.150  0.00  0.00    +0.000 A 
ATOM     18 BR   UNL     1       0.299  11.363  19.098  0.00  0.00    +0.000 Br
ATOM     19  C   UNL     1       1.146   8.946  20.347  0.00  0.00    +0.000 A 
ATOM     20  C   UNL     1       1.742   7.680  20.394  0.00  0.00    +0.000 A 
ENDBRANCH  13  14
ENDBRANCH   1  13
TORSDOF 3
ENDMDL
MODEL 9
REMARK VINA RESULT:      -7.1      4.000      6.258
REMARK  Name = 
REMARK  3 active torsions:
REMARK  status: ('A' for Active; 'I' for Inactive)
REMARK    1  A    between atoms: C_2  and  C_3
REMARK    2  A    between atoms: C_2  and  C_14
REMARK    3  A    between atoms: C_3  and  N_4
REMARK                            x       y       z     vdW  Elec       q    Type
REMARK                         _______ _______ _______ _____ _____    ______ ____
ROOT
ATOM      1  C   UNL     1       3.378   5.283  17.822  0.00  0.00    +0.000 C 
ENDROOT
BRANCH   1   2
ATOM      2  N   UNL     1       4.881   5.367  17.482  0.00  0.00    +0.000 N 
ATOM      3  C   UNL     1       5.407   4.106  16.883  0.00  0.00    +0.000 C 
ATOM      4  N   UNL     1       6.796   4.260  16.516  0.00  0.00    +0.000 NA
ATOM      5  C   UNL     1       6.949   5.334  15.552  0.00  0.00    +0.000 C 
ATOM      6  N   UNL     1       6.483   6.580  16.138  0.00  0.00    +0.000 NA
ATOM      7  C   UNL     1       7.266   6.882  17.325  0.00  0.00    +0.000 C 
ATOM      8  N   UNL     1       7.112   5.808  18.290  0.00  0.00    +0.000 NA
ATOM      9  C   UNL     1       7.580   4.560  17.705  0.00  0.00    +0.000 C 
ATOM     10  C   UNL     1       5.726   5.672  18.673  0.00  0.00    +0.000 C 
ATOM     11  C   UNL     1       5.095   6.458  16.491  0.00  0.00    +0.000 C 
ENDBRANCH   1   2
BRANCH   1  13
ATOM     12  O   UNL     1       3.102   5.208  20.214  0.00  0.00    +0.000 OA
ATOM     13  C   UNL     1       2.936   5.837  19.172  0.00  0.00    +0.000 C 
BRANCH  13  14
ATOM     14  C   UNL     1       2.290   7.186  19.215  0.00  0.00    +0.000 A 
ATOM     15  C   UNL     1       2.255   7.942  18.033  0.00  0.00    +0.000 A 
ATOM     16  C   UNL     1       1.657   9.205  18.015  0.00  0.00    +0.000 A 
ATOM     17  C   UNL     1       1.095   9.719  19.180  0.00  0.00    +0.000 A 
ATOM     18 BR   UNL     1       0.282  11.424  19.161  0.00  0.00    +0.000 Br
ATOM     19  C   UNL     1       1.126   8.981  20.361  0.00  0.00    +0.000 A 
ATOM     20  C   UNL     1       1.723   7.714  20.383  0.00  0.00    +0.000 A 
ENDBRANCH  13  14
ENDBRANCH   1  13
TORSDOF 3
ENDMDL
