MODEL 1
REMARK VINA RESULT:      -7.2      0.000      0.000
REMARK  Name = 
REMARK  8 active torsions:
REMARK  status: ('A' for Active; 'I' for Inactive)
REMARK    1  A    between atoms: C_1  and  C_2
REMARK    2  A    between atoms: C_2  and  C_3
REMARK    3  A    between atoms: C_3  and  O_4
REMARK    4  A    between atoms: O_4  and  C_5
REMARK    5  A    between atoms: C_5  and  C_7
REMARK    6  A    between atoms: C_7  and  C_8
REMARK    7  A    between atoms: C_7  and  N_9
REMARK    8  A    between atoms: C_14  and  C_15
REMARK                            x       y       z     vdW  Elec       q    Type
REMARK                         _______ _______ _______ _____ _____    ______ ____
ROOT
ATOM      1  N   UNL     1       3.600   5.859  18.371  0.00  0.00    +0.000 N 
ATOM      2  N   UNL     1       3.515   6.715  17.280  0.00  0.00    +0.000 NA
ATOM      3  N   UNL     1       2.905   7.809  17.372  0.00  0.00    +0.000 NA
ATOM      4  C   UNL     1       2.267   8.115  18.525  0.00  0.00    +0.000 A 
ATOM      5  S   UNL     1       1.349   9.531  18.721  0.00  0.00    +0.000 S 
ATOM      6  C   UNL     1       0.929   9.135  20.346  0.00  0.00    +0.000 A 
ATOM      7  C   UNL     1       1.490   7.920  20.707  0.00  0.00    +0.000 A 
ATOM      8  C   UNL     1       2.256   7.344  19.654  0.00  0.00    +0.000 A 
ATOM      9  C   UNL     1       2.977   6.100  19.599  0.00  0.00    +0.000 A 
ATOM     10  O   UNL     1       3.018   5.325  20.552  0.00  0.00    +0.000 OA
ENDROOT
BRANCH   6  11
ATOM     11  C   UNL     1       0.062  10.022  21.143  0.00  0.00    +0.000 A 
ATOM     12  C   UNL     1      -0.519  11.156  20.551  0.00  0.00    +0.000 A 
ATOM     13  C   UNL     1      -1.363  11.997  21.282  0.00  0.00    +0.000 A 
ATOM     14  C   UNL     1      -1.638  11.720  22.618  0.00  0.00    +0.000 A 
ATOM     15  C   UNL     1      -1.068  10.604  23.224  0.00  0.00    +0.000 A 
ATOM     16  C   UNL     1      -0.227   9.762  22.492  0.00  0.00    +0.000 A 
ENDBRANCH   6  11
BRANCH   1  17
ATOM     17  C   UNL     1       4.170   4.532  18.132  0.00  0.00    +0.000 C 
ATOM     18  C   UNL     1       5.223   4.504  17.030  0.00  0.00    +0.000 C 
BRANCH  17  19
ATOM     19  C   UNL     1       3.009   3.570  17.848  0.00  0.00    +0.000 C 
ATOM     20  O   UNL     1       2.210   3.673  16.924  0.00  0.00    +0.000 OA
BRANCH  19  21
ATOM     21  O   UNL     1       2.934   2.627  18.834  0.00  0.00    +0.000 OA
BRANCH  21  22
ATOM     22  C   UNL     1       1.621   2.105  19.092  0.00  0.00    +0.000 C 
BRANCH  22  24
ATOM     23  C   UNL     1       1.505   2.564  21.545  0.00  0.00    +0.000 C 
ATOM     24  C   UNL     1       0.905   2.886  20.184  0.00  0.00    +0.000 C 
ENDBRANCH  22  24
ENDBRANCH  21  22
ENDBRANCH  19  21
ENDBRANCH  17  19
ENDBRANCH   1  17
TORSDOF 6
ENDMDL
MODEL 2
REMARK VINA RESULT:      -7.1      3.197      4.848
REMARK  Name = 
REMARK  8 active torsions:
REMARK  status: ('A' for Active; 'I' for Inactive)
REMARK    1  A    between atoms: C_1  and  C_2
REMARK    2  A    between atoms: C_2  and  C_3
REMARK    3  A    between atoms: C_3  and  O_4
REMARK    4  A    between atoms: O_4  and  C_5
REMARK    5  A    between atoms: C_5  and  C_7
REMARK    6  A    between atoms: C_7  and  C_8
REMARK    7  A    between atoms: C_7  and  N_9
REMARK    8  A    between atoms: C_14  and  C_15
REMARK                            x       y       z     vdW  Elec       q    Type
REMARK                         _______ _______ _______ _____ _____    ______ ____
ROOT
ATOM      1  N   UNL     1       5.367   4.647  16.600  0.00  0.00    +0.000 N 
ATOM      2  N   UNL     1       4.441   3.707  17.035  0.00  0.00    +0.000 NA
ATOM      3  N   UNL     1       3.371   4.070  17.584  0.00  0.00    +0.000 NA
ATOM      4  C   UNL     1       3.161   5.386  17.814  0.00  0.00    +0.000 A 
ATOM      5  S   UNL     1       1.784   5.970  18.621  0.00  0.00    +0.000 S 
ATOM      6  C   UNL     1       2.300   7.611  18.492  0.00  0.00    +0.000 A 
ATOM      7  C   UNL     1       3.522   7.682  17.842  0.00  0.00    +0.000 A 
ATOM      8  C   UNL     1       4.006   6.400  17.458  0.00  0.00    +0.000 A 
ATOM      9  C   UNL     1       5.226   6.025  16.792  0.00  0.00    +0.000 A 
ATOM     10  O   UNL     1       6.063   6.854  16.444  0.00  0.00    +0.000 OA
ENDROOT
BRANCH   6  11
ATOM     11  C   UNL     1       1.491   8.706  19.055  0.00  0.00    +0.000 A 
ATOM     12  C   UNL     1       1.042   9.748  18.225  0.00  0.00    +0.000 A 
ATOM     13  C   UNL     1       0.253  10.784  18.734  0.00  0.00    +0.000 A 
ATOM     14  C   UNL     1      -0.099  10.797  20.080  0.00  0.00    +0.000 A 
ATOM     15  C   UNL     1       0.340   9.777  20.920  0.00  0.00    +0.000 A 
ATOM     16  C   UNL     1       1.126   8.740  20.410  0.00  0.00    +0.000 A 
ENDBRANCH   6  11
BRANCH   1  17
ATOM     17  C   UNL     1       6.661   4.141  16.137  0.00  0.00    +0.000 C 
ATOM     18  C   UNL     1       7.831   4.538  17.031  0.00  0.00    +0.000 C 
BRANCH  17  19
ATOM     19  C   UNL     1       6.854   4.607  14.689  0.00  0.00    +0.000 C 
ATOM     20  O   UNL     1       7.675   5.437  14.313  0.00  0.00    +0.000 OA
BRANCH  19  21
ATOM     21  O   UNL     1       5.910   4.033  13.885  0.00  0.00    +0.000 OA
BRANCH  21  22
ATOM     22  C   UNL     1       6.346   3.700  12.558  0.00  0.00    +0.000 C 
BRANCH  22  24
ATOM     23  C   UNL     1       4.210   3.281  11.331  0.00  0.00    +0.000 C 
ATOM     24  C   UNL     1       5.460   2.641  11.919  0.00  0.00    +0.000 C 
ENDBRANCH  22  24
ENDBRANCH  21  22
ENDBRANCH  19  21
ENDBRANCH  17  19
ENDBRANCH   1  17
TORSDOF 6
ENDMDL
MODEL 3
REMARK VINA RESULT:      -6.9      0.237      1.011
REMARK  Name = 
REMARK  8 active torsions:
REMARK  status: ('A' for Active; 'I' for Inactive)
REMARK    1  A    between atoms: C_1  and  C_2
REMARK    2  A    between atoms: C_2  and  C_3
REMARK    3  A    between atoms: C_3  and  O_4
REMARK    4  A    between atoms: O_4  and  C_5
REMARK    5  A    between atoms: C_5  and  C_7
REMARK    6  A    between atoms: C_7  and  C_8
REMARK    7  A    between atoms: C_7  and  N_9
REMARK    8  A    between atoms: C_14  and  C_15
REMARK                            x       y       z     vdW  Elec       q    Type
REMARK                         _______ _______ _______ _____ _____    ______ ____
ROOT
ATOM      1  N   UNL     1       3.565   5.860  18.483  0.00  0.00    +0.000 N 
ATOM      2  N   UNL     1       3.535   6.702  17.379  0.00  0.00    +0.000 NA
ATOM      3  N   UNL     1       2.941   7.808  17.434  0.00  0.00    +0.000 NA
ATOM      4  C   UNL     1       2.267   8.140  18.559  0.00  0.00    +0.000 A 
ATOM      5  S   UNL     1       1.368   9.574  18.702  0.00  0.00    +0.000 S 
ATOM      6  C   UNL     1       0.881   9.207  20.315  0.00  0.00    +0.000 A 
ATOM      7  C   UNL     1       1.407   7.988  20.713  0.00  0.00    +0.000 A 
ATOM      8  C   UNL     1       2.201   7.385  19.696  0.00  0.00    +0.000 A 
ATOM      9  C   UNL     1       2.901   6.128  19.684  0.00  0.00    +0.000 A 
ATOM     10  O   UNL     1       2.893   5.365  20.647  0.00  0.00    +0.000 OA
ENDROOT
BRANCH   6  11
ATOM     11  C   UNL     1       0.002  10.120  21.068  0.00  0.00    +0.000 A 
ATOM     12  C   UNL     1      -0.300   9.856  22.415  0.00  0.00    +0.000 A 
ATOM     13  C   UNL     1      -1.113  10.722  23.153  0.00  0.00    +0.000 A 
ATOM     14  C   UNL     1      -1.639  11.864  22.557  0.00  0.00    +0.000 A 
ATOM     15  C   UNL     1      -1.355  12.140  21.223  0.00  0.00    +0.000 A 
ATOM     16  C   UNL     1      -0.541  11.276  20.486  0.00  0.00    +0.000 A 
ENDBRANCH   6  11
BRANCH   1  17
ATOM     17  C   UNL     1       4.119   4.519  18.282  0.00  0.00    +0.000 C 
ATOM     18  C   UNL     1       5.222   4.461  17.231  0.00  0.00    +0.000 C 
BRANCH  17  19
ATOM     19  C   UNL     1       2.954   3.577  17.953  0.00  0.00    +0.000 C 
ATOM     20  O   UNL     1       2.185   3.701  17.006  0.00  0.00    +0.000 OA
BRANCH  19  21
ATOM     21  O   UNL     1       2.836   2.625  18.926  0.00  0.00    +0.000 OA
BRANCH  21  22
ATOM     22  C   UNL     1       1.492   2.240  19.255  0.00  0.00    +0.000 C 
BRANCH  22  24
ATOM     23  C   UNL     1       2.302   2.572  21.596  0.00  0.00    +0.000 C 
ATOM     24  C   UNL     1       1.105   2.678  20.661  0.00  0.00    +0.000 C 
ENDBRANCH  22  24
ENDBRANCH  21  22
ENDBRANCH  19  21
ENDBRANCH  17  19
ENDBRANCH   1  17
TORSDOF 6
ENDMDL
MODEL 4
REMARK VINA RESULT:      -6.9      2.695      4.057
REMARK  Name = 
REMARK  8 active torsions:
REMARK  status: ('A' for Active; 'I' for Inactive)
REMARK    1  A    between atoms: C_1  and  C_2
REMARK    2  A    between atoms: C_2  and  C_3
REMARK    3  A    between atoms: C_3  and  O_4
REMARK    4  A    between atoms: O_4  and  C_5
REMARK    5  A    between atoms: C_5  and  C_7
REMARK    6  A    between atoms: C_7  and  C_8
REMARK    7  A    between atoms: C_7  and  N_9
REMARK    8  A    between atoms: C_14  and  C_15
REMARK                            x       y       z     vdW  Elec       q    Type
REMARK                         _______ _______ _______ _____ _____    ______ ____
ROOT
ATOM      1  N   UNL     1       3.469   5.250  18.847  0.00  0.00    +0.000 N 
ATOM      2  N   UNL     1       2.936   5.172  20.127  0.00  0.00    +0.000 NA
ATOM      3  N   UNL     1       2.222   6.101  20.580  0.00  0.00    +0.000 NA
ATOM      4  C   UNL     1       2.037   7.215  19.836  0.00  0.00    +0.000 A 
ATOM      5  S   UNL     1       1.157   8.557  20.393  0.00  0.00    +0.000 S 
ATOM      6  C   UNL     1       1.416   9.439  18.933  0.00  0.00    +0.000 A 
ATOM      7  C   UNL     1       2.180   8.694  18.049  0.00  0.00    +0.000 A 
ATOM      8  C   UNL     1       2.531   7.419  18.578  0.00  0.00    +0.000 A 
ATOM      9  C   UNL     1       3.322   6.361  18.010  0.00  0.00    +0.000 A 
ATOM     10  O   UNL     1       3.827   6.448  16.893  0.00  0.00    +0.000 OA
ENDROOT
BRANCH   6  11
ATOM     11  C   UNL     1       0.877  10.800  18.764  0.00  0.00    +0.000 A 
ATOM     12  C   UNL     1       1.752  11.896  18.663  0.00  0.00    +0.000 A 
ATOM     13  C   UNL     1       1.263  13.193  18.479  0.00  0.00    +0.000 A 
ATOM     14  C   UNL     1      -0.108  13.416  18.395  0.00  0.00    +0.000 A 
ATOM     15  C   UNL     1      -0.992  12.345  18.498  0.00  0.00    +0.000 A 
ATOM     16  C   UNL     1      -0.502  11.049  18.679  0.00  0.00    +0.000 A 
ENDBRANCH   6  11
BRANCH   1  17
ATOM     17  C   UNL     1       4.432   4.216  18.463  0.00  0.00    +0.000 C 
ATOM     18  C   UNL     1       4.185   2.868  19.130  0.00  0.00    +0.000 C 
BRANCH  17  19
ATOM     19  C   UNL     1       5.839   4.756  18.753  0.00  0.00    +0.000 C 
ATOM     20  O   UNL     1       6.139   5.494  19.685  0.00  0.00    +0.000 OA
BRANCH  19  21
ATOM     21  O   UNL     1       6.698   4.373  17.762  0.00  0.00    +0.000 OA
BRANCH  21  22
ATOM     22  C   UNL     1       6.964   5.363  16.756  0.00  0.00    +0.000 C 
BRANCH  22  24
ATOM     23  C   UNL     1       5.705   4.215  14.928  0.00  0.00    +0.000 C 
ATOM     24  C   UNL     1       7.062   4.747  15.367  0.00  0.00    +0.000 C 
ENDBRANCH  22  24
ENDBRANCH  21  22
ENDBRANCH  19  21
ENDBRANCH  17  19
ENDBRANCH   1  17
TORSDOF 6
ENDMDL
MODEL 5
REMARK VINA RESULT:      -6.9      2.720      4.057
REMARK  Name = 
REMARK  8 active torsions:
REMARK  status: ('A' for Active; 'I' for Inactive)
REMARK    1  A    between atoms: C_1  and  C_2
REMARK    2  A    between atoms: C_2  and  C_3
REMARK    3  A    between atoms: C_3  and  O_4
REMARK    4  A    between atoms: O_4  and  C_5
REMARK    5  A    between atoms: C_5  and  C_7
REMARK    6  A    between atoms: C_7  and  C_8
REMARK    7  A    between atoms: C_7  and  N_9
REMARK    8  A    between atoms: C_14  and  C_15
REMARK                            x       y       z     vdW  Elec       q    Type
REMARK                         _______ _______ _______ _____ _____    ______ ____
ROOT
ATOM      1  N   UNL     1       3.499   5.750  18.336  0.00  0.00    +0.000 N 
ATOM      2  N   UNL     1       2.881   5.526  19.560  0.00  0.00    +0.000 NA
ATOM      3  N   UNL     1       2.139   6.402  20.071  0.00  0.00    +0.000 NA
ATOM      4  C   UNL     1       2.005   7.597  19.452  0.00  0.00    +0.000 A 
ATOM      5  S   UNL     1       1.090   8.872  20.104  0.00  0.00    +0.000 S 
ATOM      6  C   UNL     1       1.447   9.917  18.778  0.00  0.00    +0.000 A 
ATOM      7  C   UNL     1       2.269   9.275  17.866  0.00  0.00    +0.000 A 
ATOM      8  C   UNL     1       2.582   7.944  18.263  0.00  0.00    +0.000 A 
ATOM      9  C   UNL     1       3.409   6.952  17.628  0.00  0.00    +0.000 A 
ATOM     10  O   UNL     1       3.988   7.166  16.565  0.00  0.00    +0.000 OA
ENDROOT
BRANCH   6  11
ATOM     11  C   UNL     1       0.922  11.294  18.736  0.00  0.00    +0.000 A 
ATOM     12  C   UNL     1      -0.462  11.523  18.812  0.00  0.00    +0.000 A 
ATOM     13  C   UNL     1      -0.979  12.821  18.798  0.00  0.00    +0.000 A 
ATOM     14  C   UNL     1      -0.121  13.913  18.705  0.00  0.00    +0.000 A 
ATOM     15  C   UNL     1       1.254  13.708  18.624  0.00  0.00    +0.000 A 
ATOM     16  C   UNL     1       1.770  12.409  18.641  0.00  0.00    +0.000 A 
ENDBRANCH   6  11
BRANCH   1  17
ATOM     17  C   UNL     1       4.485   4.760  17.898  0.00  0.00    +0.000 C 
ATOM     18  C   UNL     1       3.869   3.526  17.247  0.00  0.00    +0.000 C 
BRANCH  17  19
ATOM     19  C   UNL     1       5.358   4.403  19.107  0.00  0.00    +0.000 C 
ATOM     20  O   UNL     1       5.410   3.303  19.646  0.00  0.00    +0.000 OA
BRANCH  19  21
ATOM     21  O   UNL     1       6.004   5.518  19.561  0.00  0.00    +0.000 OA
BRANCH  21  22
ATOM     22  C   UNL     1       7.385   5.631  19.184  0.00  0.00    +0.000 C 
BRANCH  22  24
ATOM     23  C   UNL     1       7.601   7.623  17.692  0.00  0.00    +0.000 C 
ATOM     24  C   UNL     1       7.543   6.103  17.746  0.00  0.00    +0.000 C 
ENDBRANCH  22  24
ENDBRANCH  21  22
ENDBRANCH  19  21
ENDBRANCH  17  19
ENDBRANCH   1  17
TORSDOF 6
ENDMDL
MODEL 6
REMARK VINA RESULT:      -6.9      0.899      1.464
REMARK  Name = 
REMARK  8 active torsions:
REMARK  status: ('A' for Active; 'I' for Inactive)
REMARK    1  A    between atoms: C_1  and  C_2
REMARK    2  A    between atoms: C_2  and  C_3
REMARK    3  A    between atoms: C_3  and  O_4
REMARK    4  A    between atoms: O_4  and  C_5
REMARK    5  A    between atoms: C_5  and  C_7
REMARK    6  A    between atoms: C_7  and  C_8
REMARK    7  A    between atoms: C_7  and  N_9
REMARK    8  A    between atoms: C_14  and  C_15
REMARK                            x       y       z     vdW  Elec       q    Type
REMARK                         _______ _______ _______ _____ _____    ______ ____
ROOT
ATOM      1  N   UNL     1       3.428   6.124  18.934  0.00  0.00    +0.000 N 
ATOM      2  N   UNL     1       3.511   6.925  17.803  0.00  0.00    +0.000 NA
ATOM      3  N   UNL     1       2.916   8.031  17.758  0.00  0.00    +0.000 NA
ATOM      4  C   UNL     1       2.133   8.402  18.796  0.00  0.00    +0.000 A 
ATOM      5  S   UNL     1       1.226   9.839  18.796  0.00  0.00    +0.000 S 
ATOM      6  C   UNL     1       0.579   9.530  20.365  0.00  0.00    +0.000 A 
ATOM      7  C   UNL     1       1.061   8.327  20.857  0.00  0.00    +0.000 A 
ATOM      8  C   UNL     1       1.952   7.690  19.949  0.00  0.00    +0.000 A 
ATOM      9  C   UNL     1       2.648   6.434  20.052  0.00  0.00    +0.000 A 
ATOM     10  O   UNL     1       2.542   5.707  21.037  0.00  0.00    +0.000 OA
ENDROOT
BRANCH   6  11
ATOM     11  C   UNL     1      -0.370  10.468  20.992  0.00  0.00    +0.000 A 
ATOM     12  C   UNL     1      -0.558  10.454  22.384  0.00  0.00    +0.000 A 
ATOM     13  C   UNL     1      -1.435  11.351  23.001  0.00  0.00    +0.000 A 
ATOM     14  C   UNL     1      -2.141  12.275  22.236  0.00  0.00    +0.000 A 
ATOM     15  C   UNL     1      -1.972  12.302  20.854  0.00  0.00    +0.000 A 
ATOM     16  C   UNL     1      -1.093  11.407  20.239  0.00  0.00    +0.000 A 
ENDBRANCH   6  11
BRANCH   1  17
ATOM     17  C   UNL     1       3.997   4.778  18.839  0.00  0.00    +0.000 C 
ATOM     18  C   UNL     1       5.504   4.731  19.067  0.00  0.00    +0.000 C 
BRANCH  17  19
ATOM     19  C   UNL     1       3.598   4.197  17.477  0.00  0.00    +0.000 C 
ATOM     20  O   UNL     1       4.315   4.159  16.483  0.00  0.00    +0.000 OA
BRANCH  19  21
ATOM     21  O   UNL     1       2.287   3.811  17.502  0.00  0.00    +0.000 OA
BRANCH  21  22
ATOM     22  C   UNL     1       2.049   2.454  17.907  0.00  0.00    +0.000 C 
BRANCH  22  24
ATOM     23  C   UNL     1       0.777   3.169  19.935  0.00  0.00    +0.000 C 
ATOM     24  C   UNL     1       0.743   2.314  18.677  0.00  0.00    +0.000 C 
ENDBRANCH  22  24
ENDBRANCH  21  22
ENDBRANCH  19  21
ENDBRANCH  17  19
ENDBRANCH   1  17
TORSDOF 6
ENDMDL
MODEL 7
REMARK VINA RESULT:      -6.9      3.100      4.611
REMARK  Name = 
REMARK  8 active torsions:
REMARK  status: ('A' for Active; 'I' for Inactive)
REMARK    1  A    between atoms: C_1  and  C_2
REMARK    2  A    between atoms: C_2  and  C_3
REMARK    3  A    between atoms: C_3  and  O_4
REMARK    4  A    between atoms: O_4  and  C_5
REMARK    5  A    between atoms: C_5  and  C_7
REMARK    6  A    between atoms: C_7  and  C_8
REMARK    7  A    between atoms: C_7  and  N_9
REMARK    8  A    between atoms: C_14  and  C_15
REMARK                            x       y       z     vdW  Elec       q    Type
REMARK                         _______ _______ _______ _____ _____    ______ ____
ROOT
ATOM      1  N   UNL     1       4.782   5.491  17.328  0.00  0.00    +0.000 N 
ATOM      2  N   UNL     1       4.446   4.897  18.538  0.00  0.00    +0.000 NA
ATOM      3  N   UNL     1       3.580   5.416  19.286  0.00  0.00    +0.000 NA
ATOM      4  C   UNL     1       3.030   6.601  18.937  0.00  0.00    +0.000 A 
ATOM      5  S   UNL     1       1.913   7.421  19.919  0.00  0.00    +0.000 S 
ATOM      6  C   UNL     1       1.761   8.727  18.802  0.00  0.00    +0.000 A 
ATOM      7  C   UNL     1       2.576   8.517  17.701  0.00  0.00    +0.000 A 
ATOM      8  C   UNL     1       3.299   7.294  17.789  0.00  0.00    +0.000 A 
ATOM      9  C   UNL     1       4.258   6.711  16.888  0.00  0.00    +0.000 A 
ATOM     10  O   UNL     1       4.585   7.258  15.838  0.00  0.00    +0.000 OA
ENDROOT
BRANCH   6  11
ATOM     11  C   UNL     1       0.879   9.872  19.090  0.00  0.00    +0.000 A 
ATOM     12  C   UNL     1       1.377  10.987  19.785  0.00  0.00    +0.000 A 
ATOM     13  C   UNL     1       0.564  12.094  20.047  0.00  0.00    +0.000 A 
ATOM     14  C   UNL     1      -0.761  12.103  19.621  0.00  0.00    +0.000 A 
ATOM     15  C   UNL     1      -1.275  11.006  18.936  0.00  0.00    +0.000 A 
ATOM     16  C   UNL     1      -0.461   9.902  18.671  0.00  0.00    +0.000 A 
ENDBRANCH   6  11
BRANCH   1  17
ATOM     17  C   UNL     1       5.922   4.926  16.603  0.00  0.00    +0.000 C 
ATOM     18  C   UNL     1       5.763   3.448  16.266  0.00  0.00    +0.000 C 
BRANCH  17  19
ATOM     19  C   UNL     1       7.184   5.199  17.431  0.00  0.00    +0.000 C 
ATOM     20  O   UNL     1       7.619   4.479  18.323  0.00  0.00    +0.000 OA
BRANCH  19  21
ATOM     21  O   UNL     1       7.707   6.416  17.095  0.00  0.00    +0.000 OA
BRANCH  21  22
ATOM     22  C   UNL     1       7.933   7.316  18.191  0.00  0.00    +0.000 C 
BRANCH  22  24
ATOM     23  C   UNL     1       8.816   9.606  18.662  0.00  0.00    +0.000 C 
ATOM     24  C   UNL     1       7.944   8.769  17.737  0.00  0.00    +0.000 C 
ENDBRANCH  22  24
ENDBRANCH  21  22
ENDBRANCH  19  21
ENDBRANCH  17  19
ENDBRANCH   1  17
TORSDOF 6
ENDMDL
MODEL 8
REMARK VINA RESULT:      -6.9      3.629      7.704
REMARK  Name = 
REMARK  8 active torsions:
REMARK  status: ('A' for Active; 'I' for Inactive)
REMARK    1  A    between atoms: C_1  and  C_2
REMARK    2  A    between atoms: C_2  and  C_3
REMARK    3  A    between atoms: C_3  and  O_4
REMARK    4  A    between atoms: O_4  and  C_5
REMARK    5  A    between atoms: C_5  and  C_7
REMARK    6  A    between atoms: C_7  and  C_8
REMARK    7  A    between atoms: C_7  and  N_9
REMARK    8  A    between atoms: C_14  and  C_15
REMARK                            x       y       z     vdW  Elec       q    Type
REMARK                         _______ _______ _______ _____ _____    ______ ____
ROOT
ATOM      1  N   UNL     1       1.246  10.232  19.535  0.00  0.00    +0.000 N 
ATOM      2  N   UNL     1       0.946   9.847  20.835  0.00  0.00    +0.000 NA
ATOM      3  N   UNL     1       1.162   8.670  21.219  0.00  0.00    +0.000 NA
ATOM      4  C   UNL     1       1.624   7.760  20.333  0.00  0.00    +0.000 A 
ATOM      5  S   UNL     1       1.871   6.128  20.734  0.00  0.00    +0.000 S 
ATOM      6  C   UNL     1       2.413   5.732  19.145  0.00  0.00    +0.000 A 
ATOM      7  C   UNL     1       2.385   6.853  18.332  0.00  0.00    +0.000 A 
ATOM      8  C   UNL     1       1.931   8.012  19.024  0.00  0.00    +0.000 A 
ATOM      9  C   UNL     1       1.732   9.358  18.557  0.00  0.00    +0.000 A 
ATOM     10  O   UNL     1       1.960   9.688  17.396  0.00  0.00    +0.000 OA
ENDROOT
BRANCH   6  11
ATOM     11  C   UNL     1       2.801   4.352  18.799  0.00  0.00    +0.000 A 
ATOM     12  C   UNL     1       3.777   3.683  19.558  0.00  0.00    +0.000 A 
ATOM     13  C   UNL     1       4.142   2.367  19.261  0.00  0.00    +0.000 A 
ATOM     14  C   UNL     1       3.540   1.698  18.200  0.00  0.00    +0.000 A 
ATOM     15  C   UNL     1       2.575   2.345  17.432  0.00  0.00    +0.000 A 
ATOM     16  C   UNL     1       2.208   3.660  17.731  0.00  0.00    +0.000 A 
ENDBRANCH   6  11
BRANCH   1  17
ATOM     17  C   UNL     1       0.800  11.562  19.115  0.00  0.00    +0.000 C 
ATOM     18  C   UNL     1       1.284  12.688  20.022  0.00  0.00    +0.000 C 
BRANCH  17  19
ATOM     19  C   UNL     1      -0.730  11.527  19.001  0.00  0.00    +0.000 C 
ATOM     20  O   UNL     1      -1.516  11.733  19.919  0.00  0.00    +0.000 OA
BRANCH  19  21
ATOM     21  O   UNL     1      -1.094  11.136  17.743  0.00  0.00    +0.000 OA
BRANCH  21  22
ATOM     22  C   UNL     1      -1.931   9.970  17.675  0.00  0.00    +0.000 C 
BRANCH  22  24
ATOM     23  C   UNL     1      -2.874  10.625  15.456  0.00  0.00    +0.000 C 
ATOM     24  C   UNL     1      -3.207  10.235  16.889  0.00  0.00    +0.000 C 
ENDBRANCH  22  24
ENDBRANCH  21  22
ENDBRANCH  19  21
ENDBRANCH  17  19
ENDBRANCH   1  17
TORSDOF 6
ENDMDL
MODEL 9
REMARK VINA RESULT:      -6.9      1.382      2.941
REMARK  Name = 
REMARK  8 active torsions:
REMARK  status: ('A' for Active; 'I' for Inactive)
REMARK    1  A    between atoms: C_1  and  C_2
REMARK    2  A    between atoms: C_2  and  C_3
REMARK    3  A    between atoms: C_3  and  O_4
REMARK    4  A    between atoms: O_4  and  C_5
REMARK    5  A    between atoms: C_5  and  C_7
REMARK    6  A    between atoms: C_7  and  C_8
REMARK    7  A    between atoms: C_7  and  N_9
REMARK    8  A    between atoms: C_14  and  C_15
REMARK                            x       y       z     vdW  Elec       q    Type
REMARK                         _______ _______ _______ _____ _____    ______ ____
ROOT
ATOM      1  N   UNL     1       3.231   5.546  19.065  0.00  0.00    +0.000 N 
ATOM      2  N   UNL     1       3.426   6.374  17.967  0.00  0.00    +0.000 NA
ATOM      3  N   UNL     1       2.943   7.534  17.948  0.00  0.00    +0.000 NA
ATOM      4  C   UNL     1       2.168   7.944  18.978  0.00  0.00    +0.000 A 
ATOM      5  S   UNL     1       1.405   9.462  19.007  0.00  0.00    +0.000 S 
ATOM      6  C   UNL     1       0.684   9.164  20.545  0.00  0.00    +0.000 A 
ATOM      7  C   UNL     1       1.031   7.904  21.005  0.00  0.00    +0.000 A 
ATOM      8  C   UNL     1       1.884   7.213  20.097  0.00  0.00    +0.000 A 
ATOM      9  C   UNL     1       2.451   5.893  20.172  0.00  0.00    +0.000 A 
ATOM     10  O   UNL     1       2.245   5.146  21.126  0.00  0.00    +0.000 OA
ENDROOT
BRANCH   6  11
ATOM     11  C   UNL     1      -0.188  10.169  21.181  0.00  0.00    +0.000 A 
ATOM     12  C   UNL     1      -0.509  10.061  22.544  0.00  0.00    +0.000 A 
ATOM     13  C   UNL     1      -1.315  11.015  23.172  0.00  0.00    +0.000 A 
ATOM     14  C   UNL     1      -1.815  12.092  22.447  0.00  0.00    +0.000 A 
ATOM     15  C   UNL     1      -1.512  12.215  21.093  0.00  0.00    +0.000 A 
ATOM     16  C   UNL     1      -0.704  11.262  20.467  0.00  0.00    +0.000 A 
ENDBRANCH   6  11
BRANCH   1  17
ATOM     17  C   UNL     1       3.670   4.155  18.935  0.00  0.00    +0.000 C 
ATOM     18  C   UNL     1       5.125   3.930  19.329  0.00  0.00    +0.000 C 
BRANCH  17  19
ATOM     19  C   UNL     1       3.383   3.707  17.497  0.00  0.00    +0.000 C 
ATOM     20  O   UNL     1       2.270   3.607  16.992  0.00  0.00    +0.000 OA
BRANCH  19  21
ATOM     21  O   UNL     1       4.547   3.340  16.882  0.00  0.00    +0.000 OA
BRANCH  21  22
ATOM     22  C   UNL     1       4.934   4.146  15.758  0.00  0.00    +0.000 C 
BRANCH  22  24
ATOM     23  C   UNL     1       6.849   4.812  14.297  0.00  0.00    +0.000 C 
ATOM     24  C   UNL     1       6.444   4.321  15.680  0.00  0.00    +0.000 C 
ENDBRANCH  22  24
ENDBRANCH  21  22
ENDBRANCH  19  21
ENDBRANCH  17  19
ENDBRANCH   1  17
TORSDOF 6
ENDMDL
