MODEL 1
REMARK VINA RESULT:      -8.7      0.000      0.000
REMARK  Name = 
REMARK  8 active torsions:
REMARK  status: ('A' for Active; 'I' for Inactive)
REMARK    1  A    between atoms: C_1  and  O_2
REMARK    2  A    between atoms: O_2  and  C_3
REMARK    3  A    between atoms: C_6  and  N_7
REMARK    4  A    between atoms: C_11  and  C_13
REMARK    5  A    between atoms: C_13  and  C_14
REMARK    6  A    between atoms: C_14  and  C_15
REMARK    7  A    between atoms: C_14  and  S_16
REMARK    8  A    between atoms: S_16  and  C_19
REMARK                            x       y       z     vdW  Elec       q    Type
REMARK                         _______ _______ _______ _____ _____    ______ ____
ROOT
ATOM      1  C   UNL     1       2.453   5.412  20.052  0.00  0.00    +0.000 C 
ENDROOT
BRANCH   1   6
ATOM      2  N   UNL     1      -0.094   9.725  20.564  0.00  0.00    +0.000 N 
ATOM      3  C   UNL     1       0.300   9.585  19.148  0.00  0.00    +0.000 C 
ATOM      4  C   UNL     1       1.742   9.058  18.996  0.00  0.00    +0.000 C 
ATOM      5  N   UNL     1       1.954   7.861  19.823  0.00  0.00    +0.000 N 
ATOM      6  C   UNL     1       2.405   6.697  19.239  0.00  0.00    +0.000 C 
ATOM      7  O   UNL     1       2.709   6.639  18.043  0.00  0.00    +0.000 OA
ATOM      8  C   UNL     1       1.659   8.102  21.243  0.00  0.00    +0.000 C 
ATOM      9  C   UNL     1       0.201   8.566  21.429  0.00  0.00    +0.000 C 
BRANCH   2  13
ATOM     10  C   UNL     1      -0.911  13.436  22.417  0.00  0.00    +0.000 A 
ATOM     11  C   UNL     1      -1.246  12.238  23.038  0.00  0.00    +0.000 A 
ATOM     12  C   UNL     1      -0.962  11.015  22.416  0.00  0.00    +0.000 A 
ATOM     13  C   UNL     1      -0.357  10.951  21.151  0.00  0.00    +0.000 A 
ATOM     14  C   UNL     1      -0.062  12.170  20.530  0.00  0.00    +0.000 A 
ATOM     15  C   UNL     1      -0.329  13.401  21.152  0.00  0.00    +0.000 A 
BRANCH  10  17
ATOM     16  C   UNL     1      -0.279  15.613  23.075  0.00  0.00    +0.000 C 
ATOM     17  O   UNL     1      -1.247  14.569  23.102  0.00  0.00    +0.000 OA
ENDBRANCH  10  17
ENDBRANCH   2  13
ENDBRANCH   1   6
BRANCH   1  18
ATOM     18  C   UNL     1       1.980   4.202  19.234  0.00  0.00    +0.000 C 
ATOM     19  C   UNL     1       0.756   3.559  19.902  0.00  0.00    +0.000 C 
BRANCH  18  20
ATOM     20  S   UNL     1       3.341   3.021  19.044  0.00  0.00    +0.000 S 
ATOM     21  O   UNL     1       3.985   2.795  20.316  0.00  0.00    +0.000 OA
ATOM     22  O   UNL     1       2.850   1.897  18.266  0.00  0.00    +0.000 OA
BRANCH  20  23
ATOM     23  C   UNL     1       4.539   3.882  18.044  0.00  0.00    +0.000 A 
ATOM     24  C   UNL     1       5.672   4.498  18.609  0.00  0.00    +0.000 A 
ATOM     25  C   UNL     1       6.632   5.081  17.776  0.00  0.00    +0.000 A 
ATOM     26  C   UNL     1       6.460   5.032  16.395  0.00  0.00    +0.000 A 
ATOM     27  C   UNL     1       5.276   4.519  15.866  0.00  0.00    +0.000 A 
ATOM     28  C   UNL     1       4.310   3.933  16.669  0.00  0.00    +0.000 A 
ATOM     29  N   UNL     1       5.079   4.537  14.469  0.00  0.00    +0.000 N 
ATOM     30  C   UNL     1       6.217   4.136  13.795  0.00  0.00    +0.000 C 
ATOM     31  O   UNL     1       6.197   3.328  12.873  0.00  0.00    +0.000 OA
ATOM     32  C   UNL     1       7.498   4.806  14.317  0.00  0.00    +0.000 C 
ATOM     33  O   UNL     1       7.456   5.495  15.576  0.00  0.00    +0.000 OA
ATOM     34  H   UNL     1       4.969   5.526  14.231  0.00  0.00    +0.000 HD
ENDBRANCH  20  23
ENDBRANCH  18  20
ENDBRANCH   1  18
TORSDOF 6
ENDMDL
MODEL 2
REMARK VINA RESULT:      -8.3      0.863      1.183
REMARK  Name = 
REMARK  8 active torsions:
REMARK  status: ('A' for Active; 'I' for Inactive)
REMARK    1  A    between atoms: C_1  and  O_2
REMARK    2  A    between atoms: O_2  and  C_3
REMARK    3  A    between atoms: C_6  and  N_7
REMARK    4  A    between atoms: C_11  and  C_13
REMARK    5  A    between atoms: C_13  and  C_14
REMARK    6  A    between atoms: C_14  and  C_15
REMARK    7  A    between atoms: C_14  and  S_16
REMARK    8  A    between atoms: S_16  and  C_19
REMARK                            x       y       z     vdW  Elec       q    Type
REMARK                         _______ _______ _______ _____ _____    ______ ____
ROOT
ATOM      1  C   UNL     1       2.857   6.082  19.855  0.00  0.00    +0.000 C 
ENDROOT
BRANCH   1   6
ATOM      2  N   UNL     1      -0.504   9.781  20.473  0.00  0.00    +0.000 N 
ATOM      3  C   UNL     1      -0.124   9.733  19.046  0.00  0.00    +0.000 C 
ATOM      4  C   UNL     1       1.390   9.512  18.856  0.00  0.00    +0.000 C 
ATOM      5  N   UNL     1       1.863   8.379  19.665  0.00  0.00    +0.000 N 
ATOM      6  C   UNL     1       2.527   7.336  19.058  0.00  0.00    +0.000 C 
ATOM      7  O   UNL     1       2.807   7.348  17.855  0.00  0.00    +0.000 OA
ATOM      8  C   UNL     1       1.561   8.546  21.094  0.00  0.00    +0.000 C 
ATOM      9  C   UNL     1       0.043   8.701  21.318  0.00  0.00    +0.000 C 
BRANCH   2  13
ATOM     10  C   UNL     1      -2.036  13.292  22.260  0.00  0.00    +0.000 A 
ATOM     11  C   UNL     1      -1.997  13.152  20.878  0.00  0.00    +0.000 A 
ATOM     12  C   UNL     1      -1.493  11.980  20.299  0.00  0.00    +0.000 A 
ATOM     13  C   UNL     1      -0.997  10.924  21.079  0.00  0.00    +0.000 A 
ATOM     14  C   UNL     1      -1.013  11.102  22.467  0.00  0.00    +0.000 A 
ATOM     15  C   UNL     1      -1.530  12.268  23.057  0.00  0.00    +0.000 A 
BRANCH  10  17
ATOM     16  C   UNL     1      -3.467  14.385  23.787  0.00  0.00    +0.000 C 
ATOM     17  O   UNL     1      -2.530  14.480  22.719  0.00  0.00    +0.000 OA
ENDBRANCH  10  17
ENDBRANCH   2  13
ENDBRANCH   1   6
BRANCH   1  18
ATOM     18  C   UNL     1       2.016   4.880  19.403  0.00  0.00    +0.000 C 
ATOM     19  C   UNL     1       0.976   4.528  20.477  0.00  0.00    +0.000 C 
BRANCH  18  20
ATOM     20  S   UNL     1       3.102   3.478  19.032  0.00  0.00    +0.000 S 
ATOM     21  O   UNL     1       3.704   2.981  20.246  0.00  0.00    +0.000 OA
ATOM     22  O   UNL     1       2.379   2.575  18.153  0.00  0.00    +0.000 OA
BRANCH  20  23
ATOM     23  C   UNL     1       4.437   4.189  18.088  0.00  0.00    +0.000 A 
ATOM     24  C   UNL     1       5.629   4.622  18.699  0.00  0.00    +0.000 A 
ATOM     25  C   UNL     1       6.684   5.086  17.908  0.00  0.00    +0.000 A 
ATOM     26  C   UNL     1       6.546   5.100  16.523  0.00  0.00    +0.000 A 
ATOM     27  C   UNL     1       5.317   4.774  15.950  0.00  0.00    +0.000 A 
ATOM     28  C   UNL     1       4.256   4.309  16.710  0.00  0.00    +0.000 A 
ATOM     29  N   UNL     1       5.164   4.859  14.550  0.00  0.00    +0.000 N 
ATOM     30  C   UNL     1       6.253   4.320  13.891  0.00  0.00    +0.000 C 
ATOM     31  O   UNL     1       6.145   3.549  12.944  0.00  0.00    +0.000 OA
ATOM     32  C   UNL     1       7.600   4.787  14.464  0.00  0.00    +0.000 C 
ATOM     33  O   UNL     1       7.620   5.440  15.743  0.00  0.00    +0.000 OA
ATOM     34  H   UNL     1       5.201   5.860  14.341  0.00  0.00    +0.000 HD
ENDBRANCH  20  23
ENDBRANCH  18  20
ENDBRANCH   1  18
TORSDOF 6
ENDMDL
MODEL 3
REMARK VINA RESULT:      -8.2      1.351      2.129
REMARK  Name = 
REMARK  8 active torsions:
REMARK  status: ('A' for Active; 'I' for Inactive)
REMARK    1  A    between atoms: C_1  and  O_2
REMARK    2  A    between atoms: O_2  and  C_3
REMARK    3  A    between atoms: C_6  and  N_7
REMARK    4  A    between atoms: C_11  and  C_13
REMARK    5  A    between atoms: C_13  and  C_14
REMARK    6  A    between atoms: C_14  and  C_15
REMARK    7  A    between atoms: C_14  and  S_16
REMARK    8  A    between atoms: S_16  and  C_19
REMARK                            x       y       z     vdW  Elec       q    Type
REMARK                         _______ _______ _______ _____ _____    ______ ____
ROOT
ATOM      1  C   UNL     1       2.231   5.355  20.227  0.00  0.00    +0.000 C 
ENDROOT
BRANCH   1   6
ATOM      2  N   UNL     1      -0.109   9.802  20.548  0.00  0.00    +0.000 N 
ATOM      3  C   UNL     1       0.294   9.591  19.143  0.00  0.00    +0.000 C 
ATOM      4  C   UNL     1       1.710   8.989  19.029  0.00  0.00    +0.000 C 
ATOM      5  N   UNL     1       1.854   7.815  19.903  0.00  0.00    +0.000 N 
ATOM      6  C   UNL     1       2.254   6.610  19.367  0.00  0.00    +0.000 C 
ATOM      7  O   UNL     1       2.569   6.493  18.179  0.00  0.00    +0.000 OA
ATOM      8  C   UNL     1       1.556   8.123  21.309  0.00  0.00    +0.000 C 
ATOM      9  C   UNL     1       0.120   8.663  21.459  0.00  0.00    +0.000 C 
BRANCH   2  13
ATOM     10  C   UNL     1      -0.762  13.614  22.254  0.00  0.00    +0.000 A 
ATOM     11  C   UNL     1      -1.119  12.456  22.935  0.00  0.00    +0.000 A 
ATOM     12  C   UNL     1      -0.890  11.199  22.361  0.00  0.00    +0.000 A 
ATOM     13  C   UNL     1      -0.318  11.060  21.086  0.00  0.00    +0.000 A 
ATOM     14  C   UNL     1      -0.001  12.241  20.405  0.00  0.00    +0.000 A 
ATOM     15  C   UNL     1      -0.213  13.505  20.978  0.00  0.00    +0.000 A 
BRANCH  10  17
ATOM     16  C   UNL     1      -1.395  14.665  24.271  0.00  0.00    +0.000 C 
ATOM     17  O   UNL     1      -1.045  14.786  22.896  0.00  0.00    +0.000 OA
ENDBRANCH  10  17
ENDBRANCH   2  13
ENDBRANCH   1   6
BRANCH   1  18
ATOM     18  C   UNL     1       1.797   4.121  19.424  0.00  0.00    +0.000 C 
ATOM     19  C   UNL     1       0.528   3.511  20.036  0.00  0.00    +0.000 C 
BRANCH  18  20
ATOM     20  S   UNL     1       3.156   2.923  19.361  0.00  0.00    +0.000 S 
ATOM     21  O   UNL     1       3.803   2.836  20.648  0.00  0.00    +0.000 OA
ATOM     22  O   UNL     1       2.661   1.722  18.710  0.00  0.00    +0.000 OA
BRANCH  20  23
ATOM     23  C   UNL     1       4.353   3.668  18.270  0.00  0.00    +0.000 A 
ATOM     24  C   UNL     1       4.124   3.785  16.885  0.00  0.00    +0.000 A 
ATOM     25  C   UNL     1       5.049   4.460  16.084  0.00  0.00    +0.000 A 
ATOM     26  C   UNL     1       6.181   5.020  16.670  0.00  0.00    +0.000 A 
ATOM     27  C   UNL     1       6.442   4.793  18.021  0.00  0.00    +0.000 A 
ATOM     28  C   UNL     1       5.540   4.130  18.838  0.00  0.00    +0.000 A 
ATOM     29  N   UNL     1       7.627   5.304  18.591  0.00  0.00    +0.000 N 
ATOM     30  C   UNL     1       7.860   6.605  18.184  0.00  0.00    +0.000 C 
ATOM     31  O   UNL     1       8.178   7.500  18.958  0.00  0.00    +0.000 OA
ATOM     32  C   UNL     1       7.683   6.806  16.671  0.00  0.00    +0.000 C 
ATOM     33  O   UNL     1       7.026   5.784  15.907  0.00  0.00    +0.000 OA
ATOM     34  H   UNL     1       8.381   4.758  18.167  0.00  0.00    +0.000 HD
ENDBRANCH  20  23
ENDBRANCH  18  20
ENDBRANCH   1  18
TORSDOF 6
ENDMDL
MODEL 4
REMARK VINA RESULT:      -8.0      1.167      1.279
REMARK  Name = 
REMARK  8 active torsions:
REMARK  status: ('A' for Active; 'I' for Inactive)
REMARK    1  A    between atoms: C_1  and  O_2
REMARK    2  A    between atoms: O_2  and  C_3
REMARK    3  A    between atoms: C_6  and  N_7
REMARK    4  A    between atoms: C_11  and  C_13
REMARK    5  A    between atoms: C_13  and  C_14
REMARK    6  A    between atoms: C_14  and  C_15
REMARK    7  A    between atoms: C_14  and  S_16
REMARK    8  A    between atoms: S_16  and  C_19
REMARK                            x       y       z     vdW  Elec       q    Type
REMARK                         _______ _______ _______ _____ _____    ______ ____
ROOT
ATOM      1  C   UNL     1       2.299   6.158  19.521  0.00  0.00    +0.000 C 
ENDROOT
BRANCH   1   6
ATOM      2  N   UNL     1      -0.337  10.260  20.779  0.00  0.00    +0.000 N 
ATOM      3  C   UNL     1       0.014  10.356  19.347  0.00  0.00    +0.000 C 
ATOM      4  C   UNL     1       1.463   9.902  19.074  0.00  0.00    +0.000 C 
ATOM      5  N   UNL     1       1.731   8.597  19.696  0.00  0.00    +0.000 N 
ATOM      6  C   UNL     1       2.192   7.553  18.923  0.00  0.00    +0.000 C 
ATOM      7  O   UNL     1       2.458   7.692  17.725  0.00  0.00    +0.000 OA
ATOM      8  C   UNL     1       1.478   8.603  21.144  0.00  0.00    +0.000 C 
ATOM      9  C   UNL     1       0.015   8.989  21.441  0.00  0.00    +0.000 C 
BRANCH   2  13
ATOM     10  C   UNL     1      -1.212  13.610  23.204  0.00  0.00    +0.000 A 
ATOM     11  C   UNL     1      -1.893  12.409  23.371  0.00  0.00    +0.000 A 
ATOM     12  C   UNL     1      -1.587  11.305  22.565  0.00  0.00    +0.000 A 
ATOM     13  C   UNL     1      -0.611  11.370  21.559  0.00  0.00    +0.000 A 
ATOM     14  C   UNL     1       0.035  12.600  21.386  0.00  0.00    +0.000 A 
ATOM     15  C   UNL     1      -0.254  13.708  22.198  0.00  0.00    +0.000 A 
BRANCH  10  17
ATOM     16  C   UNL     1      -2.967  14.610  24.426  0.00  0.00    +0.000 C 
ATOM     17  O   UNL     1      -1.599  14.627  24.029  0.00  0.00    +0.000 OA
ENDBRANCH  10  17
ENDBRANCH   2  13
ENDBRANCH   1   6
BRANCH   1  18
ATOM     18  C   UNL     1       2.627   5.103  18.455  0.00  0.00    +0.000 C 
ATOM     19  C   UNL     1       1.518   4.042  18.401  0.00  0.00    +0.000 C 
BRANCH  18  20
ATOM     20  S   UNL     1       4.246   4.368  18.801  0.00  0.00    +0.000 S 
ATOM     21  O   UNL     1       4.852   5.011  19.942  0.00  0.00    +0.000 OA
ATOM     22  O   UNL     1       4.095   2.923  18.773  0.00  0.00    +0.000 OA
BRANCH  20  23
ATOM     23  C   UNL     1       5.250   4.827  17.400  0.00  0.00    +0.000 A 
ATOM     24  C   UNL     1       6.472   5.509  17.555  0.00  0.00    +0.000 A 
ATOM     25  C   UNL     1       7.269   5.764  16.436  0.00  0.00    +0.000 A 
ATOM     26  C   UNL     1       6.849   5.328  15.182  0.00  0.00    +0.000 A 
ATOM     27  C   UNL     1       5.585   4.757  15.040  0.00  0.00    +0.000 A 
ATOM     28  C   UNL     1       4.776   4.490  16.132  0.00  0.00    +0.000 A 
ATOM     29  N   UNL     1       5.137   4.383  13.755  0.00  0.00    +0.000 N 
ATOM     30  C   UNL     1       6.131   3.733  13.046  0.00  0.00    +0.000 C 
ATOM     31  O   UNL     1       5.937   2.696  12.422  0.00  0.00    +0.000 OA
ATOM     32  C   UNL     1       7.490   4.446  13.119  0.00  0.00    +0.000 C 
ATOM     33  O   UNL     1       7.684   5.471  14.105  0.00  0.00    +0.000 OA
ATOM     34  H   UNL     1       4.994   5.265  13.257  0.00  0.00    +0.000 HD
ENDBRANCH  20  23
ENDBRANCH  18  20
ENDBRANCH   1  18
TORSDOF 6
ENDMDL
MODEL 5
REMARK VINA RESULT:      -7.9      3.775     11.821
REMARK  Name = 
REMARK  8 active torsions:
REMARK  status: ('A' for Active; 'I' for Inactive)
REMARK    1  A    between atoms: C_1  and  O_2
REMARK    2  A    between atoms: O_2  and  C_3
REMARK    3  A    between atoms: C_6  and  N_7
REMARK    4  A    between atoms: C_11  and  C_13
REMARK    5  A    between atoms: C_13  and  C_14
REMARK    6  A    between atoms: C_14  and  C_15
REMARK    7  A    between atoms: C_14  and  S_16
REMARK    8  A    between atoms: S_16  and  C_19
REMARK                            x       y       z     vdW  Elec       q    Type
REMARK                         _______ _______ _______ _____ _____    ______ ____
ROOT
ATOM      1  C   UNL     1      -1.871  12.209  20.320  0.00  0.00    +0.000 C 
ENDROOT
BRANCH   1   6
ATOM      2  N   UNL     1       1.682   8.804  19.251  0.00  0.00    +0.000 N 
ATOM      3  C   UNL     1       1.392   9.572  18.023  0.00  0.00    +0.000 C 
ATOM      4  C   UNL     1      -0.119   9.823  17.839  0.00  0.00    +0.000 C 
ATOM      5  N   UNL     1      -0.716  10.364  19.068  0.00  0.00    +0.000 N 
ATOM      6  C   UNL     1      -1.408  11.555  19.026  0.00  0.00    +0.000 C 
ATOM      7  O   UNL     1      -1.610  12.158  17.967  0.00  0.00    +0.000 OA
ATOM      8  C   UNL     1      -0.495   9.491  20.230  0.00  0.00    +0.000 C 
ATOM      9  C   UNL     1       1.012   9.279  20.477  0.00  0.00    +0.000 C 
BRANCH   2  13
ATOM     10  C   UNL     1       3.335   4.915  19.120  0.00  0.00    +0.000 A 
ATOM     11  C   UNL     1       3.528   5.810  18.073  0.00  0.00    +0.000 A 
ATOM     12  C   UNL     1       2.981   7.098  18.134  0.00  0.00    +0.000 A 
ATOM     13  C   UNL     1       2.210   7.525  19.226  0.00  0.00    +0.000 A 
ATOM     14  C   UNL     1       2.000   6.595  20.251  0.00  0.00    +0.000 A 
ATOM     15  C   UNL     1       2.557   5.307  20.207  0.00  0.00    +0.000 A 
BRANCH  10  17
ATOM     16  C   UNL     1       3.512   2.986  17.772  0.00  0.00    +0.000 C 
ATOM     17  O   UNL     1       3.897   3.682  18.953  0.00  0.00    +0.000 OA
ENDBRANCH  10  17
ENDBRANCH   2  13
ENDBRANCH   1   6
BRANCH   1  18
ATOM     18  C   UNL     1      -0.888  13.287  20.797  0.00  0.00    +0.000 C 
ATOM     19  C   UNL     1       0.496  13.055  20.173  0.00  0.00    +0.000 C 
BRANCH  18  20
ATOM     20  S   UNL     1      -0.817  13.291  22.608  0.00  0.00    +0.000 S 
ATOM     21  O   UNL     1      -0.717  11.939  23.105  0.00  0.00    +0.000 OA
ATOM     22  O   UNL     1       0.157  14.290  23.013  0.00  0.00    +0.000 OA
BRANCH  20  23
ATOM     23  C   UNL     1      -2.424  13.873  23.113  0.00  0.00    +0.000 A 
ATOM     24  C   UNL     1      -2.845  15.194  22.870  0.00  0.00    +0.000 A 
ATOM     25  C   UNL     1      -4.148  15.578  23.200  0.00  0.00    +0.000 A 
ATOM     26  C   UNL     1      -5.018  14.643  23.754  0.00  0.00    +0.000 A 
ATOM     27  C   UNL     1      -4.543  13.375  24.089  0.00  0.00    +0.000 A 
ATOM     28  C   UNL     1      -3.258  12.968  23.771  0.00  0.00    +0.000 A 
ATOM     29  N   UNL     1      -5.412  12.456  24.715  0.00  0.00    +0.000 N 
ATOM     30  C   UNL     1      -6.656  12.450  24.112  0.00  0.00    +0.000 C 
ATOM     31  O   UNL     1      -7.249  11.419  23.815  0.00  0.00    +0.000 OA
ATOM     32  C   UNL     1      -7.213  13.860  23.861  0.00  0.00    +0.000 C 
ATOM     33  O   UNL     1      -6.328  14.984  23.966  0.00  0.00    +0.000 OA
ATOM     34  H   UNL     1      -5.575  12.840  25.649  0.00  0.00    +0.000 HD
ENDBRANCH  20  23
ENDBRANCH  18  20
ENDBRANCH   1  18
TORSDOF 6
ENDMDL
MODEL 6
REMARK VINA RESULT:      -7.8      3.827     11.820
REMARK  Name = 
REMARK  8 active torsions:
REMARK  status: ('A' for Active; 'I' for Inactive)
REMARK    1  A    between atoms: C_1  and  O_2
REMARK    2  A    between atoms: O_2  and  C_3
REMARK    3  A    between atoms: C_6  and  N_7
REMARK    4  A    between atoms: C_11  and  C_13
REMARK    5  A    between atoms: C_13  and  C_14
REMARK    6  A    between atoms: C_14  and  C_15
REMARK    7  A    between atoms: C_14  and  S_16
REMARK    8  A    between atoms: S_16  and  C_19
REMARK                            x       y       z     vdW  Elec       q    Type
REMARK                         _______ _______ _______ _____ _____    ______ ____
ROOT
ATOM      1  C   UNL     1      -0.018  12.442  20.314  0.00  0.00    +0.000 C 
ENDROOT
BRANCH   1   6
ATOM      2  N   UNL     1       2.121   7.981  19.379  0.00  0.00    +0.000 N 
ATOM      3  C   UNL     1       2.121   8.766  18.128  0.00  0.00    +0.000 C 
ATOM      4  C   UNL     1       0.794   9.524  17.918  0.00  0.00    +0.000 C 
ATOM      5  N   UNL     1       0.421  10.275  19.126  0.00  0.00    +0.000 N 
ATOM      6  C   UNL     1       0.189  11.631  19.044  0.00  0.00    +0.000 C 
ATOM      7  O   UNL     1       0.214  12.236  17.967  0.00  0.00    +0.000 OA
ATOM      8  C   UNL     1       0.320   9.414  20.313  0.00  0.00    +0.000 C 
ATOM      9  C   UNL     1       1.657   8.696  20.584  0.00  0.00    +0.000 C 
BRANCH   2  13
ATOM     10  C   UNL     1       2.304   3.757  19.367  0.00  0.00    +0.000 A 
ATOM     11  C   UNL     1       2.697   4.493  18.254  0.00  0.00    +0.000 A 
ATOM     12  C   UNL     1       2.637   5.892  18.275  0.00  0.00    +0.000 A 
ATOM     13  C   UNL     1       2.168   6.598  19.395  0.00  0.00    +0.000 A 
ATOM     14  C   UNL     1       1.746   5.834  20.489  0.00  0.00    +0.000 A 
ATOM     15  C   UNL     1       1.815   4.431  20.483  0.00  0.00    +0.000 A 
BRANCH  10  17
ATOM     16  C   UNL     1       2.744   1.929  17.940  0.00  0.00    +0.000 C 
ATOM     17  O   UNL     1       2.386   2.400  19.235  0.00  0.00    +0.000 OA
ENDBRANCH  10  17
ENDBRANCH   2  13
ENDBRANCH   1   6
BRANCH   1  18
ATOM     18  C   UNL     1      -1.316  12.052  21.035  0.00  0.00    +0.000 C 
ATOM     19  C   UNL     1      -2.509  12.794  20.416  0.00  0.00    +0.000 C 
BRANCH  18  20
ATOM     20  S   UNL     1      -1.158  12.392  22.808  0.00  0.00    +0.000 S 
ATOM     21  O   UNL     1      -1.136  11.155  23.552  0.00  0.00    +0.000 OA
ATOM     22  O   UNL     1      -0.094  13.366  22.981  0.00  0.00    +0.000 OA
BRANCH  20  23
ATOM     23  C   UNL     1      -2.691  13.190  23.245  0.00  0.00    +0.000 A 
ATOM     24  C   UNL     1      -2.897  14.567  23.034  0.00  0.00    +0.000 A 
ATOM     25  C   UNL     1      -4.148  15.129  23.305  0.00  0.00    +0.000 A 
ATOM     26  C   UNL     1      -5.178  14.316  23.768  0.00  0.00    +0.000 A 
ATOM     27  C   UNL     1      -4.917  12.981  24.076  0.00  0.00    +0.000 A 
ATOM     28  C   UNL     1      -3.688  12.398  23.815  0.00  0.00    +0.000 A 
ATOM     29  N   UNL     1      -5.949  12.182  24.612  0.00  0.00    +0.000 N 
ATOM     30  C   UNL     1      -7.140  12.381  23.939  0.00  0.00    +0.000 C 
ATOM     31  O   UNL     1      -7.858  11.460  23.566  0.00  0.00    +0.000 OA
ATOM     32  C   UNL     1      -7.468  13.866  23.716  0.00  0.00    +0.000 C 
ATOM     33  O   UNL     1      -6.435  14.842  23.919  0.00  0.00    +0.000 OA
ATOM     34  H   UNL     1      -6.112  12.555  25.550  0.00  0.00    +0.000 HD
ENDBRANCH  20  23
ENDBRANCH  18  20
ENDBRANCH   1  18
TORSDOF 6
ENDMDL
MODEL 7
REMARK VINA RESULT:      -7.8      4.152     11.047
REMARK  Name = 
REMARK  8 active torsions:
REMARK  status: ('A' for Active; 'I' for Inactive)
REMARK    1  A    between atoms: C_1  and  O_2
REMARK    2  A    between atoms: O_2  and  C_3
REMARK    3  A    between atoms: C_6  and  N_7
REMARK    4  A    between atoms: C_11  and  C_13
REMARK    5  A    between atoms: C_13  and  C_14
REMARK    6  A    between atoms: C_14  and  C_15
REMARK    7  A    between atoms: C_14  and  S_16
REMARK    8  A    between atoms: S_16  and  C_19
REMARK                            x       y       z     vdW  Elec       q    Type
REMARK                         _______ _______ _______ _____ _____    ______ ____
ROOT
ATOM      1  C   UNL     1       0.215  11.894  21.210  0.00  0.00    +0.000 C 
ENDROOT
BRANCH   1   6
ATOM      2  N   UNL     1       2.214   7.577  19.558  0.00  0.00    +0.000 N 
ATOM      3  C   UNL     1       2.325   8.582  18.481  0.00  0.00    +0.000 C 
ATOM      4  C   UNL     1       1.048   9.436  18.349  0.00  0.00    +0.000 C 
ATOM      5  N   UNL     1       0.633   9.967  19.656  0.00  0.00    +0.000 N 
ATOM      6  C   UNL     1       0.466  11.325  19.821  0.00  0.00    +0.000 C 
ATOM      7  O   UNL     1       0.584  12.118  18.881  0.00  0.00    +0.000 OA
ATOM      8  C   UNL     1       0.421   8.905  20.651  0.00  0.00    +0.000 C 
ATOM      9  C   UNL     1       1.707   8.078  20.851  0.00  0.00    +0.000 C 
BRANCH   2  13
ATOM     10  C   UNL     1       2.203   3.429  18.746  0.00  0.00    +0.000 A 
ATOM     11  C   UNL     1       2.466   4.353  17.742  0.00  0.00    +0.000 A 
ATOM     12  C   UNL     1       2.474   5.724  18.027  0.00  0.00    +0.000 A 
ATOM     13  C   UNL     1       2.200   6.215  19.313  0.00  0.00    +0.000 A 
ATOM     14  C   UNL     1       1.902   5.267  20.300  0.00  0.00    +0.000 A 
ATOM     15  C   UNL     1       1.906   3.890  20.027  0.00  0.00    +0.000 A 
BRANCH  10  17
ATOM     16  C   UNL     1       3.444   1.436  18.501  0.00  0.00    +0.000 C 
ATOM     17  O   UNL     1       2.203   2.119  18.358  0.00  0.00    +0.000 OA
ENDBRANCH  10  17
ENDBRANCH   2  13
ENDBRANCH   1   6
BRANCH   1  18
ATOM     18  C   UNL     1      -0.421  13.289  21.148  0.00  0.00    +0.000 C 
ATOM     19  C   UNL     1       0.558  14.341  21.689  0.00  0.00    +0.000 C 
BRANCH  18  20
ATOM     20  S   UNL     1      -1.984  13.290  22.064  0.00  0.00    +0.000 S 
ATOM     21  O   UNL     1      -1.961  12.275  23.090  0.00  0.00    +0.000 OA
ATOM     22  O   UNL     1      -2.299  14.667  22.407  0.00  0.00    +0.000 OA
BRANCH  20  23
ATOM     23  C   UNL     1      -3.195  12.745  20.875  0.00  0.00    +0.000 A 
ATOM     24  C   UNL     1      -2.844  12.431  19.548  0.00  0.00    +0.000 A 
ATOM     25  C   UNL     1      -3.810  11.918  18.678  0.00  0.00    +0.000 A 
ATOM     26  C   UNL     1      -5.107  11.711  19.140  0.00  0.00    +0.000 A 
ATOM     27  C   UNL     1      -5.457  12.135  20.422  0.00  0.00    +0.000 A 
ATOM     28  C   UNL     1      -4.519  12.644  21.306  0.00  0.00    +0.000 A 
ATOM     29  N   UNL     1      -6.790  11.986  20.858  0.00  0.00    +0.000 N 
ATOM     30  C   UNL     1      -7.295  10.744  20.519  0.00  0.00    +0.000 C 
ATOM     31  O   UNL     1      -7.916  10.038  21.305  0.00  0.00    +0.000 OA
ATOM     32  C   UNL     1      -7.000  10.348  19.064  0.00  0.00    +0.000 C 
ATOM     33  O   UNL     1      -6.022  11.097  18.326  0.00  0.00    +0.000 OA
ATOM     34  H   UNL     1      -7.328  12.650  20.295  0.00  0.00    +0.000 HD
ENDBRANCH  20  23
ENDBRANCH  18  20
ENDBRANCH   1  18
TORSDOF 6
ENDMDL
MODEL 8
REMARK VINA RESULT:      -7.8      1.048      1.164
REMARK  Name = 
REMARK  8 active torsions:
REMARK  status: ('A' for Active; 'I' for Inactive)
REMARK    1  A    between atoms: C_1  and  O_2
REMARK    2  A    between atoms: O_2  and  C_3
REMARK    3  A    between atoms: C_6  and  N_7
REMARK    4  A    between atoms: C_11  and  C_13
REMARK    5  A    between atoms: C_13  and  C_14
REMARK    6  A    between atoms: C_14  and  C_15
REMARK    7  A    between atoms: C_14  and  S_16
REMARK    8  A    between atoms: S_16  and  C_19
REMARK                            x       y       z     vdW  Elec       q    Type
REMARK                         _______ _______ _______ _____ _____    ______ ____
ROOT
ATOM      1  C   UNL     1       2.444   5.856  19.343  0.00  0.00    +0.000 C 
ENDROOT
BRANCH   1   6
ATOM      2  N   UNL     1      -0.225  10.106  19.753  0.00  0.00    +0.000 N 
ATOM      3  C   UNL     1       0.331  10.038  18.386  0.00  0.00    +0.000 C 
ATOM      4  C   UNL     1       1.791   9.538  18.378  0.00  0.00    +0.000 C 
ATOM      5  N   UNL     1       1.929   8.307  19.169  0.00  0.00    +0.000 N 
ATOM      6  C   UNL     1       2.465   7.178  18.589  0.00  0.00    +0.000 C 
ATOM      7  O   UNL     1       2.905   7.180  17.434  0.00  0.00    +0.000 OA
ATOM      8  C   UNL     1       1.470   8.477  20.555  0.00  0.00    +0.000 C 
ATOM      9  C   UNL     1      -0.009   8.912  20.593  0.00  0.00    +0.000 C 
BRANCH   2  13
ATOM     10  C   UNL     1      -1.364  13.741  21.587  0.00  0.00    +0.000 A 
ATOM     11  C   UNL     1      -2.229  13.071  20.729  0.00  0.00    +0.000 A 
ATOM     12  C   UNL     1      -1.841  11.864  20.134  0.00  0.00    +0.000 A 
ATOM     13  C   UNL     1      -0.576  11.300  20.360  0.00  0.00    +0.000 A 
ATOM     14  C   UNL     1       0.291  12.010  21.199  0.00  0.00    +0.000 A 
ATOM     15  C   UNL     1      -0.094  13.214  21.812  0.00  0.00    +0.000 A 
BRANCH  10  17
ATOM     16  C   UNL     1      -0.898  15.675  22.857  0.00  0.00    +0.000 C 
ATOM     17  O   UNL     1      -1.835  14.916  22.099  0.00  0.00    +0.000 OA
ENDBRANCH  10  17
ENDBRANCH   2  13
ENDBRANCH   1   6
BRANCH   1  18
ATOM     18  C   UNL     1       2.471   4.654  18.388  0.00  0.00    +0.000 C 
ATOM     19  C   UNL     1       1.246   3.760  18.630  0.00  0.00    +0.000 C 
BRANCH  18  20
ATOM     20  S   UNL     1       4.022   3.741  18.597  0.00  0.00    +0.000 S 
ATOM     21  O   UNL     1       4.636   4.085  19.857  0.00  0.00    +0.000 OA
ATOM     22  O   UNL     1       3.767   2.349  18.266  0.00  0.00    +0.000 OA
BRANCH  20  23
ATOM     23  C   UNL     1       5.098   4.402  17.340  0.00  0.00    +0.000 A 
ATOM     24  C   UNL     1       6.275   5.104  17.664  0.00  0.00    +0.000 A 
ATOM     25  C   UNL     1       7.136   5.522  16.645  0.00  0.00    +0.000 A 
ATOM     26  C   UNL     1       6.824   5.227  15.321  0.00  0.00    +0.000 A 
ATOM     27  C   UNL     1       5.599   4.632  15.019  0.00  0.00    +0.000 A 
ATOM     28  C   UNL     1       4.729   4.205  16.009  0.00  0.00    +0.000 A 
ATOM     29  N   UNL     1       5.259   4.400  13.669  0.00  0.00    +0.000 N 
ATOM     30  C   UNL     1       6.327   3.878  12.963  0.00  0.00    +0.000 C 
ATOM     31  O   UNL     1       6.224   2.918  12.209  0.00  0.00    +0.000 OA
ATOM     32  C   UNL     1       7.645   4.625  13.221  0.00  0.00    +0.000 C 
ATOM     33  O   UNL     1       7.724   5.529  14.333  0.00  0.00    +0.000 OA
ATOM     34  H   UNL     1       5.111   5.331  13.270  0.00  0.00    +0.000 HD
ENDBRANCH  20  23
ENDBRANCH  18  20
ENDBRANCH   1  18
TORSDOF 6
ENDMDL
MODEL 9
REMARK VINA RESULT:      -7.7      3.881     10.587
REMARK  Name = 
REMARK  8 active torsions:
REMARK  status: ('A' for Active; 'I' for Inactive)
REMARK    1  A    between atoms: C_1  and  O_2
REMARK    2  A    between atoms: O_2  and  C_3
REMARK    3  A    between atoms: C_6  and  N_7
REMARK    4  A    between atoms: C_11  and  C_13
REMARK    5  A    between atoms: C_13  and  C_14
REMARK    6  A    between atoms: C_14  and  C_15
REMARK    7  A    between atoms: C_14  and  S_16
REMARK    8  A    between atoms: S_16  and  C_19
REMARK                            x       y       z     vdW  Elec       q    Type
REMARK                         _______ _______ _______ _____ _____    ______ ____
ROOT
ATOM      1  C   UNL     1      -0.422   9.750  20.450  0.00  0.00    +0.000 C 
ENDROOT
BRANCH   1   6
ATOM      2  N   UNL     1       2.556   6.342  18.245  0.00  0.00    +0.000 N 
ATOM      3  C   UNL     1       2.129   5.806  19.553  0.00  0.00    +0.000 C 
ATOM      4  C   UNL     1       2.157   6.882  20.658  0.00  0.00    +0.000 C 
ATOM      5  N   UNL     1       1.455   8.100  20.223  0.00  0.00    +0.000 N 
ATOM      6  C   UNL     1       0.422   8.601  20.984  0.00  0.00    +0.000 C 
ATOM      7  O   UNL     1       0.103   8.102  22.068  0.00  0.00    +0.000 OA
ATOM      8  C   UNL     1       2.009   8.651  18.978  0.00  0.00    +0.000 C 
ATOM      9  C   UNL     1       1.931   7.615  17.838  0.00  0.00    +0.000 C 
BRANCH   2  13
ATOM     10  C   UNL     1       6.126   5.145  16.321  0.00  0.00    +0.000 A 
ATOM     11  C   UNL     1       5.937   6.462  16.722  0.00  0.00    +0.000 A 
ATOM     12  C   UNL     1       4.752   6.843  17.365  0.00  0.00    +0.000 A 
ATOM     13  C   UNL     1       3.715   5.929  17.609  0.00  0.00    +0.000 A 
ATOM     14  C   UNL     1       3.913   4.617  17.163  0.00  0.00    +0.000 A 
ATOM     15  C   UNL     1       5.103   4.222  16.531  0.00  0.00    +0.000 A 
BRANCH  10  17
ATOM     16  C   UNL     1       7.246   4.834  14.266  0.00  0.00    +0.000 C 
ATOM     17  O   UNL     1       7.308   4.884  15.688  0.00  0.00    +0.000 OA
ENDBRANCH  10  17
ENDBRANCH   2  13
ENDBRANCH   1   6
BRANCH   1  18
ATOM     18  C   UNL     1      -0.011  11.094  21.067  0.00  0.00    +0.000 C 
ATOM     19  C   UNL     1      -0.847  11.377  22.324  0.00  0.00    +0.000 C 
BRANCH  18  20
ATOM     20  S   UNL     1      -0.183  12.411  19.835  0.00  0.00    +0.000 S 
ATOM     21  O   UNL     1      -0.322  13.690  20.489  0.00  0.00    +0.000 OA
ATOM     22  O   UNL     1       0.845  12.215  18.827  0.00  0.00    +0.000 OA
BRANCH  20  23
ATOM     23  C   UNL     1      -1.757  12.092  19.062  0.00  0.00    +0.000 A 
ATOM     24  C   UNL     1      -1.853  11.477  17.799  0.00  0.00    +0.000 A 
ATOM     25  C   UNL     1      -3.109  11.162  17.274  0.00  0.00    +0.000 A 
ATOM     26  C   UNL     1      -4.252  11.450  18.016  0.00  0.00    +0.000 A 
ATOM     27  C   UNL     1      -4.137  12.162  19.210  0.00  0.00    +0.000 A 
ATOM     28  C   UNL     1      -2.904  12.483  19.753  0.00  0.00    +0.000 A 
ATOM     29  N   UNL     1      -5.305  12.512  19.920  0.00  0.00    +0.000 N 
ATOM     30  C   UNL     1      -6.194  11.455  19.978  0.00  0.00    +0.000 C 
ATOM     31  O   UNL     1      -6.761  11.115  21.011  0.00  0.00    +0.000 OA
ATOM     32  C   UNL     1      -6.397  10.760  18.623  0.00  0.00    +0.000 C 
ATOM     33  O   UNL     1      -5.475  11.034  17.558  0.00  0.00    +0.000 OA
ATOM     34  H   UNL     1      -5.769  13.213  19.336  0.00  0.00    +0.000 HD
ENDBRANCH  20  23
ENDBRANCH  18  20
ENDBRANCH   1  18
TORSDOF 6
ENDMDL
