MODEL 1
REMARK VINA RESULT:      -5.9      0.000      0.000
REMARK  Name = 
REMARK  4 active torsions:
REMARK  status: ('A' for Active; 'I' for Inactive)
REMARK    1  A    between atoms: C_1  and  C_2
REMARK    2  A    between atoms: C_3  and  C_4
REMARK    3  A    between atoms: N_5  and  N_6
REMARK    4  A    between atoms: C_7  and  C_9
REMARK                            x       y       z     vdW  Elec       q    Type
REMARK                         _______ _______ _______ _____ _____    ______ ____
ROOT
ATOM      1  N   UNL     1       4.659   3.442  17.556  0.00  0.00    +0.000 N 
ATOM      2  C   UNL     1       3.289   3.310  17.740  0.00  0.00    +0.000 C 
ATOM      3  O   UNL     1       2.464   3.204  16.835  0.00  0.00    +0.000 OA
ATOM      4  H   UNL     1       5.309   3.409  18.330  0.00  0.00    +0.000 HD
ENDROOT
BRANCH   2   5
ATOM      5  C   UNL     1       2.801   3.272  19.146  0.00  0.00    +0.000 A 
ATOM      6  C   UNL     1       3.399   2.486  20.130  0.00  0.00    +0.000 A 
ATOM      7  C   UNL     1       2.887   2.560  21.414  0.00  0.00    +0.000 A 
ATOM      8  N   UNL     1       1.845   3.343  21.767  0.00  0.00    +0.000 NA
ATOM      9  C   UNL     1       1.296   4.106  20.798  0.00  0.00    +0.000 A 
ATOM     10  C   UNL     1       1.735   4.107  19.488  0.00  0.00    +0.000 A 
ENDBRANCH   2   5
BRANCH   1  12
ATOM     11  C   UNL     1       6.006   4.395  16.000  0.00  0.00    +0.000 C 
ATOM     12  N   UNL     1       5.142   3.475  16.281  0.00  0.00    +0.000 NA
BRANCH  11  15
ATOM     13  C   UNL     1       6.656   3.837  12.242  0.00  0.00    +0.000 C 
ATOM     14  C   UNL     1       6.083   3.754  13.622  0.00  0.00    +0.000 C 
ATOM     15  C   UNL     1       6.572   4.479  14.636  0.00  0.00    +0.000 C 
ENDBRANCH  11  15
ENDBRANCH   1  12
TORSDOF 3
ENDMDL
MODEL 2
REMARK VINA RESULT:      -5.9      0.655      1.353
REMARK  Name = 
REMARK  4 active torsions:
REMARK  status: ('A' for Active; 'I' for Inactive)
REMARK    1  A    between atoms: C_1  and  C_2
REMARK    2  A    between atoms: C_3  and  C_4
REMARK    3  A    between atoms: N_5  and  N_6
REMARK    4  A    between atoms: C_7  and  C_9
REMARK                            x       y       z     vdW  Elec       q    Type
REMARK                         _______ _______ _______ _____ _____    ______ ____
ROOT
ATOM      1  N   UNL     1       4.227   4.382  17.669  0.00  0.00    +0.000 N 
ATOM      2  C   UNL     1       3.041   3.671  17.798  0.00  0.00    +0.000 C 
ATOM      3  O   UNL     1       2.343   3.290  16.862  0.00  0.00    +0.000 OA
ATOM      4  H   UNL     1       4.827   4.573  18.461  0.00  0.00    +0.000 HD
ENDROOT
BRANCH   2   5
ATOM      5  C   UNL     1       2.610   3.333  19.182  0.00  0.00    +0.000 A 
ATOM      6  C   UNL     1       1.290   3.461  19.613  0.00  0.00    +0.000 A 
ATOM      7  C   UNL     1       0.995   3.078  20.911  0.00  0.00    +0.000 A 
ATOM      8  N   UNL     1       1.906   2.592  21.780  0.00  0.00    +0.000 NA
ATOM      9  C   UNL     1       3.173   2.462  21.331  0.00  0.00    +0.000 A 
ATOM     10  C   UNL     1       3.569   2.812  20.055  0.00  0.00    +0.000 A 
ENDBRANCH   2   5
BRANCH   1  12
ATOM     11  C   UNL     1       5.730   4.124  15.990  0.00  0.00    +0.000 C 
ATOM     12  N   UNL     1       4.657   4.705  16.415  0.00  0.00    +0.000 NA
BRANCH  11  15
ATOM     13  C   UNL     1       6.595   3.889  12.241  0.00  0.00    +0.000 C 
ATOM     14  C   UNL     1       6.075   3.583  13.611  0.00  0.00    +0.000 C 
ATOM     15  C   UNL     1       6.244   4.427  14.637  0.00  0.00    +0.000 C 
ENDBRANCH  11  15
ENDBRANCH   1  12
TORSDOF 3
ENDMDL
MODEL 3
REMARK VINA RESULT:      -5.9      3.416      4.538
REMARK  Name = 
REMARK  4 active torsions:
REMARK  status: ('A' for Active; 'I' for Inactive)
REMARK    1  A    between atoms: C_1  and  C_2
REMARK    2  A    between atoms: C_3  and  C_4
REMARK    3  A    between atoms: N_5  and  N_6
REMARK    4  A    between atoms: C_7  and  C_9
REMARK                            x       y       z     vdW  Elec       q    Type
REMARK                         _______ _______ _______ _____ _____    ______ ____
ROOT
ATOM      1  N   UNL     1       6.335   4.056  14.788  0.00  0.00    +0.000 N 
ATOM      2  C   UNL     1       6.025   5.239  15.445  0.00  0.00    +0.000 C 
ATOM      3  O   UNL     1       5.565   6.244  14.907  0.00  0.00    +0.000 OA
ATOM      4  H   UNL     1       6.601   3.218  15.289  0.00  0.00    +0.000 HD
ENDROOT
BRANCH   2   5
ATOM      5  C   UNL     1       6.250   5.268  16.916  0.00  0.00    +0.000 A 
ATOM      6  C   UNL     1       5.435   4.585  17.818  0.00  0.00    +0.000 A 
ATOM      7  C   UNL     1       5.763   4.650  19.161  0.00  0.00    +0.000 A 
ATOM      8  N   UNL     1       6.821   5.335  19.647  0.00  0.00    +0.000 NA
ATOM      9  C   UNL     1       7.603   5.972  18.751  0.00  0.00    +0.000 A 
ATOM     10  C   UNL     1       7.363   5.967  17.391  0.00  0.00    +0.000 A 
ENDBRANCH   2   5
BRANCH   1  12
ATOM     11  C   UNL     1       5.010   3.502  13.032  0.00  0.00    +0.000 C 
ATOM     12  N   UNL     1       6.135   3.990  13.440  0.00  0.00    +0.000 NA
BRANCH  11  15
ATOM     13  C   UNL     1       3.221   3.512   9.618  0.00  0.00    +0.000 C 
ATOM     14  C   UNL     1       3.504   3.606  11.084  0.00  0.00    +0.000 C 
ATOM     15  C   UNL     1       4.732   3.410  11.583  0.00  0.00    +0.000 C 
ENDBRANCH  11  15
ENDBRANCH   1  12
TORSDOF 3
ENDMDL
MODEL 4
REMARK VINA RESULT:      -5.8      3.684      4.547
REMARK  Name = 
REMARK  4 active torsions:
REMARK  status: ('A' for Active; 'I' for Inactive)
REMARK    1  A    between atoms: C_1  and  C_2
REMARK    2  A    between atoms: C_3  and  C_4
REMARK    3  A    between atoms: N_5  and  N_6
REMARK    4  A    between atoms: C_7  and  C_9
REMARK                            x       y       z     vdW  Elec       q    Type
REMARK                         _______ _______ _______ _____ _____    ______ ____
ROOT
ATOM      1  N   UNL     1       5.605   5.935  16.965  0.00  0.00    +0.000 N 
ATOM      2  C   UNL     1       4.293   6.109  17.384  0.00  0.00    +0.000 C 
ATOM      3  O   UNL     1       3.761   7.195  17.601  0.00  0.00    +0.000 OA
ATOM      4  H   UNL     1       5.964   5.031  16.688  0.00  0.00    +0.000 HD
ENDROOT
BRANCH   2   5
ATOM      5  C   UNL     1       3.475   4.877  17.557  0.00  0.00    +0.000 A 
ATOM      6  C   UNL     1       4.011   3.594  17.444  0.00  0.00    +0.000 A 
ATOM      7  C   UNL     1       3.165   2.521  17.665  0.00  0.00    +0.000 A 
ATOM      8  N   UNL     1       1.858   2.642  17.980  0.00  0.00    +0.000 NA
ATOM      9  C   UNL     1       1.370   3.895  18.101  0.00  0.00    +0.000 A 
ATOM     10  C   UNL     1       2.130   5.031  17.903  0.00  0.00    +0.000 A 
ENDBRANCH   2   5
BRANCH   1  12
ATOM     11  C   UNL     1       7.353   7.221  17.625  0.00  0.00    +0.000 C 
ATOM     12  N   UNL     1       6.383   7.043  16.790  0.00  0.00    +0.000 NA
BRANCH  11  15
ATOM     13  C   UNL     1       9.231  10.517  18.307  0.00  0.00    +0.000 C 
ATOM     14  C   UNL     1       8.340   9.324  18.448  0.00  0.00    +0.000 C 
ATOM     15  C   UNL     1       8.235   8.400  17.485  0.00  0.00    +0.000 C 
ENDBRANCH  11  15
ENDBRANCH   1  12
TORSDOF 3
ENDMDL
MODEL 5
REMARK VINA RESULT:      -5.8      3.393      4.519
REMARK  Name = 
REMARK  4 active torsions:
REMARK  status: ('A' for Active; 'I' for Inactive)
REMARK    1  A    between atoms: C_1  and  C_2
REMARK    2  A    between atoms: C_3  and  C_4
REMARK    3  A    between atoms: N_5  and  N_6
REMARK    4  A    between atoms: C_7  and  C_9
REMARK                            x       y       z     vdW  Elec       q    Type
REMARK                         _______ _______ _______ _____ _____    ______ ____
ROOT
ATOM      1  N   UNL     1       6.281   3.735  14.452  0.00  0.00    +0.000 N 
ATOM      2  C   UNL     1       5.985   4.891  15.162  0.00  0.00    +0.000 C 
ATOM      3  O   UNL     1       5.496   5.909  14.679  0.00  0.00    +0.000 OA
ATOM      4  H   UNL     1       6.574   2.883  14.912  0.00  0.00    +0.000 HD
ENDROOT
BRANCH   2   5
ATOM      5  C   UNL     1       6.267   4.870  16.624  0.00  0.00    +0.000 A 
ATOM      6  C   UNL     1       7.553   4.720  17.142  0.00  0.00    +0.000 A 
ATOM      7  C   UNL     1       7.702   4.757  18.519  0.00  0.00    +0.000 A 
ATOM      8  N   UNL     1       6.680   4.926  19.384  0.00  0.00    +0.000 NA
ATOM      9  C   UNL     1       5.448   5.086  18.855  0.00  0.00    +0.000 A 
ATOM     10  C   UNL     1       5.194   5.069  17.497  0.00  0.00    +0.000 A 
ENDBRANCH   2   5
BRANCH   1  12
ATOM     11  C   UNL     1       4.868   3.298  12.733  0.00  0.00    +0.000 C 
ATOM     12  N   UNL     1       6.030   3.715  13.111  0.00  0.00    +0.000 NA
BRANCH  11  15
ATOM     13  C   UNL     1       3.073   3.771   9.355  0.00  0.00    +0.000 C 
ATOM     14  C   UNL     1       3.413   3.811  10.812  0.00  0.00    +0.000 C 
ATOM     15  C   UNL     1       4.534   3.258  11.293  0.00  0.00    +0.000 C 
ENDBRANCH  11  15
ENDBRANCH   1  12
TORSDOF 3
ENDMDL
MODEL 6
REMARK VINA RESULT:      -5.8      3.715      4.652
REMARK  Name = 
REMARK  4 active torsions:
REMARK  status: ('A' for Active; 'I' for Inactive)
REMARK    1  A    between atoms: C_1  and  C_2
REMARK    2  A    between atoms: C_3  and  C_4
REMARK    3  A    between atoms: N_5  and  N_6
REMARK    4  A    between atoms: C_7  and  C_9
REMARK                            x       y       z     vdW  Elec       q    Type
REMARK                         _______ _______ _______ _____ _____    ______ ____
ROOT
ATOM      1  N   UNL     1       5.862   5.824  17.672  0.00  0.00    +0.000 N 
ATOM      2  C   UNL     1       4.497   5.692  17.889  0.00  0.00    +0.000 C 
ATOM      3  O   UNL     1       3.684   6.613  17.845  0.00  0.00    +0.000 OA
ATOM      4  H   UNL     1       6.474   5.021  17.604  0.00  0.00    +0.000 HD
ENDROOT
BRANCH   2   5
ATOM      5  C   UNL     1       3.991   4.320  18.171  0.00  0.00    +0.000 A 
ATOM      6  C   UNL     1       3.054   3.680  17.361  0.00  0.00    +0.000 A 
ATOM      7  C   UNL     1       2.687   2.388  17.697  0.00  0.00    +0.000 A 
ATOM      8  N   UNL     1       3.179   1.716  18.760  0.00  0.00    +0.000 NA
ATOM      9  C   UNL     1       4.097   2.353  19.517  0.00  0.00    +0.000 A 
ATOM     10  C   UNL     1       4.533   3.639  19.265  0.00  0.00    +0.000 A 
ENDBRANCH   2   5
BRANCH   1  12
ATOM     11  C   UNL     1       7.534   7.343  17.865  0.00  0.00    +0.000 C 
ATOM     12  N   UNL     1       6.360   7.065  17.404  0.00  0.00    +0.000 NA
BRANCH  11  15
ATOM     13  C   UNL     1       9.259  10.760  18.321  0.00  0.00    +0.000 C 
ATOM     14  C   UNL     1       8.656   9.416  18.585  0.00  0.00    +0.000 C 
ATOM     15  C   UNL     1       8.131   8.670  17.604  0.00  0.00    +0.000 C 
ENDBRANCH  11  15
ENDBRANCH   1  12
TORSDOF 3
ENDMDL
MODEL 7
REMARK VINA RESULT:      -5.7      3.765      4.779
REMARK  Name = 
REMARK  4 active torsions:
REMARK  status: ('A' for Active; 'I' for Inactive)
REMARK    1  A    between atoms: C_1  and  C_2
REMARK    2  A    between atoms: C_3  and  C_4
REMARK    3  A    between atoms: N_5  and  N_6
REMARK    4  A    between atoms: C_7  and  C_9
REMARK                            x       y       z     vdW  Elec       q    Type
REMARK                         _______ _______ _______ _____ _____    ______ ____
ROOT
ATOM      1  N   UNL     1       5.674   5.969  17.045  0.00  0.00    +0.000 N 
ATOM      2  C   UNL     1       4.320   6.189  17.261  0.00  0.00    +0.000 C 
ATOM      3  O   UNL     1       3.767   7.285  17.208  0.00  0.00    +0.000 OA
ATOM      4  H   UNL     1       6.062   5.037  16.985  0.00  0.00    +0.000 HD
ENDROOT
BRANCH   2   5
ATOM      5  C   UNL     1       3.484   4.992  17.555  0.00  0.00    +0.000 A 
ATOM      6  C   UNL     1       2.149   5.082  17.949  0.00  0.00    +0.000 A 
ATOM      7  C   UNL     1       1.457   3.902  18.156  0.00  0.00    +0.000 A 
ATOM      8  N   UNL     1       1.996   2.674  18.002  0.00  0.00    +0.000 NA
ATOM      9  C   UNL     1       3.285   2.615  17.604  0.00  0.00    +0.000 A 
ATOM     10  C   UNL     1       4.061   3.733  17.368  0.00  0.00    +0.000 A 
ENDBRANCH   2   5
BRANCH   1  12
ATOM     11  C   UNL     1       7.118   7.568  17.753  0.00  0.00    +0.000 C 
ATOM     12  N   UNL     1       6.469   7.042  16.767  0.00  0.00    +0.000 NA
BRANCH  11  15
ATOM     13  C   UNL     1       9.463  10.581  18.282  0.00  0.00    +0.000 C 
ATOM     14  C   UNL     1       8.569   9.405  18.522  0.00  0.00    +0.000 C 
ATOM     15  C   UNL     1       8.001   8.729  17.515  0.00  0.00    +0.000 C 
ENDBRANCH  11  15
ENDBRANCH   1  12
TORSDOF 3
ENDMDL
MODEL 8
REMARK VINA RESULT:      -5.7      1.441      1.846
REMARK  Name = 
REMARK  4 active torsions:
REMARK  status: ('A' for Active; 'I' for Inactive)
REMARK    1  A    between atoms: C_1  and  C_2
REMARK    2  A    between atoms: C_3  and  C_4
REMARK    3  A    between atoms: N_5  and  N_6
REMARK    4  A    between atoms: C_7  and  C_9
REMARK                            x       y       z     vdW  Elec       q    Type
REMARK                         _______ _______ _______ _____ _____    ______ ____
ROOT
ATOM      1  N   UNL     1       4.394   3.613  17.194  0.00  0.00    +0.000 N 
ATOM      2  C   UNL     1       4.865   3.899  18.469  0.00  0.00    +0.000 C 
ATOM      3  O   UNL     1       6.032   4.168  18.745  0.00  0.00    +0.000 OA
ATOM      4  H   UNL     1       3.407   3.512  16.998  0.00  0.00    +0.000 HD
ENDROOT
BRANCH   2   5
ATOM      5  C   UNL     1       3.864   3.897  19.570  0.00  0.00    +0.000 A 
ATOM      6  C   UNL     1       3.111   5.022  19.907  0.00  0.00    +0.000 A 
ATOM      7  C   UNL     1       2.179   4.894  20.922  0.00  0.00    +0.000 A 
ATOM      8  N   UNL     1       1.959   3.750  21.605  0.00  0.00    +0.000 NA
ATOM      9  C   UNL     1       2.689   2.672  21.247  0.00  0.00    +0.000 A 
ATOM     10  C   UNL     1       3.641   2.695  20.247  0.00  0.00    +0.000 A 
ENDBRANCH   2   5
BRANCH   1  12
ATOM     11  C   UNL     1       5.283   4.641  15.378  0.00  0.00    +0.000 C 
ATOM     12  N   UNL     1       5.283   3.611  16.159  0.00  0.00    +0.000 NA
BRANCH  11  15
ATOM     13  C   UNL     1       7.118   3.893  12.073  0.00  0.00    +0.000 C 
ATOM     14  C   UNL     1       6.163   3.834  13.223  0.00  0.00    +0.000 C 
ATOM     15  C   UNL     1       6.226   4.701  14.242  0.00  0.00    +0.000 C 
ENDBRANCH  11  15
ENDBRANCH   1  12
TORSDOF 3
ENDMDL
MODEL 9
REMARK VINA RESULT:      -5.7      1.417      1.461
REMARK  Name = 
REMARK  4 active torsions:
REMARK  status: ('A' for Active; 'I' for Inactive)
REMARK    1  A    between atoms: C_1  and  C_2
REMARK    2  A    between atoms: C_3  and  C_4
REMARK    3  A    between atoms: N_5  and  N_6
REMARK    4  A    between atoms: C_7  and  C_9
REMARK                            x       y       z     vdW  Elec       q    Type
REMARK                         _______ _______ _______ _____ _____    ______ ____
ROOT
ATOM      1  N   UNL     1       4.067   3.954  16.995  0.00  0.00    +0.000 N 
ATOM      2  C   UNL     1       3.390   4.863  17.797  0.00  0.00    +0.000 C 
ATOM      3  O   UNL     1       3.352   6.077  17.609  0.00  0.00    +0.000 OA
ATOM      4  H   UNL     1       3.974   2.955  17.121  0.00  0.00    +0.000 HD
ENDROOT
BRANCH   2   5
ATOM      5  C   UNL     1       2.639   4.306  18.955  0.00  0.00    +0.000 A 
ATOM      6  C   UNL     1       2.901   4.679  20.273  0.00  0.00    +0.000 A 
ATOM      7  C   UNL     1       2.112   4.127  21.269  0.00  0.00    +0.000 A 
ATOM      8  N   UNL     1       1.109   3.252  21.038  0.00  0.00    +0.000 NA
ATOM      9  C   UNL     1       0.866   2.923  19.752  0.00  0.00    +0.000 A 
ATOM     10  C   UNL     1       1.593   3.419  18.688  0.00  0.00    +0.000 A 
ENDBRANCH   2   5
BRANCH   1  12
ATOM     11  C   UNL     1       5.811   3.768  15.557  0.00  0.00    +0.000 C 
ATOM     12  N   UNL     1       4.761   4.428  15.920  0.00  0.00    +0.000 NA
BRANCH  11  15
ATOM     13  C   UNL     1       7.147   4.267  11.976  0.00  0.00    +0.000 C 
ATOM     14  C   UNL     1       6.345   3.803  13.152  0.00  0.00    +0.000 C 
ATOM     15  C   UNL     1       6.602   4.227  14.396  0.00  0.00    +0.000 C 
ENDBRANCH  11  15
ENDBRANCH   1  12
TORSDOF 3
ENDMDL
