MODEL 1
REMARK VINA RESULT:      -8.2      0.000      0.000
REMARK  Name = 
REMARK  4 active torsions:
REMARK  status: ('A' for Active; 'I' for Inactive)
REMARK    1  A    between atoms: C_2  and  C_3
REMARK    2  A    between atoms: C_6  and  C_7
REMARK    3  A    between atoms: N_16  and  C_17
REMARK    4  A    between atoms: C_17  and  C_18
REMARK                            x       y       z     vdW  Elec       q    Type
REMARK                         _______ _______ _______ _____ _____    ______ ____
ROOT
ATOM      1  O   UNL     1       2.369   5.537  20.730  0.00  0.00    +0.000 OA
ATOM      2  C   UNL     1       2.695   6.192  19.739  0.00  0.00    +0.000 C 
ATOM      3  N   UNL     1       3.673   5.749  18.836  0.00  0.00    +0.000 N 
ATOM      4  C   UNL     1       4.085   6.421  17.593  0.00  0.00    +0.000 C 
ATOM      5  C   UNL     1       5.540   6.143  17.163  0.00  0.00    +0.000 C 
ATOM      6  N   UNL     1       5.954   4.729  17.233  0.00  0.00    +0.000 NA
ATOM      7  C   UNL     1       5.644   4.240  18.596  0.00  0.00    +0.000 C 
ATOM      8  C   UNL     1       4.167   4.377  19.002  0.00  0.00    +0.000 C 
ENDROOT
BRANCH   2   9
ATOM      9  C   UNL     1       2.049   7.527  19.572  0.00  0.00    +0.000 A 
ATOM     10  C   UNL     1       2.056   8.114  18.299  0.00  0.00    +0.000 A 
ATOM     11  C   UNL     1       1.400   9.330  18.073  0.00  0.00    +0.000 A 
ATOM     12  C   UNL     1       0.711   9.966  19.118  0.00  0.00    +0.000 A 
ATOM     13  C   UNL     1       0.757   9.403  20.400  0.00  0.00    +0.000 A 
ATOM     14  C   UNL     1       1.466   8.225  20.632  0.00  0.00    +0.000 A 
BRANCH  12  15
ATOM     15  C   UNL     1      -0.069  11.238  18.895  0.00  0.00    +0.000 C 
ATOM     16  F   UNL     1       0.665  12.250  18.364  0.00  0.00    +0.000 F 
ATOM     17  F   UNL     1      -1.123  11.049  18.052  0.00  0.00    +0.000 F 
ATOM     18  F   UNL     1      -0.604  11.726  20.052  0.00  0.00    +0.000 F 
ENDBRANCH  12  15
ENDBRANCH   2   9
BRANCH   6  19
ATOM     19  C   UNL     1       5.308   3.949  16.163  0.00  0.00    +0.000 C 
BRANCH  19  20
ATOM     20  C   UNL     1       5.933   4.135  14.796  0.00  0.00    +0.000 A 
ATOM     21  C   UNL     1       5.357   3.527  13.670  0.00  0.00    +0.000 A 
ATOM     22  C   UNL     1       5.929   3.694  12.410  0.00  0.00    +0.000 A 
ATOM     23  C   UNL     1       7.073   4.471  12.276  0.00  0.00    +0.000 A 
ATOM     24  F   UNL     1       7.620   4.630  11.064  0.00  0.00    +0.000 F 
ATOM     25  C   UNL     1       7.658   5.084  13.377  0.00  0.00    +0.000 A 
ATOM     26  C   UNL     1       7.085   4.919  14.640  0.00  0.00    +0.000 A 
ENDBRANCH  19  20
ENDBRANCH   6  19
TORSDOF 4
ENDMDL
MODEL 2
REMARK VINA RESULT:      -8.1      0.478      1.423
REMARK  Name = 
REMARK  4 active torsions:
REMARK  status: ('A' for Active; 'I' for Inactive)
REMARK    1  A    between atoms: C_2  and  C_3
REMARK    2  A    between atoms: C_6  and  C_7
REMARK    3  A    between atoms: N_16  and  C_17
REMARK    4  A    between atoms: C_17  and  C_18
REMARK                            x       y       z     vdW  Elec       q    Type
REMARK                         _______ _______ _______ _____ _____    ______ ____
ROOT
ATOM      1  O   UNL     1       2.043   5.840  20.734  0.00  0.00    +0.000 OA
ATOM      2  C   UNL     1       2.455   6.445  19.743  0.00  0.00    +0.000 C 
ATOM      3  N   UNL     1       3.461   5.929  18.913  0.00  0.00    +0.000 N 
ATOM      4  C   UNL     1       3.974   6.539  17.677  0.00  0.00    +0.000 C 
ATOM      5  C   UNL     1       5.437   6.183  17.341  0.00  0.00    +0.000 C 
ATOM      6  N   UNL     1       5.782   4.757  17.481  0.00  0.00    +0.000 NA
ATOM      7  C   UNL     1       5.372   4.328  18.838  0.00  0.00    +0.000 C 
ATOM      8  C   UNL     1       3.882   4.544  19.153  0.00  0.00    +0.000 C 
ENDROOT
BRANCH   2   9
ATOM      9  C   UNL     1       1.880   7.801  19.496  0.00  0.00    +0.000 A 
ATOM     10  C   UNL     1       1.312   8.487  20.577  0.00  0.00    +0.000 A 
ATOM     11  C   UNL     1       0.826   9.791  20.416  0.00  0.00    +0.000 A 
ATOM     12  C   UNL     1       0.920  10.430  19.169  0.00  0.00    +0.000 A 
ATOM     13  C   UNL     1       1.436   9.717  18.079  0.00  0.00    +0.000 A 
ATOM     14  C   UNL     1       1.859   8.397  18.234  0.00  0.00    +0.000 A 
BRANCH  12  15
ATOM     15  C   UNL     1       0.475  11.859  18.975  0.00  0.00    +0.000 C 
ATOM     16  F   UNL     1       1.436  12.673  18.466  0.00  0.00    +0.000 F 
ATOM     17  F   UNL     1      -0.588  11.950  18.127  0.00  0.00    +0.000 F 
ATOM     18  F   UNL     1       0.068  12.436  20.142  0.00  0.00    +0.000 F 
ENDBRANCH  12  15
ENDBRANCH   2   9
BRANCH   6  19
ATOM     19  C   UNL     1       5.163   3.969  16.400  0.00  0.00    +0.000 C 
BRANCH  19  20
ATOM     20  C   UNL     1       5.826   4.142  15.049  0.00  0.00    +0.000 A 
ATOM     21  C   UNL     1       7.003   4.897  14.935  0.00  0.00    +0.000 A 
ATOM     22  C   UNL     1       7.617   5.060  13.694  0.00  0.00    +0.000 A 
ATOM     23  C   UNL     1       7.055   4.466  12.570  0.00  0.00    +0.000 A 
ATOM     24  F   UNL     1       7.647   4.624  11.379  0.00  0.00    +0.000 F 
ATOM     25  C   UNL     1       5.892   3.712  12.662  0.00  0.00    +0.000 A 
ATOM     26  C   UNL     1       5.277   3.547  13.904  0.00  0.00    +0.000 A 
ENDBRANCH  19  20
ENDBRANCH   6  19
TORSDOF 4
ENDMDL
MODEL 3
REMARK VINA RESULT:      -8.0      0.535      1.147
REMARK  Name = 
REMARK  4 active torsions:
REMARK  status: ('A' for Active; 'I' for Inactive)
REMARK    1  A    between atoms: C_2  and  C_3
REMARK    2  A    between atoms: C_6  and  C_7
REMARK    3  A    between atoms: N_16  and  C_17
REMARK    4  A    between atoms: C_17  and  C_18
REMARK                            x       y       z     vdW  Elec       q    Type
REMARK                         _______ _______ _______ _____ _____    ______ ____
ROOT
ATOM      1  O   UNL     1       2.189   5.564  20.874  0.00  0.00    +0.000 OA
ATOM      2  C   UNL     1       2.521   6.250  19.906  0.00  0.00    +0.000 C 
ATOM      3  N   UNL     1       3.479   5.820  18.976  0.00  0.00    +0.000 N 
ATOM      4  C   UNL     1       3.895   6.532  17.757  0.00  0.00    +0.000 C 
ATOM      5  C   UNL     1       5.339   6.238  17.300  0.00  0.00    +0.000 C 
ATOM      6  N   UNL     1       5.721   4.814  17.311  0.00  0.00    +0.000 NA
ATOM      7  C   UNL     1       5.413   4.278  18.656  0.00  0.00    +0.000 C 
ATOM      8  C   UNL     1       3.943   4.433  19.083  0.00  0.00    +0.000 C 
ENDROOT
BRANCH   2   9
ATOM      9  C   UNL     1       1.904   7.605  19.799  0.00  0.00    +0.000 A 
ATOM     10  C   UNL     1       1.350   8.175  20.953  0.00  0.00    +0.000 A 
ATOM     11  C   UNL     1       0.825   9.473  20.923  0.00  0.00    +0.000 A 
ATOM     12  C   UNL     1       0.866  10.224  19.738  0.00  0.00    +0.000 A 
ATOM     13  C   UNL     1       1.368   9.627  18.574  0.00  0.00    +0.000 A 
ATOM     14  C   UNL     1       1.830   8.312  18.597  0.00  0.00    +0.000 A 
BRANCH  12  15
ATOM     15  C   UNL     1       0.378  11.651  19.686  0.00  0.00    +0.000 C 
ATOM     16  F   UNL     1       1.162  12.529  20.363  0.00  0.00    +0.000 F 
ATOM     17  F   UNL     1       0.301  12.118  18.408  0.00  0.00    +0.000 F 
ATOM     18  F   UNL     1      -0.877  11.787  20.204  0.00  0.00    +0.000 F 
ENDBRANCH  12  15
ENDBRANCH   2   9
BRANCH   6  19
ATOM     19  C   UNL     1       5.046   4.091  16.218  0.00  0.00    +0.000 C 
BRANCH  19  20
ATOM     20  C   UNL     1       5.755   4.187  14.882  0.00  0.00    +0.000 A 
ATOM     21  C   UNL     1       5.204   3.569  13.748  0.00  0.00    +0.000 A 
ATOM     22  C   UNL     1       5.852   3.653  12.517  0.00  0.00    +0.000 A 
ATOM     23  C   UNL     1       7.047   4.356  12.419  0.00  0.00    +0.000 A 
ATOM     24  F   UNL     1       7.667   4.434  11.235  0.00  0.00    +0.000 F 
ATOM     25  C   UNL     1       7.608   4.976  13.529  0.00  0.00    +0.000 A 
ATOM     26  C   UNL     1       6.959   4.895  14.762  0.00  0.00    +0.000 A 
ENDBRANCH  19  20
ENDBRANCH   6  19
TORSDOF 4
ENDMDL
MODEL 4
REMARK VINA RESULT:      -8.0      4.506     10.159
REMARK  Name = 
REMARK  4 active torsions:
REMARK  status: ('A' for Active; 'I' for Inactive)
REMARK    1  A    between atoms: C_2  and  C_3
REMARK    2  A    between atoms: C_6  and  C_7
REMARK    3  A    between atoms: N_16  and  C_17
REMARK    4  A    between atoms: C_17  and  C_18
REMARK                            x       y       z     vdW  Elec       q    Type
REMARK                         _______ _______ _______ _____ _____    ______ ____
ROOT
ATOM      1  O   UNL     1       2.405   8.656  17.330  0.00  0.00    +0.000 OA
ATOM      2  C   UNL     1       2.143   8.075  18.385  0.00  0.00    +0.000 C 
ATOM      3  N   UNL     1       1.610   8.744  19.497  0.00  0.00    +0.000 N 
ATOM      4  C   UNL     1       1.203   8.133  20.773  0.00  0.00    +0.000 C 
ATOM      5  C   UNL     1       1.299   9.070  21.995  0.00  0.00    +0.000 C 
ATOM      6  N   UNL     1       0.753  10.424  21.789  0.00  0.00    +0.000 NA
ATOM      7  C   UNL     1       1.387  10.982  20.573  0.00  0.00    +0.000 C 
ATOM      8  C   UNL     1       1.189  10.136  19.304  0.00  0.00    +0.000 C 
ENDROOT
BRANCH   2   9
ATOM      9  C   UNL     1       2.484   6.624  18.457  0.00  0.00    +0.000 A 
ATOM     10  C   UNL     1       3.694   6.256  19.062  0.00  0.00    +0.000 A 
ATOM     11  C   UNL     1       4.027   4.904  19.221  0.00  0.00    +0.000 A 
ATOM     12  C   UNL     1       3.142   3.903  18.790  0.00  0.00    +0.000 A 
ATOM     13  C   UNL     1       1.963   4.279  18.134  0.00  0.00    +0.000 A 
ATOM     14  C   UNL     1       1.668   5.625  17.922  0.00  0.00    +0.000 A 
BRANCH  12  15
ATOM     15  C   UNL     1       3.433   2.439  19.010  0.00  0.00    +0.000 C 
ATOM     16  F   UNL     1       3.745   1.761  17.875  0.00  0.00    +0.000 F 
ATOM     17  F   UNL     1       4.478   2.250  19.865  0.00  0.00    +0.000 F 
ATOM     18  F   UNL     1       2.377   1.780  19.567  0.00  0.00    +0.000 F 
ENDBRANCH  12  15
ENDBRANCH   2   9
BRANCH   6  19
ATOM     19  C   UNL     1      -0.719  10.381  21.722  0.00  0.00    +0.000 C 
BRANCH  19  20
ATOM     20  C   UNL     1      -1.387  11.730  21.893  0.00  0.00    +0.000 A 
ATOM     21  C   UNL     1      -1.215  12.455  23.082  0.00  0.00    +0.000 A 
ATOM     22  C   UNL     1      -1.828  13.696  23.246  0.00  0.00    +0.000 A 
ATOM     23  C   UNL     1      -2.609  14.213  22.219  0.00  0.00    +0.000 A 
ATOM     24  F   UNL     1      -3.197  15.405  22.379  0.00  0.00    +0.000 F 
ATOM     25  C   UNL     1      -2.791  13.513  21.033  0.00  0.00    +0.000 A 
ATOM     26  C   UNL     1      -2.176  12.271  20.867  0.00  0.00    +0.000 A 
ENDBRANCH  19  20
ENDBRANCH   6  19
TORSDOF 4
ENDMDL
MODEL 5
REMARK VINA RESULT:      -8.0      1.529      8.863
REMARK  Name = 
REMARK  4 active torsions:
REMARK  status: ('A' for Active; 'I' for Inactive)
REMARK    1  A    between atoms: C_2  and  C_3
REMARK    2  A    between atoms: C_6  and  C_7
REMARK    3  A    between atoms: N_16  and  C_17
REMARK    4  A    between atoms: C_17  and  C_18
REMARK                            x       y       z     vdW  Elec       q    Type
REMARK                         _______ _______ _______ _____ _____    ______ ____
ROOT
ATOM      1  O   UNL     1       6.441   3.884  18.428  0.00  0.00    +0.000 OA
ATOM      2  C   UNL     1       5.644   4.484  17.704  0.00  0.00    +0.000 C 
ATOM      3  N   UNL     1       4.536   5.174  18.219  0.00  0.00    +0.000 N 
ATOM      4  C   UNL     1       3.569   5.972  17.450  0.00  0.00    +0.000 C 
ATOM      5  C   UNL     1       2.159   6.049  18.071  0.00  0.00    +0.000 C 
ATOM      6  N   UNL     1       2.127   6.320  19.520  0.00  0.00    +0.000 NA
ATOM      7  C   UNL     1       3.003   5.326  20.181  0.00  0.00    +0.000 C 
ATOM      8  C   UNL     1       4.456   5.322  19.677  0.00  0.00    +0.000 C 
ENDROOT
BRANCH   2   9
ATOM      9  C   UNL     1       5.870   4.389  16.232  0.00  0.00    +0.000 A 
ATOM     10  C   UNL     1       7.062   4.909  15.709  0.00  0.00    +0.000 A 
ATOM     11  C   UNL     1       7.356   4.779  14.345  0.00  0.00    +0.000 A 
ATOM     12  C   UNL     1       6.465   4.110  13.491  0.00  0.00    +0.000 A 
ATOM     13  C   UNL     1       5.249   3.645  14.011  0.00  0.00    +0.000 A 
ATOM     14  C   UNL     1       4.935   3.834  15.356  0.00  0.00    +0.000 A 
BRANCH  12  15
ATOM     15  C   UNL     1       6.781   3.887  12.033  0.00  0.00    +0.000 C 
ATOM     16  F   UNL     1       7.495   2.758  11.789  0.00  0.00    +0.000 F 
ATOM     17  F   UNL     1       5.652   3.795  11.275  0.00  0.00    +0.000 F 
ATOM     18  F   UNL     1       7.502   4.914  11.498  0.00  0.00    +0.000 F 
ENDBRANCH  12  15
ENDBRANCH   2   9
BRANCH   6  19
ATOM     19  C   UNL     1       2.508   7.717  19.791  0.00  0.00    +0.000 C 
BRANCH  19  20
ATOM     20  C   UNL     1       1.352   8.695  19.747  0.00  0.00    +0.000 A 
ATOM     21  C   UNL     1       1.042   9.364  18.553  0.00  0.00    +0.000 A 
ATOM     22  C   UNL     1      -0.020  10.266  18.507  0.00  0.00    +0.000 A 
ATOM     23  C   UNL     1      -0.772  10.495  19.653  0.00  0.00    +0.000 A 
ATOM     24  F   UNL     1      -1.792  11.362  19.606  0.00  0.00    +0.000 F 
ATOM     25  C   UNL     1      -0.484   9.842  20.844  0.00  0.00    +0.000 A 
ATOM     26  C   UNL     1       0.579   8.937  20.891  0.00  0.00    +0.000 A 
ENDBRANCH  19  20
ENDBRANCH   6  19
TORSDOF 4
ENDMDL
MODEL 6
REMARK VINA RESULT:      -8.0      2.662      9.073
REMARK  Name = 
REMARK  4 active torsions:
REMARK  status: ('A' for Active; 'I' for Inactive)
REMARK    1  A    between atoms: C_2  and  C_3
REMARK    2  A    between atoms: C_6  and  C_7
REMARK    3  A    between atoms: N_16  and  C_17
REMARK    4  A    between atoms: C_17  and  C_18
REMARK                            x       y       z     vdW  Elec       q    Type
REMARK                         _______ _______ _______ _____ _____    ______ ____
ROOT
ATOM      1  O   UNL     1       2.546   5.762  20.354  0.00  0.00    +0.000 OA
ATOM      2  C   UNL     1       2.654   6.493  19.368  0.00  0.00    +0.000 C 
ATOM      3  N   UNL     1       2.075   7.770  19.315  0.00  0.00    +0.000 N 
ATOM      4  C   UNL     1       2.201   8.742  18.217  0.00  0.00    +0.000 C 
ATOM      5  C   UNL     1       1.009   9.711  18.075  0.00  0.00    +0.000 C 
ATOM      6  N   UNL     1       0.533  10.306  19.337  0.00  0.00    +0.000 NA
ATOM      7  C   UNL     1       0.276   9.198  20.285  0.00  0.00    +0.000 C 
ATOM      8  C   UNL     1       1.490   8.294  20.554  0.00  0.00    +0.000 C 
ENDROOT
BRANCH   2   9
ATOM      9  C   UNL     1       3.378   5.932  18.190  0.00  0.00    +0.000 A 
ATOM     10  C   UNL     1       4.246   6.773  17.481  0.00  0.00    +0.000 A 
ATOM     11  C   UNL     1       5.005   6.276  16.413  0.00  0.00    +0.000 A 
ATOM     12  C   UNL     1       4.916   4.922  16.055  0.00  0.00    +0.000 A 
ATOM     13  C   UNL     1       4.004   4.100  16.730  0.00  0.00    +0.000 A 
ATOM     14  C   UNL     1       3.205   4.617  17.750  0.00  0.00    +0.000 A 
BRANCH  12  15
ATOM     15  C   UNL     1       5.771   4.334  14.960  0.00  0.00    +0.000 C 
ATOM     16  F   UNL     1       6.877   5.067  14.669  0.00  0.00    +0.000 F 
ATOM     17  F   UNL     1       6.215   3.085  15.274  0.00  0.00    +0.000 F 
ATOM     18  F   UNL     1       5.087   4.198  13.787  0.00  0.00    +0.000 F 
ENDBRANCH  12  15
ENDBRANCH   2   9
BRANCH   6  19
ATOM     19  C   UNL     1       1.501  11.299  19.836  0.00  0.00    +0.000 C 
BRANCH  19  20
ATOM     20  C   UNL     1       1.156  12.732  19.486  0.00  0.00    +0.000 A 
ATOM     21  C   UNL     1       2.120  13.742  19.627  0.00  0.00    +0.000 A 
ATOM     22  C   UNL     1       1.808  15.063  19.307  0.00  0.00    +0.000 A 
ATOM     23  C   UNL     1       0.535  15.371  18.843  0.00  0.00    +0.000 A 
ATOM     24  F   UNL     1       0.238  16.640  18.535  0.00  0.00    +0.000 F 
ATOM     25  C   UNL     1      -0.433  14.385  18.693  0.00  0.00    +0.000 A 
ATOM     26  C   UNL     1      -0.122  13.062  19.012  0.00  0.00    +0.000 A 
ENDBRANCH  19  20
ENDBRANCH   6  19
TORSDOF 4
ENDMDL
MODEL 7
REMARK VINA RESULT:      -8.0      4.576     10.172
REMARK  Name = 
REMARK  4 active torsions:
REMARK  status: ('A' for Active; 'I' for Inactive)
REMARK    1  A    between atoms: C_2  and  C_3
REMARK    2  A    between atoms: C_6  and  C_7
REMARK    3  A    between atoms: N_16  and  C_17
REMARK    4  A    between atoms: C_17  and  C_18
REMARK                            x       y       z     vdW  Elec       q    Type
REMARK                         _______ _______ _______ _____ _____    ______ ____
ROOT
ATOM      1  O   UNL     1       2.408   8.651  17.309  0.00  0.00    +0.000 OA
ATOM      2  C   UNL     1       2.132   8.093  18.372  0.00  0.00    +0.000 C 
ATOM      3  N   UNL     1       1.592   8.787  19.465  0.00  0.00    +0.000 N 
ATOM      4  C   UNL     1       1.170   8.205  20.749  0.00  0.00    +0.000 C 
ATOM      5  C   UNL     1       1.258   9.166  21.952  0.00  0.00    +0.000 C 
ATOM      6  N   UNL     1       0.721  10.519  21.714  0.00  0.00    +0.000 NA
ATOM      7  C   UNL     1       1.371  11.048  20.493  0.00  0.00    +0.000 C 
ATOM      8  C   UNL     1       1.181  10.178  19.240  0.00  0.00    +0.000 C 
ENDROOT
BRANCH   2   9
ATOM      9  C   UNL     1       2.465   6.642  18.477  0.00  0.00    +0.000 A 
ATOM     10  C   UNL     1       3.652   6.278  19.128  0.00  0.00    +0.000 A 
ATOM     11  C   UNL     1       3.974   4.928  19.318  0.00  0.00    +0.000 A 
ATOM     12  C   UNL     1       3.100   3.924  18.872  0.00  0.00    +0.000 A 
ATOM     13  C   UNL     1       1.945   4.294  18.171  0.00  0.00    +0.000 A 
ATOM     14  C   UNL     1       1.663   5.638  17.930  0.00  0.00    +0.000 A 
BRANCH  12  15
ATOM     15  C   UNL     1       3.377   2.463  19.123  0.00  0.00    +0.000 C 
ATOM     16  F   UNL     1       2.341   1.793  19.692  0.00  0.00    +0.000 F 
ATOM     17  F   UNL     1       3.675   1.795  17.973  0.00  0.00    +0.000 F 
ATOM     18  F   UNL     1       4.448   2.274  19.947  0.00  0.00    +0.000 F 
ENDBRANCH  12  15
ENDBRANCH   2   9
BRANCH   6  19
ATOM     19  C   UNL     1      -0.750  10.482  21.632  0.00  0.00    +0.000 C 
BRANCH  19  20
ATOM     20  C   UNL     1      -1.418  11.818  21.884  0.00  0.00    +0.000 A 
ATOM     21  C   UNL     1      -2.225  12.399  20.894  0.00  0.00    +0.000 A 
ATOM     22  C   UNL     1      -2.841  13.629  21.119  0.00  0.00    +0.000 A 
ATOM     23  C   UNL     1      -2.653  14.275  22.335  0.00  0.00    +0.000 A 
ATOM     24  F   UNL     1      -3.246  15.456  22.549  0.00  0.00    +0.000 F 
ATOM     25  C   UNL     1      -1.859  13.717  23.329  0.00  0.00    +0.000 A 
ATOM     26  C   UNL     1      -1.242  12.484  23.105  0.00  0.00    +0.000 A 
ENDBRANCH  19  20
ENDBRANCH   6  19
TORSDOF 4
ENDMDL
MODEL 8
REMARK VINA RESULT:      -8.0      2.637      9.237
REMARK  Name = 
REMARK  4 active torsions:
REMARK  status: ('A' for Active; 'I' for Inactive)
REMARK    1  A    between atoms: C_2  and  C_3
REMARK    2  A    between atoms: C_6  and  C_7
REMARK    3  A    between atoms: N_16  and  C_17
REMARK    4  A    between atoms: C_17  and  C_18
REMARK                            x       y       z     vdW  Elec       q    Type
REMARK                         _______ _______ _______ _____ _____    ______ ____
ROOT
ATOM      1  O   UNL     1       2.744   5.912  20.365  0.00  0.00    +0.000 OA
ATOM      2  C   UNL     1       2.747   6.597  19.340  0.00  0.00    +0.000 C 
ATOM      3  N   UNL     1       2.082   7.830  19.261  0.00  0.00    +0.000 N 
ATOM      4  C   UNL     1       2.079   8.750  18.113  0.00  0.00    +0.000 C 
ATOM      5  C   UNL     1       0.818   9.632  17.997  0.00  0.00    +0.000 C 
ATOM      6  N   UNL     1       0.376  10.260  19.256  0.00  0.00    +0.000 NA
ATOM      7  C   UNL     1       0.249   9.188  20.270  0.00  0.00    +0.000 C 
ATOM      8  C   UNL     1       1.535   8.379  20.508  0.00  0.00    +0.000 C 
ENDROOT
BRANCH   2   9
ATOM      9  C   UNL     1       3.437   6.022  18.149  0.00  0.00    +0.000 A 
ATOM     10  C   UNL     1       4.330   6.839  17.441  0.00  0.00    +0.000 A 
ATOM     11  C   UNL     1       5.059   6.326  16.361  0.00  0.00    +0.000 A 
ATOM     12  C   UNL     1       4.915   4.981  15.987  0.00  0.00    +0.000 A 
ATOM     13  C   UNL     1       3.979   4.187  16.661  0.00  0.00    +0.000 A 
ATOM     14  C   UNL     1       3.210   4.721  17.695  0.00  0.00    +0.000 A 
BRANCH  12  15
ATOM     15  C   UNL     1       5.737   4.374  14.877  0.00  0.00    +0.000 C 
ATOM     16  F   UNL     1       5.051   4.189  13.719  0.00  0.00    +0.000 F 
ATOM     17  F   UNL     1       6.816   5.146  14.561  0.00  0.00    +0.000 F 
ATOM     18  F   UNL     1       6.244   3.154  15.216  0.00  0.00    +0.000 F 
ENDBRANCH  12  15
ENDBRANCH   2   9
BRANCH   6  19
ATOM     19  C   UNL     1       1.303  11.337  19.647  0.00  0.00    +0.000 C 
BRANCH  19  20
ATOM     20  C   UNL     1       0.719  12.730  19.532  0.00  0.00    +0.000 A 
ATOM     21  C   UNL     1      -0.577  12.990  20.004  0.00  0.00    +0.000 A 
ATOM     22  C   UNL     1      -1.120  14.270  19.900  0.00  0.00    +0.000 A 
ATOM     23  C   UNL     1      -0.367  15.288  19.327  0.00  0.00    +0.000 A 
ATOM     24  F   UNL     1      -0.891  16.516  19.229  0.00  0.00    +0.000 F 
ATOM     25  C   UNL     1       0.919  15.051  18.856  0.00  0.00    +0.000 A 
ATOM     26  C   UNL     1       1.464  13.771  18.961  0.00  0.00    +0.000 A 
ENDBRANCH  19  20
ENDBRANCH   6  19
TORSDOF 4
ENDMDL
MODEL 9
REMARK VINA RESULT:      -8.0      0.417      1.037
REMARK  Name = 
REMARK  4 active torsions:
REMARK  status: ('A' for Active; 'I' for Inactive)
REMARK    1  A    between atoms: C_2  and  C_3
REMARK    2  A    between atoms: C_6  and  C_7
REMARK    3  A    between atoms: N_16  and  C_17
REMARK    4  A    between atoms: C_17  and  C_18
REMARK                            x       y       z     vdW  Elec       q    Type
REMARK                         _______ _______ _______ _____ _____    ______ ____
ROOT
ATOM      1  O   UNL     1       2.089   5.529  20.854  0.00  0.00    +0.000 OA
ATOM      2  C   UNL     1       2.440   6.240  19.911  0.00  0.00    +0.000 C 
ATOM      3  N   UNL     1       3.397   5.822  18.973  0.00  0.00    +0.000 N 
ATOM      4  C   UNL     1       3.834   6.564  17.780  0.00  0.00    +0.000 C 
ATOM      5  C   UNL     1       5.276   6.258  17.323  0.00  0.00    +0.000 C 
ATOM      6  N   UNL     1       5.632   4.828  17.291  0.00  0.00    +0.000 NA
ATOM      7  C   UNL     1       5.304   4.255  18.617  0.00  0.00    +0.000 C 
ATOM      8  C   UNL     1       3.835   4.423  19.039  0.00  0.00    +0.000 C 
ENDROOT
BRANCH   2   9
ATOM      9  C   UNL     1       1.849   7.608  19.843  0.00  0.00    +0.000 A 
ATOM     10  C   UNL     1       1.901   8.294  18.622  0.00  0.00    +0.000 A 
ATOM     11  C   UNL     1       1.296   9.550  18.484  0.00  0.00    +0.000 A 
ATOM     12  C   UNL     1       0.614  10.127  19.568  0.00  0.00    +0.000 A 
ATOM     13  C   UNL     1       0.616   9.462  20.801  0.00  0.00    +0.000 A 
ATOM     14  C   UNL     1       1.275   8.242  20.947  0.00  0.00    +0.000 A 
BRANCH  12  15
ATOM     15  C   UNL     1      -0.112  11.443  19.437  0.00  0.00    +0.000 C 
ATOM     16  F   UNL     1       0.471  12.312  18.571  0.00  0.00    +0.000 F 
ATOM     17  F   UNL     1      -1.394  11.277  19.005  0.00  0.00    +0.000 F 
ATOM     18  F   UNL     1      -0.206  12.101  20.628  0.00  0.00    +0.000 F 
ENDBRANCH  12  15
ENDBRANCH   2   9
BRANCH   6  19
ATOM     19  C   UNL     1       4.952   4.153  16.171  0.00  0.00    +0.000 C 
BRANCH  19  20
ATOM     20  C   UNL     1       5.699   4.229  14.856  0.00  0.00    +0.000 A 
ATOM     21  C   UNL     1       6.920   4.916  14.779  0.00  0.00    +0.000 A 
ATOM     22  C   UNL     1       7.612   4.989  13.571  0.00  0.00    +0.000 A 
ATOM     23  C   UNL     1       7.085   4.373  12.442  0.00  0.00    +0.000 A 
ATOM     24  F   UNL     1       7.751   4.445  11.283  0.00  0.00    +0.000 F 
ATOM     25  C   UNL     1       5.878   3.686  12.497  0.00  0.00    +0.000 A 
ATOM     26  C   UNL     1       5.185   3.611  13.707  0.00  0.00    +0.000 A 
ENDBRANCH  19  20
ENDBRANCH   6  19
TORSDOF 4
ENDMDL
