MODEL 1
REMARK VINA RESULT:      -8.3      0.000      0.000
REMARK  Name = 
REMARK  7 active torsions:
REMARK  status: ('A' for Active; 'I' for Inactive)
REMARK    1  A    between atoms: C_1  and  O_2
REMARK    2  A    between atoms: O_2  and  C_3
REMARK    3  A    between atoms: C_6  and  N_7
REMARK    4  A    between atoms: C_8  and  C_10
REMARK    5  A    between atoms: N_14  and  C_15
REMARK    6  A    between atoms: C_15  and  C_16
REMARK    7  A    between atoms: C_16  and  C_17
REMARK                            x       y       z     vdW  Elec       q    Type
REMARK                         _______ _______ _______ _____ _____    ______ ____
ROOT
ATOM      1  C   UNL     1       3.997   2.133  19.248  0.00  0.00    +0.000 C 
ATOM      2  C   UNL     1       2.850   1.450  18.510  0.00  0.00    +0.000 C 
ATOM      3  C   UNL     1       1.669   2.314  18.883  0.00  0.00    +0.000 C 
ATOM      4  O   UNL     1       0.652   2.396  18.216  0.00  0.00    +0.000 OA
ATOM      5  N   UNL     1       1.957   2.937  20.091  0.00  0.00    +0.000 N 
ATOM      6  C   UNL     1       3.315   2.654  20.508  0.00  0.00    +0.000 C 
ENDROOT
BRANCH   1   8
ATOM      7  N   UNL     1       5.277   4.220  19.201  0.00  0.00    +0.000 N 
ATOM      8  C   UNL     1       4.604   3.279  18.435  0.00  0.00    +0.000 C 
ATOM      9  O   UNL     1       4.445   3.335  17.219  0.00  0.00    +0.000 OA
ATOM     10  H   UNL     1       5.256   4.114  20.207  0.00  0.00    +0.000 HD
BRANCH   7  14
ATOM     11  C   UNL     1       7.631   7.454  17.792  0.00  0.00    +0.000 A 
ATOM     12  C   UNL     1       6.387   7.202  17.220  0.00  0.00    +0.000 A 
ATOM     13  C   UNL     1       5.586   6.154  17.681  0.00  0.00    +0.000 A 
ATOM     14  C   UNL     1       6.022   5.322  18.713  0.00  0.00    +0.000 A 
ATOM     15  C   UNL     1       7.280   5.570  19.279  0.00  0.00    +0.000 A 
ATOM     16  C   UNL     1       8.080   6.631  18.823  0.00  0.00    +0.000 A 
BRANCH  11  18
ATOM     17  C   UNL     1       8.430   9.670  18.016  0.00  0.00    +0.000 C 
ATOM     18  O   UNL     1       8.321   8.489  17.230  0.00  0.00    +0.000 OA
ENDBRANCH  11  18
ENDBRANCH   7  14
ENDBRANCH   1   8
BRANCH   5  19
ATOM     19  C   UNL     1       1.238   4.090  20.638  0.00  0.00    +0.000 C 
BRANCH  19  20
ATOM     20  C   UNL     1       2.120   5.235  21.147  0.00  0.00    +0.000 C 
BRANCH  20  21
ATOM     21  C   UNL     1       1.966   6.502  20.336  0.00  0.00    +0.000 A 
ATOM     22  C   UNL     1       1.369   7.638  20.903  0.00  0.00    +0.000 A 
ATOM     23  C   UNL     1       1.250   8.819  20.164  0.00  0.00    +0.000 A 
ATOM     24  C   UNL     1       1.723   8.867  18.856  0.00  0.00    +0.000 A 
ATOM     25 CL   UNL     1       1.584  10.323  17.948  0.00  0.00    +0.000 Cl
ATOM     26  C   UNL     1       2.312   7.745  18.278  0.00  0.00    +0.000 A 
ATOM     27  C   UNL     1       2.430   6.564  19.015  0.00  0.00    +0.000 A 
ENDBRANCH  20  21
ENDBRANCH  19  20
ENDBRANCH   5  19
TORSDOF 6
ENDMDL
MODEL 2
REMARK VINA RESULT:      -8.2      1.164      1.393
REMARK  Name = 
REMARK  7 active torsions:
REMARK  status: ('A' for Active; 'I' for Inactive)
REMARK    1  A    between atoms: C_1  and  O_2
REMARK    2  A    between atoms: O_2  and  C_3
REMARK    3  A    between atoms: C_6  and  N_7
REMARK    4  A    between atoms: C_8  and  C_10
REMARK    5  A    between atoms: N_14  and  C_15
REMARK    6  A    between atoms: C_15  and  C_16
REMARK    7  A    between atoms: C_16  and  C_17
REMARK                            x       y       z     vdW  Elec       q    Type
REMARK                         _______ _______ _______ _____ _____    ______ ____
ROOT
ATOM      1  C   UNL     1       3.265   1.767  18.951  0.00  0.00    +0.000 C 
ATOM      2  C   UNL     1       2.374   1.973  17.730  0.00  0.00    +0.000 C 
ATOM      3  C   UNL     1       1.450   3.075  18.189  0.00  0.00    +0.000 C 
ATOM      4  O   UNL     1       0.865   3.828  17.431  0.00  0.00    +0.000 OA
ATOM      5  N   UNL     1       1.388   3.033  19.576  0.00  0.00    +0.000 N 
ATOM      6  C   UNL     1       2.312   2.052  20.107  0.00  0.00    +0.000 C 
ENDROOT
BRANCH   1   8
ATOM      7  N   UNL     1       4.572   3.500  17.818  0.00  0.00    +0.000 N 
ATOM      8  C   UNL     1       4.454   2.730  18.966  0.00  0.00    +0.000 C 
ATOM      9  O   UNL     1       5.229   2.751  19.918  0.00  0.00    +0.000 OA
ATOM     10  H   UNL     1       3.926   3.322  17.060  0.00  0.00    +0.000 HD
BRANCH   7  14
ATOM     11  C   UNL     1       7.332   6.621  17.021  0.00  0.00    +0.000 A 
ATOM     12  C   UNL     1       6.829   6.452  18.308  0.00  0.00    +0.000 A 
ATOM     13  C   UNL     1       5.934   5.419  18.597  0.00  0.00    +0.000 A 
ATOM     14  C   UNL     1       5.505   4.544  17.600  0.00  0.00    +0.000 A 
ATOM     15  C   UNL     1       6.003   4.722  16.302  0.00  0.00    +0.000 A 
ATOM     16  C   UNL     1       6.912   5.755  16.013  0.00  0.00    +0.000 A 
BRANCH  11  18
ATOM     17  C   UNL     1       8.118   8.679  17.882  0.00  0.00    +0.000 C 
ATOM     18  O   UNL     1       8.175   7.683  16.868  0.00  0.00    +0.000 OA
ENDBRANCH  11  18
ENDBRANCH   7  14
ENDBRANCH   1   8
BRANCH   5  19
ATOM     19  C   UNL     1       0.877   4.108  20.430  0.00  0.00    +0.000 C 
BRANCH  19  20
ATOM     20  C   UNL     1       1.928   5.101  20.939  0.00  0.00    +0.000 C 
BRANCH  20  21
ATOM     21  C   UNL     1       1.936   6.399  20.162  0.00  0.00    +0.000 A 
ATOM     22  C   UNL     1       1.374   7.559  20.715  0.00  0.00    +0.000 A 
ATOM     23  C   UNL     1       1.404   8.767  20.010  0.00  0.00    +0.000 A 
ATOM     24  C   UNL     1       1.992   8.816  18.749  0.00  0.00    +0.000 A 
ATOM     25 CL   UNL     1       2.036  10.304  17.884  0.00  0.00    +0.000 Cl
ATOM     26  C   UNL     1       2.548   7.671  18.185  0.00  0.00    +0.000 A 
ATOM     27  C   UNL     1       2.517   6.463  18.888  0.00  0.00    +0.000 A 
ENDBRANCH  20  21
ENDBRANCH  19  20
ENDBRANCH   5  19
TORSDOF 6
ENDMDL
MODEL 3
REMARK VINA RESULT:      -8.0      0.357      1.379
REMARK  Name = 
REMARK  7 active torsions:
REMARK  status: ('A' for Active; 'I' for Inactive)
REMARK    1  A    between atoms: C_1  and  O_2
REMARK    2  A    between atoms: O_2  and  C_3
REMARK    3  A    between atoms: C_6  and  N_7
REMARK    4  A    between atoms: C_8  and  C_10
REMARK    5  A    between atoms: N_14  and  C_15
REMARK    6  A    between atoms: C_15  and  C_16
REMARK    7  A    between atoms: C_16  and  C_17
REMARK                            x       y       z     vdW  Elec       q    Type
REMARK                         _______ _______ _______ _____ _____    ______ ____
ROOT
ATOM      1  C   UNL     1       3.749   2.256  19.002  0.00  0.00    +0.000 C 
ATOM      2  C   UNL     1       2.547   1.687  18.256  0.00  0.00    +0.000 C 
ATOM      3  C   UNL     1       1.435   2.615  18.684  0.00  0.00    +0.000 C 
ATOM      4  O   UNL     1       0.418   2.796  18.038  0.00  0.00    +0.000 OA
ATOM      5  N   UNL     1       1.783   3.165  19.911  0.00  0.00    +0.000 N 
ATOM      6  C   UNL     1       3.124   2.770  20.294  0.00  0.00    +0.000 C 
ENDROOT
BRANCH   1   8
ATOM      7  N   UNL     1       5.188   4.237  19.016  0.00  0.00    +0.000 N 
ATOM      8  C   UNL     1       4.425   3.389  18.227  0.00  0.00    +0.000 C 
ATOM      9  O   UNL     1       4.241   3.516  17.019  0.00  0.00    +0.000 OA
ATOM     10  H   UNL     1       5.183   4.084  20.016  0.00  0.00    +0.000 HD
BRANCH   7  14
ATOM     11  C   UNL     1       7.514   7.488  17.596  0.00  0.00    +0.000 A 
ATOM     12  C   UNL     1       8.017   6.659  18.596  0.00  0.00    +0.000 A 
ATOM     13  C   UNL     1       7.276   5.572  19.065  0.00  0.00    +0.000 A 
ATOM     14  C   UNL     1       6.006   5.300  18.558  0.00  0.00    +0.000 A 
ATOM     15  C   UNL     1       5.495   6.142  17.560  0.00  0.00    +0.000 A 
ATOM     16  C   UNL     1       6.245   7.229  17.080  0.00  0.00    +0.000 A 
BRANCH  11  18
ATOM     17  C   UNL     1       8.327   9.644  18.131  0.00  0.00    +0.000 C 
ATOM     18  O   UNL     1       8.326   8.527  17.250  0.00  0.00    +0.000 OA
ENDBRANCH  11  18
ENDBRANCH   7  14
ENDBRANCH   1   8
BRANCH   5  19
ATOM     19  C   UNL     1       1.155   4.342  20.516  0.00  0.00    +0.000 C 
BRANCH  19  20
ATOM     20  C   UNL     1       2.122   5.416  21.025  0.00  0.00    +0.000 C 
BRANCH  20  21
ATOM     21  C   UNL     1       1.902   6.763  20.373  0.00  0.00    +0.000 A 
ATOM     22  C   UNL     1       2.371   7.007  19.074  0.00  0.00    +0.000 A 
ATOM     23  C   UNL     1       2.145   8.242  18.459  0.00  0.00    +0.000 A 
ATOM     24  C   UNL     1       1.453   9.238  19.142  0.00  0.00    +0.000 A 
ATOM     25 CL   UNL     1       1.168  10.756  18.383  0.00  0.00    +0.000 Cl
ATOM     26  C   UNL     1       0.987   9.013  20.435  0.00  0.00    +0.000 A 
ATOM     27  C   UNL     1       1.214   7.779  21.051  0.00  0.00    +0.000 A 
ENDBRANCH  20  21
ENDBRANCH  19  20
ENDBRANCH   5  19
TORSDOF 6
ENDMDL
MODEL 4
REMARK VINA RESULT:      -7.9      1.113      1.731
REMARK  Name = 
REMARK  7 active torsions:
REMARK  status: ('A' for Active; 'I' for Inactive)
REMARK    1  A    between atoms: C_1  and  O_2
REMARK    2  A    between atoms: O_2  and  C_3
REMARK    3  A    between atoms: C_6  and  N_7
REMARK    4  A    between atoms: C_8  and  C_10
REMARK    5  A    between atoms: N_14  and  C_15
REMARK    6  A    between atoms: C_15  and  C_16
REMARK    7  A    between atoms: C_16  and  C_17
REMARK                            x       y       z     vdW  Elec       q    Type
REMARK                         _______ _______ _______ _____ _____    ______ ____
ROOT
ATOM      1  C   UNL     1       3.140   1.987  19.174  0.00  0.00    +0.000 C 
ATOM      2  C   UNL     1       2.258   2.134  17.937  0.00  0.00    +0.000 C 
ATOM      3  C   UNL     1       1.403   3.326  18.293  0.00  0.00    +0.000 C 
ATOM      4  O   UNL     1       0.861   4.041  17.469  0.00  0.00    +0.000 OA
ATOM      5  N   UNL     1       1.343   3.414  19.678  0.00  0.00    +0.000 N 
ATOM      6  C   UNL     1       2.209   2.431  20.297  0.00  0.00    +0.000 C 
ENDROOT
BRANCH   1   8
ATOM      7  N   UNL     1       4.380   3.771  18.045  0.00  0.00    +0.000 N 
ATOM      8  C   UNL     1       4.383   2.875  19.104  0.00  0.00    +0.000 C 
ATOM      9  O   UNL     1       5.295   2.739  19.916  0.00  0.00    +0.000 OA
ATOM     10  H   UNL     1       3.614   3.721  17.386  0.00  0.00    +0.000 HD
BRANCH   7  14
ATOM     11  C   UNL     1       7.152   6.893  17.298  0.00  0.00    +0.000 A 
ATOM     12  C   UNL     1       7.586   5.706  17.881  0.00  0.00    +0.000 A 
ATOM     13  C   UNL     1       6.694   4.657  18.119  0.00  0.00    +0.000 A 
ATOM     14  C   UNL     1       5.342   4.780  17.796  0.00  0.00    +0.000 A 
ATOM     15  C   UNL     1       4.905   5.981  17.220  0.00  0.00    +0.000 A 
ATOM     16  C   UNL     1       5.804   7.032  16.971  0.00  0.00    +0.000 A 
BRANCH  11  18
ATOM     17  C   UNL     1       7.937   9.045  17.889  0.00  0.00    +0.000 C 
ATOM     18  O   UNL     1       8.117   7.845  17.147  0.00  0.00    +0.000 OA
ENDBRANCH  11  18
ENDBRANCH   7  14
ENDBRANCH   1   8
BRANCH   5  19
ATOM     19  C   UNL     1       0.900   4.591  20.431  0.00  0.00    +0.000 C 
BRANCH  19  20
ATOM     20  C   UNL     1       2.004   5.581  20.815  0.00  0.00    +0.000 C 
BRANCH  20  21
ATOM     21  C   UNL     1       1.774   6.966  20.253  0.00  0.00    +0.000 A 
ATOM     22  C   UNL     1       2.245   7.299  18.974  0.00  0.00    +0.000 A 
ATOM     23  C   UNL     1       2.011   8.570  18.441  0.00  0.00    +0.000 A 
ATOM     24  C   UNL     1       1.310   9.513  19.187  0.00  0.00    +0.000 A 
ATOM     25 CL   UNL     1       1.014  11.076  18.528  0.00  0.00    +0.000 Cl
ATOM     26  C   UNL     1       0.841   9.200  20.460  0.00  0.00    +0.000 A 
ATOM     27  C   UNL     1       1.076   7.929  20.994  0.00  0.00    +0.000 A 
ENDBRANCH  20  21
ENDBRANCH  19  20
ENDBRANCH   5  19
TORSDOF 6
ENDMDL
MODEL 5
REMARK VINA RESULT:      -7.5      1.125      1.481
REMARK  Name = 
REMARK  7 active torsions:
REMARK  status: ('A' for Active; 'I' for Inactive)
REMARK    1  A    between atoms: C_1  and  O_2
REMARK    2  A    between atoms: O_2  and  C_3
REMARK    3  A    between atoms: C_6  and  N_7
REMARK    4  A    between atoms: C_8  and  C_10
REMARK    5  A    between atoms: N_14  and  C_15
REMARK    6  A    between atoms: C_15  and  C_16
REMARK    7  A    between atoms: C_16  and  C_17
REMARK                            x       y       z     vdW  Elec       q    Type
REMARK                         _______ _______ _______ _____ _____    ______ ____
ROOT
ATOM      1  C   UNL     1       3.876   2.493  18.238  0.00  0.00    +0.000 C 
ATOM      2  C   UNL     1       2.971   2.856  17.065  0.00  0.00    +0.000 C 
ATOM      3  C   UNL     1       1.830   3.570  17.748  0.00  0.00    +0.000 C 
ATOM      4  O   UNL     1       1.104   4.374  17.190  0.00  0.00    +0.000 OA
ATOM      5  N   UNL     1       1.767   3.122  19.061  0.00  0.00    +0.000 N 
ATOM      6  C   UNL     1       2.875   2.237  19.360  0.00  0.00    +0.000 C 
ENDROOT
BRANCH   1   8
ATOM      7  N   UNL     1       5.180   4.441  17.531  0.00  0.00    +0.000 N 
ATOM      8  C   UNL     1       4.832   3.631  18.602  0.00  0.00    +0.000 C 
ATOM      9  O   UNL     1       5.256   3.747  19.748  0.00  0.00    +0.000 OA
ATOM     10  H   UNL     1       4.840   4.184  16.613  0.00  0.00    +0.000 HD
BRANCH   7  14
ATOM     11  C   UNL     1       7.624   7.900  17.753  0.00  0.00    +0.000 A 
ATOM     12  C   UNL     1       6.470   7.916  16.975  0.00  0.00    +0.000 A 
ATOM     13  C   UNL     1       5.640   6.794  16.902  0.00  0.00    +0.000 A 
ATOM     14  C   UNL     1       5.958   5.624  17.591  0.00  0.00    +0.000 A 
ATOM     15  C   UNL     1       7.126   5.606  18.365  0.00  0.00    +0.000 A 
ATOM     16  C   UNL     1       7.955   6.738  18.447  0.00  0.00    +0.000 A 
BRANCH  11  18
ATOM     17  C   UNL     1       8.828   9.536  18.965  0.00  0.00    +0.000 C 
ATOM     18  O   UNL     1       8.358   9.050  17.714  0.00  0.00    +0.000 OA
ENDBRANCH  11  18
ENDBRANCH   7  14
ENDBRANCH   1   8
BRANCH   5  19
ATOM     19  C   UNL     1       1.032   3.781  20.143  0.00  0.00    +0.000 C 
BRANCH  19  20
ATOM     20  C   UNL     1       1.841   4.785  20.972  0.00  0.00    +0.000 C 
BRANCH  20  21
ATOM     21  C   UNL     1       1.833   6.178  20.382  0.00  0.00    +0.000 A 
ATOM     22  C   UNL     1       2.591   6.466  19.237  0.00  0.00    +0.000 A 
ATOM     23  C   UNL     1       2.565   7.745  18.674  0.00  0.00    +0.000 A 
ATOM     24  C   UNL     1       1.785   8.740  19.255  0.00  0.00    +0.000 A 
ATOM     25 CL   UNL     1       1.746  10.314  18.557  0.00  0.00    +0.000 Cl
ATOM     26  C   UNL     1       1.032   8.471  20.395  0.00  0.00    +0.000 A 
ATOM     27  C   UNL     1       1.059   7.193  20.960  0.00  0.00    +0.000 A 
ENDBRANCH  20  21
ENDBRANCH  19  20
ENDBRANCH   5  19
TORSDOF 6
ENDMDL
MODEL 6
REMARK VINA RESULT:      -7.4      2.211      2.768
REMARK  Name = 
REMARK  7 active torsions:
REMARK  status: ('A' for Active; 'I' for Inactive)
REMARK    1  A    between atoms: C_1  and  O_2
REMARK    2  A    between atoms: O_2  and  C_3
REMARK    3  A    between atoms: C_6  and  N_7
REMARK    4  A    between atoms: C_8  and  C_10
REMARK    5  A    between atoms: N_14  and  C_15
REMARK    6  A    between atoms: C_15  and  C_16
REMARK    7  A    between atoms: C_16  and  C_17
REMARK                            x       y       z     vdW  Elec       q    Type
REMARK                         _______ _______ _______ _____ _____    ______ ____
ROOT
ATOM      1  C   UNL     1       3.397   2.465  19.728  0.00  0.00    +0.000 C 
ATOM      2  C   UNL     1       2.242   2.209  18.766  0.00  0.00    +0.000 C 
ATOM      3  C   UNL     1       1.515   3.532  18.778  0.00  0.00    +0.000 C 
ATOM      4  O   UNL     1       0.797   3.918  17.872  0.00  0.00    +0.000 OA
ATOM      5  N   UNL     1       1.798   4.167  19.980  0.00  0.00    +0.000 N 
ATOM      6  C   UNL     1       2.777   3.419  20.743  0.00  0.00    +0.000 C 
ENDROOT
BRANCH   1   8
ATOM      7  N   UNL     1       4.486   3.160  17.647  0.00  0.00    +0.000 N 
ATOM      8  C   UNL     1       4.597   3.107  19.029  0.00  0.00    +0.000 C 
ATOM      9  O   UNL     1       5.567   3.490  19.679  0.00  0.00    +0.000 OA
ATOM     10  H   UNL     1       3.679   2.723  17.221  0.00  0.00    +0.000 HD
BRANCH   7  14
ATOM     11  C   UNL     1       7.107   4.997  14.865  0.00  0.00    +0.000 A 
ATOM     12  C   UNL     1       7.043   5.469  16.173  0.00  0.00    +0.000 A 
ATOM     13  C   UNL     1       6.201   4.867  17.111  0.00  0.00    +0.000 A 
ATOM     14  C   UNL     1       5.388   3.790  16.756  0.00  0.00    +0.000 A 
ATOM     15  C   UNL     1       5.445   3.324  15.435  0.00  0.00    +0.000 A 
ATOM     16  C   UNL     1       6.300   3.923  14.494  0.00  0.00    +0.000 A 
BRANCH  11  18
ATOM     17  C   UNL     1       7.961   5.294  12.679  0.00  0.00    +0.000 C 
ATOM     18  O   UNL     1       7.948   5.691  14.045  0.00  0.00    +0.000 OA
ENDBRANCH  11  18
ENDBRANCH   7  14
ENDBRANCH   1   8
BRANCH   5  19
ATOM     19  C   UNL     1       1.569   5.587  20.259  0.00  0.00    +0.000 C 
BRANCH  19  20
ATOM     20  C   UNL     1       2.520   6.559  19.553  0.00  0.00    +0.000 C 
BRANCH  20  21
ATOM     21  C   UNL     1       1.934   7.946  19.397  0.00  0.00    +0.000 A 
ATOM     22  C   UNL     1       1.239   8.545  20.457  0.00  0.00    +0.000 A 
ATOM     23  C   UNL     1       0.720   9.836  20.325  0.00  0.00    +0.000 A 
ATOM     24  C   UNL     1       0.891  10.530  19.130  0.00  0.00    +0.000 A 
ATOM     25 CL   UNL     1       0.259  12.123  18.968  0.00  0.00    +0.000 Cl
ATOM     26  C   UNL     1       1.573   9.945  18.066  0.00  0.00    +0.000 A 
ATOM     27  C   UNL     1       2.091   8.654  18.198  0.00  0.00    +0.000 A 
ENDBRANCH  20  21
ENDBRANCH  19  20
ENDBRANCH   5  19
TORSDOF 6
ENDMDL
MODEL 7
REMARK VINA RESULT:      -7.4      1.209      1.637
REMARK  Name = 
REMARK  7 active torsions:
REMARK  status: ('A' for Active; 'I' for Inactive)
REMARK    1  A    between atoms: C_1  and  O_2
REMARK    2  A    between atoms: O_2  and  C_3
REMARK    3  A    between atoms: C_6  and  N_7
REMARK    4  A    between atoms: C_8  and  C_10
REMARK    5  A    between atoms: N_14  and  C_15
REMARK    6  A    between atoms: C_15  and  C_16
REMARK    7  A    between atoms: C_16  and  C_17
REMARK                            x       y       z     vdW  Elec       q    Type
REMARK                         _______ _______ _______ _____ _____    ______ ____
ROOT
ATOM      1  C   UNL     1       2.909   2.085  19.766  0.00  0.00    +0.000 C 
ATOM      2  C   UNL     1       1.990   2.004  18.551  0.00  0.00    +0.000 C 
ATOM      3  C   UNL     1       1.260   3.323  18.612  0.00  0.00    +0.000 C 
ATOM      4  O   UNL     1       0.747   3.859  17.645  0.00  0.00    +0.000 OA
ATOM      5  N   UNL     1       1.269   3.760  19.931  0.00  0.00    +0.000 N 
ATOM      6  C   UNL     1       2.072   2.884  20.760  0.00  0.00    +0.000 C 
ENDROOT
BRANCH   1   8
ATOM      7  N   UNL     1       4.091   3.849  18.546  0.00  0.00    +0.000 N 
ATOM      8  C   UNL     1       4.222   2.804  19.449  0.00  0.00    +0.000 C 
ATOM      9  O   UNL     1       5.278   2.423  19.946  0.00  0.00    +0.000 OA
ATOM     10  H   UNL     1       3.181   4.004  18.131  0.00  0.00    +0.000 HD
BRANCH   7  14
ATOM     11  C   UNL     1       7.046   6.612  17.273  0.00  0.00    +0.000 A 
ATOM     12  C   UNL     1       7.164   5.994  18.515  0.00  0.00    +0.000 A 
ATOM     13  C   UNL     1       6.212   5.066  18.947  0.00  0.00    +0.000 A 
ATOM     14  C   UNL     1       5.110   4.751  18.152  0.00  0.00    +0.000 A 
ATOM     15  C   UNL     1       4.987   5.382  16.907  0.00  0.00    +0.000 A 
ATOM     16  C   UNL     1       5.950   6.307  16.468  0.00  0.00    +0.000 A 
BRANCH  11  18
ATOM     17  C   UNL     1       8.008   8.722  17.740  0.00  0.00    +0.000 C 
ATOM     18  O   UNL     1       8.027   7.516  16.986  0.00  0.00    +0.000 OA
ENDBRANCH  11  18
ENDBRANCH   7  14
ENDBRANCH   1   8
BRANCH   5  19
ATOM     19  C   UNL     1       0.966   5.124  20.371  0.00  0.00    +0.000 C 
BRANCH  19  20
ATOM     20  C   UNL     1       2.155   6.089  20.392  0.00  0.00    +0.000 C 
BRANCH  20  21
ATOM     21  C   UNL     1       1.783   7.492  19.965  0.00  0.00    +0.000 A 
ATOM     22  C   UNL     1       1.140   8.358  20.862  0.00  0.00    +0.000 A 
ATOM     23  C   UNL     1       0.818   9.664  20.478  0.00  0.00    +0.000 A 
ATOM     24  C   UNL     1       1.134  10.105  19.197  0.00  0.00    +0.000 A 
ATOM     25 CL   UNL     1       0.746  11.715  18.726  0.00  0.00    +0.000 Cl
ATOM     26  C   UNL     1       1.767   9.254  18.293  0.00  0.00    +0.000 A 
ATOM     27  C   UNL     1       2.087   7.949  18.676  0.00  0.00    +0.000 A 
ENDBRANCH  20  21
ENDBRANCH  19  20
ENDBRANCH   5  19
TORSDOF 6
ENDMDL
MODEL 8
REMARK VINA RESULT:      -7.2      2.092      2.559
REMARK  Name = 
REMARK  7 active torsions:
REMARK  status: ('A' for Active; 'I' for Inactive)
REMARK    1  A    between atoms: C_1  and  O_2
REMARK    2  A    between atoms: O_2  and  C_3
REMARK    3  A    between atoms: C_6  and  N_7
REMARK    4  A    between atoms: C_8  and  C_10
REMARK    5  A    between atoms: N_14  and  C_15
REMARK    6  A    between atoms: C_15  and  C_16
REMARK    7  A    between atoms: C_16  and  C_17
REMARK                            x       y       z     vdW  Elec       q    Type
REMARK                         _______ _______ _______ _____ _____    ______ ____
ROOT
ATOM      1  C   UNL     1       2.908   1.947  19.023  0.00  0.00    +0.000 C 
ATOM      2  C   UNL     1       1.384   1.925  19.080  0.00  0.00    +0.000 C 
ATOM      3  C   UNL     1       1.066   3.269  19.688  0.00  0.00    +0.000 C 
ATOM      4  O   UNL     1       0.001   3.843  19.543  0.00  0.00    +0.000 OA
ATOM      5  N   UNL     1       2.168   3.678  20.429  0.00  0.00    +0.000 N 
ATOM      6  C   UNL     1       3.274   2.755  20.263  0.00  0.00    +0.000 C 
ENDROOT
BRANCH   1   8
ATOM      7  N   UNL     1       4.661   3.239  17.903  0.00  0.00    +0.000 N 
ATOM      8  C   UNL     1       3.428   2.622  17.752  0.00  0.00    +0.000 C 
ATOM      9  O   UNL     1       2.754   2.623  16.725  0.00  0.00    +0.000 OA
ATOM     10  H   UNL     1       5.073   3.252  18.827  0.00  0.00    +0.000 HD
BRANCH   7  14
ATOM     11  C   UNL     1       7.035   5.122  14.935  0.00  0.00    +0.000 A 
ATOM     12  C   UNL     1       6.344   3.953  14.631  0.00  0.00    +0.000 A 
ATOM     13  C   UNL     1       5.540   3.326  15.587  0.00  0.00    +0.000 A 
ATOM     14  C   UNL     1       5.427   3.845  16.877  0.00  0.00    +0.000 A 
ATOM     15  C   UNL     1       6.133   5.016  17.185  0.00  0.00    +0.000 A 
ATOM     16  C   UNL     1       6.933   5.653  16.220  0.00  0.00    +0.000 A 
BRANCH  11  18
ATOM     17  C   UNL     1       7.594   5.039  12.638  0.00  0.00    +0.000 C 
ATOM     18  O   UNL     1       7.803   5.616  13.921  0.00  0.00    +0.000 OA
ENDBRANCH  11  18
ENDBRANCH   7  14
ENDBRANCH   1   8
BRANCH   5  19
ATOM     19  C   UNL     1       2.407   5.043  20.903  0.00  0.00    +0.000 C 
BRANCH  19  20
ATOM     20  C   UNL     1       3.132   5.966  19.919  0.00  0.00    +0.000 C 
BRANCH  20  21
ATOM     21  C   UNL     1       2.349   7.222  19.603  0.00  0.00    +0.000 A 
ATOM     22  C   UNL     1       1.614   7.869  20.607  0.00  0.00    +0.000 A 
ATOM     23  C   UNL     1       0.911   9.044  20.325  0.00  0.00    +0.000 A 
ATOM     24  C   UNL     1       0.937   9.572  19.038  0.00  0.00    +0.000 A 
ATOM     25 CL   UNL     1       0.078  11.024  18.691  0.00  0.00    +0.000 Cl
ATOM     26  C   UNL     1       1.658   8.937  18.029  0.00  0.00    +0.000 A 
ATOM     27  C   UNL     1       2.359   7.762  18.310  0.00  0.00    +0.000 A 
ENDBRANCH  20  21
ENDBRANCH  19  20
ENDBRANCH   5  19
TORSDOF 6
ENDMDL
MODEL 9
REMARK VINA RESULT:      -7.1      3.801      5.520
REMARK  Name = 
REMARK  7 active torsions:
REMARK  status: ('A' for Active; 'I' for Inactive)
REMARK    1  A    between atoms: C_1  and  O_2
REMARK    2  A    between atoms: O_2  and  C_3
REMARK    3  A    between atoms: C_6  and  N_7
REMARK    4  A    between atoms: C_8  and  C_10
REMARK    5  A    between atoms: N_14  and  C_15
REMARK    6  A    between atoms: C_15  and  C_16
REMARK    7  A    between atoms: C_16  and  C_17
REMARK                            x       y       z     vdW  Elec       q    Type
REMARK                         _______ _______ _______ _____ _____    ______ ____
ROOT
ATOM      1  C   UNL     1       7.085   6.683  17.059  0.00  0.00    +0.000 C 
ATOM      2  C   UNL     1       7.781   6.416  18.390  0.00  0.00    +0.000 C 
ATOM      3  C   UNL     1       6.696   5.738  19.190  0.00  0.00    +0.000 C 
ATOM      4  O   UNL     1       6.911   4.996  20.132  0.00  0.00    +0.000 OA
ATOM      5  N   UNL     1       5.469   6.137  18.675  0.00  0.00    +0.000 N 
ATOM      6  C   UNL     1       5.646   6.949  17.487  0.00  0.00    +0.000 C 
ENDROOT
BRANCH   1   8
ATOM      7  N   UNL     1       6.368   5.595  14.986  0.00  0.00    +0.000 N 
ATOM      8  C   UNL     1       7.166   5.482  16.114  0.00  0.00    +0.000 C 
ATOM      9  O   UNL     1       7.862   4.511  16.398  0.00  0.00    +0.000 OA
ATOM     10  H   UNL     1       5.765   6.404  14.913  0.00  0.00    +0.000 HD
BRANCH   7  14
ATOM     11  C   UNL     1       6.383   2.908  11.704  0.00  0.00    +0.000 A 
ATOM     12  C   UNL     1       5.343   2.868  12.628  0.00  0.00    +0.000 A 
ATOM     13  C   UNL     1       5.307   3.757  13.706  0.00  0.00    +0.000 A 
ATOM     14  C   UNL     1       6.324   4.693  13.895  0.00  0.00    +0.000 A 
ATOM     15  C   UNL     1       7.377   4.724  12.970  0.00  0.00    +0.000 A 
ATOM     16  C   UNL     1       7.406   3.838  11.879  0.00  0.00    +0.000 A 
BRANCH  11  18
ATOM     17  C   UNL     1       6.237   0.615  11.143  0.00  0.00    +0.000 C 
ATOM     18  O   UNL     1       6.310   1.970  10.717  0.00  0.00    +0.000 OA
ENDBRANCH  11  18
ENDBRANCH   7  14
ENDBRANCH   1   8
BRANCH   5  19
ATOM     19  C   UNL     1       4.188   5.476  18.937  0.00  0.00    +0.000 C 
BRANCH  19  20
ATOM     20  C   UNL     1       3.007   5.971  18.095  0.00  0.00    +0.000 C 
BRANCH  20  21
ATOM     21  C   UNL     1       2.339   7.195  18.680  0.00  0.00    +0.000 A 
ATOM     22  C   UNL     1       2.014   7.241  20.045  0.00  0.00    +0.000 A 
ATOM     23  C   UNL     1       1.421   8.382  20.594  0.00  0.00    +0.000 A 
ATOM     24  C   UNL     1       1.147   9.477  19.781  0.00  0.00    +0.000 A 
ATOM     25 CL   UNL     1       0.423  10.885  20.458  0.00  0.00    +0.000 Cl
ATOM     26  C   UNL     1       1.457   9.444  18.424  0.00  0.00    +0.000 A 
ATOM     27  C   UNL     1       2.049   8.304  17.873  0.00  0.00    +0.000 A 
ENDBRANCH  20  21
ENDBRANCH  19  20
ENDBRANCH   5  19
TORSDOF 6
ENDMDL
