MODEL 1
REMARK VINA RESULT:      -8.1      0.000      0.000
REMARK  Name = 
REMARK  6 active torsions:
REMARK  status: ('A' for Active; 'I' for Inactive)
REMARK    1  A    between atoms: C_1  and  N_2
REMARK    2  A    between atoms: C_6  and  S_7
REMARK    3  A    between atoms: S_7  and  C_8
REMARK    4  A    between atoms: C_8  and  C_9
REMARK    5  A    between atoms: N_11  and  C_12
REMARK    6  A    between atoms: N_11  and  C_18
REMARK                            x       y       z     vdW  Elec       q    Type
REMARK                         _______ _______ _______ _____ _____    ______ ____
ROOT
ATOM      1  C   UNL     1       4.770   5.738  17.280  0.00  0.00    +0.000 C 
ATOM      2  O   UNL     1       4.966   6.944  17.097  0.00  0.00    +0.000 OA
ATOM      3  N   UNL     1       3.497   5.292  17.696  0.00  0.00    +0.000 N 
ENDROOT
BRANCH   3   4
ATOM      4  C   UNL     1       2.955   3.880  17.797  0.00  0.00    +0.000 C 
ATOM      5  C   UNL     1       3.725   2.946  18.805  0.00  0.00    +0.000 C 
ATOM      6  C   UNL     1       3.234   2.929  20.260  0.00  0.00    +0.000 C 
ATOM      7  C   UNL     1       1.721   2.850  20.395  0.00  0.00    +0.000 C 
ATOM      8  C   UNL     1       1.059   3.894  19.511  0.00  0.00    +0.000 C 
ATOM      9  C   UNL     1       1.454   3.653  18.058  0.00  0.00    +0.000 C 
ENDBRANCH   3   4
BRANCH   3  10
ATOM     10  C   UNL     1       2.629   6.355  18.300  0.00  0.00    +0.000 C 
ATOM     11  C   UNL     1       2.660   7.666  17.500  0.00  0.00    +0.000 C 
ATOM     12  C   UNL     1       1.567   8.617  17.986  0.00  0.00    +0.000 C 
ATOM     13  C   UNL     1       1.692   8.904  19.481  0.00  0.00    +0.000 C 
ATOM     14  C   UNL     1       1.762   7.625  20.318  0.00  0.00    +0.000 C 
ATOM     15  C   UNL     1       2.834   6.650  19.807  0.00  0.00    +0.000 C 
ENDBRANCH   3  10
BRANCH   1  16
ATOM     16  C   UNL     1       5.935   4.761  17.083  0.00  0.00    +0.000 C 
BRANCH  16  17
ATOM     17  S   UNL     1       5.704   3.743  15.565  0.00  0.00    +0.000 S 
BRANCH  17  23
ATOM     18  C   UNL     1       5.982   3.322  12.333  0.00  0.00    +0.000 C 
ATOM     19  N   UNL     1       6.782   4.232  13.103  0.00  0.00    +0.000 N 
ATOM     20  N   UNL     1       7.726   4.984  12.506  0.00  0.00    +0.000 NA
ATOM     21  N   UNL     1       8.273   5.695  13.482  0.00  0.00    +0.000 NA
ATOM     22  N   UNL     1       7.687   5.405  14.693  0.00  0.00    +0.000 NA
ATOM     23  C   UNL     1       6.773   4.498  14.442  0.00  0.00    +0.000 A 
ENDBRANCH  17  23
ENDBRANCH  16  17
ENDBRANCH   1  16
TORSDOF 5
ENDMDL
MODEL 2
REMARK VINA RESULT:      -7.8      3.455      7.167
REMARK  Name = 
REMARK  6 active torsions:
REMARK  status: ('A' for Active; 'I' for Inactive)
REMARK    1  A    between atoms: C_1  and  N_2
REMARK    2  A    between atoms: C_6  and  S_7
REMARK    3  A    between atoms: S_7  and  C_8
REMARK    4  A    between atoms: C_8  and  C_9
REMARK    5  A    between atoms: N_11  and  C_12
REMARK    6  A    between atoms: N_11  and  C_18
REMARK                            x       y       z     vdW  Elec       q    Type
REMARK                         _______ _______ _______ _____ _____    ______ ____
ROOT
ATOM      1  C   UNL     1       2.825   6.749  18.067  0.00  0.00    +0.000 C 
ATOM      2  O   UNL     1       1.854   6.241  18.638  0.00  0.00    +0.000 OA
ATOM      3  N   UNL     1       3.785   5.921  17.449  0.00  0.00    +0.000 N 
ENDROOT
BRANCH   3   4
ATOM      4  C   UNL     1       4.936   6.293  16.535  0.00  0.00    +0.000 C 
ATOM      5  C   UNL     1       6.251   6.744  17.275  0.00  0.00    +0.000 C 
ATOM      6  C   UNL     1       7.267   5.648  17.629  0.00  0.00    +0.000 C 
ATOM      7  C   UNL     1       7.515   4.656  16.503  0.00  0.00    +0.000 C 
ATOM      8  C   UNL     1       6.194   4.146  15.951  0.00  0.00    +0.000 C 
ATOM      9  C   UNL     1       5.376   5.321  15.425  0.00  0.00    +0.000 C 
ENDBRANCH   3   4
BRANCH   3  10
ATOM     10  C   UNL     1       3.776   4.497  17.918  0.00  0.00    +0.000 C 
ATOM     11  C   UNL     1       2.522   3.735  17.464  0.00  0.00    +0.000 C 
ATOM     12  C   UNL     1       2.680   2.238  17.725  0.00  0.00    +0.000 C 
ATOM     13  C   UNL     1       2.975   1.948  19.195  0.00  0.00    +0.000 C 
ATOM     14  C   UNL     1       4.162   2.757  19.723  0.00  0.00    +0.000 C 
ATOM     15  C   UNL     1       4.023   4.258  19.429  0.00  0.00    +0.000 C 
ENDBRANCH   3  10
BRANCH   1  16
ATOM     16  C   UNL     1       2.974   8.276  18.079  0.00  0.00    +0.000 C 
BRANCH  16  17
ATOM     17  S   UNL     1       1.330   9.107  18.071  0.00  0.00    +0.000 S 
BRANCH  17  23
ATOM     18  C   UNL     1       0.896  12.152  19.185  0.00  0.00    +0.000 C 
ATOM     19  N   UNL     1       1.006  10.991  20.022  0.00  0.00    +0.000 N 
ATOM     20  N   UNL     1       0.935  11.107  21.362  0.00  0.00    +0.000 NA
ATOM     21  N   UNL     1       1.075   9.873  21.825  0.00  0.00    +0.000 NA
ATOM     22  N   UNL     1       1.233   8.973  20.796  0.00  0.00    +0.000 NA
ATOM     23  C   UNL     1       1.192   9.680  19.691  0.00  0.00    +0.000 A 
ENDBRANCH  17  23
ENDBRANCH  16  17
ENDBRANCH   1  16
TORSDOF 5
ENDMDL
MODEL 3
REMARK VINA RESULT:      -7.7      3.279      5.286
REMARK  Name = 
REMARK  6 active torsions:
REMARK  status: ('A' for Active; 'I' for Inactive)
REMARK    1  A    between atoms: C_1  and  N_2
REMARK    2  A    between atoms: C_6  and  S_7
REMARK    3  A    between atoms: S_7  and  C_8
REMARK    4  A    between atoms: C_8  and  C_9
REMARK    5  A    between atoms: N_11  and  C_12
REMARK    6  A    between atoms: N_11  and  C_18
REMARK                            x       y       z     vdW  Elec       q    Type
REMARK                         _______ _______ _______ _____ _____    ______ ____
ROOT
ATOM      1  C   UNL     1       2.584   4.867  17.965  0.00  0.00    +0.000 C 
ATOM      2  O   UNL     1       1.465   4.672  18.451  0.00  0.00    +0.000 OA
ATOM      3  N   UNL     1       3.207   6.123  18.125  0.00  0.00    +0.000 N 
ENDROOT
BRANCH   3   4
ATOM      4  C   UNL     1       4.627   6.544  17.803  0.00  0.00    +0.000 C 
ATOM      5  C   UNL     1       5.746   5.721  18.548  0.00  0.00    +0.000 C 
ATOM      6  C   UNL     1       6.270   4.458  17.848  0.00  0.00    +0.000 C 
ATOM      7  C   UNL     1       6.543   4.648  16.364  0.00  0.00    +0.000 C 
ATOM      8  C   UNL     1       5.349   5.302  15.689  0.00  0.00    +0.000 C 
ATOM      9  C   UNL     1       5.079   6.656  16.335  0.00  0.00    +0.000 C 
ENDBRANCH   3   4
BRANCH   3  10
ATOM     10  C   UNL     1       2.276   7.240  18.487  0.00  0.00    +0.000 C 
ATOM     11  C   UNL     1       2.535   8.513  17.667  0.00  0.00    +0.000 C 
ATOM     12  C   UNL     1       1.405   9.521  17.869  0.00  0.00    +0.000 C 
ATOM     13  C   UNL     1       1.217   9.870  19.345  0.00  0.00    +0.000 C 
ATOM     14  C   UNL     1       1.049   8.627  20.222  0.00  0.00    +0.000 C 
ATOM     15  C   UNL     1       2.163   7.595  19.991  0.00  0.00    +0.000 C 
ENDBRANCH   3  10
BRANCH   1  16
ATOM     16  C   UNL     1       3.250   3.739  17.165  0.00  0.00    +0.000 C 
BRANCH  16  17
ATOM     17  S   UNL     1       2.778   2.085  17.825  0.00  0.00    +0.000 S 
BRANCH  17  23
ATOM     18  C   UNL     1       1.436   2.584  20.766  0.00  0.00    +0.000 C 
ATOM     19  N   UNL     1       2.827   2.303  20.548  0.00  0.00    +0.000 N 
ATOM     20  N   UNL     1       3.680   2.231  21.587  0.00  0.00    +0.000 NA
ATOM     21  N   UNL     1       4.862   1.966  21.048  0.00  0.00    +0.000 NA
ATOM     22  N   UNL     1       4.771   1.868  19.679  0.00  0.00    +0.000 NA
ATOM     23  C   UNL     1       3.510   2.083  19.386  0.00  0.00    +0.000 A 
ENDBRANCH  17  23
ENDBRANCH  16  17
ENDBRANCH   1  16
TORSDOF 5
ENDMDL
MODEL 4
REMARK VINA RESULT:      -7.6      1.314      3.522
REMARK  Name = 
REMARK  6 active torsions:
REMARK  status: ('A' for Active; 'I' for Inactive)
REMARK    1  A    between atoms: C_1  and  N_2
REMARK    2  A    between atoms: C_6  and  S_7
REMARK    3  A    between atoms: S_7  and  C_8
REMARK    4  A    between atoms: C_8  and  C_9
REMARK    5  A    between atoms: N_11  and  C_12
REMARK    6  A    between atoms: N_11  and  C_18
REMARK                            x       y       z     vdW  Elec       q    Type
REMARK                         _______ _______ _______ _____ _____    ______ ____
ROOT
ATOM      1  C   UNL     1       5.502   4.458  18.384  0.00  0.00    +0.000 C 
ATOM      2  O   UNL     1       6.019   3.897  19.356  0.00  0.00    +0.000 OA
ATOM      3  N   UNL     1       4.115   4.721  18.385  0.00  0.00    +0.000 N 
ENDROOT
BRANCH   3   4
ATOM      4  C   UNL     1       3.291   5.555  17.425  0.00  0.00    +0.000 C 
ATOM      5  C   UNL     1       1.930   6.090  18.012  0.00  0.00    +0.000 C 
ATOM      6  C   UNL     1       1.960   7.455  18.716  0.00  0.00    +0.000 C 
ATOM      7  C   UNL     1       2.756   8.513  17.968  0.00  0.00    +0.000 C 
ATOM      8  C   UNL     1       4.119   7.968  17.577  0.00  0.00    +0.000 C 
ATOM      9  C   UNL     1       3.940   6.742  16.689  0.00  0.00    +0.000 C 
ENDBRANCH   3   4
BRANCH   3  10
ATOM     10  C   UNL     1       3.325   3.908  19.365  0.00  0.00    +0.000 C 
ATOM     11  C   UNL     1       2.177   3.135  18.700  0.00  0.00    +0.000 C 
ATOM     12  C   UNL     1       1.578   2.121  19.673  0.00  0.00    +0.000 C 
ATOM     13  C   UNL     1       1.094   2.788  20.958  0.00  0.00    +0.000 C 
ATOM     14  C   UNL     1       2.176   3.650  21.612  0.00  0.00    +0.000 C 
ATOM     15  C   UNL     1       2.807   4.644  20.626  0.00  0.00    +0.000 C 
ENDBRANCH   3  10
BRANCH   1  16
ATOM     16  C   UNL     1       6.384   4.820  17.183  0.00  0.00    +0.000 C 
BRANCH  16  17
ATOM     17  S   UNL     1       5.953   3.804  15.708  0.00  0.00    +0.000 S 
BRANCH  17  23
ATOM     18  C   UNL     1       5.899   3.298  12.477  0.00  0.00    +0.000 C 
ATOM     19  N   UNL     1       6.761   4.239  13.135  0.00  0.00    +0.000 N 
ATOM     20  N   UNL     1       7.626   4.986  12.423  0.00  0.00    +0.000 NA
ATOM     21  N   UNL     1       8.261   5.730  13.317  0.00  0.00    +0.000 NA
ATOM     22  N   UNL     1       7.810   5.466  14.591  0.00  0.00    +0.000 NA
ATOM     23  C   UNL     1       6.888   4.540  14.461  0.00  0.00    +0.000 A 
ENDBRANCH  17  23
ENDBRANCH  16  17
ENDBRANCH   1  16
TORSDOF 5
ENDMDL
MODEL 5
REMARK VINA RESULT:      -7.6      3.509      7.121
REMARK  Name = 
REMARK  6 active torsions:
REMARK  status: ('A' for Active; 'I' for Inactive)
REMARK    1  A    between atoms: C_1  and  N_2
REMARK    2  A    between atoms: C_6  and  S_7
REMARK    3  A    between atoms: S_7  and  C_8
REMARK    4  A    between atoms: C_8  and  C_9
REMARK    5  A    between atoms: N_11  and  C_12
REMARK    6  A    between atoms: N_11  and  C_18
REMARK                            x       y       z     vdW  Elec       q    Type
REMARK                         _______ _______ _______ _____ _____    ______ ____
ROOT
ATOM      1  C   UNL     1       2.764   6.678  18.174  0.00  0.00    +0.000 C 
ATOM      2  O   UNL     1       1.818   6.115  18.736  0.00  0.00    +0.000 OA
ATOM      3  N   UNL     1       3.750   5.906  17.524  0.00  0.00    +0.000 N 
ENDROOT
BRANCH   3   4
ATOM      4  C   UNL     1       4.878   6.349  16.613  0.00  0.00    +0.000 C 
ATOM      5  C   UNL     1       6.229   6.685  17.349  0.00  0.00    +0.000 C 
ATOM      6  C   UNL     1       7.227   5.533  17.542  0.00  0.00    +0.000 C 
ATOM      7  C   UNL     1       7.408   4.666  16.306  0.00  0.00    +0.000 C 
ATOM      8  C   UNL     1       6.055   4.252  15.751  0.00  0.00    +0.000 C 
ATOM      9  C   UNL     1       5.253   5.496  15.388  0.00  0.00    +0.000 C 
ENDBRANCH   3   4
BRANCH   3  10
ATOM     10  C   UNL     1       3.799   4.469  17.948  0.00  0.00    +0.000 C 
ATOM     11  C   UNL     1       2.572   3.673  17.477  0.00  0.00    +0.000 C 
ATOM     12  C   UNL     1       2.789   2.176  17.689  0.00  0.00    +0.000 C 
ATOM     13  C   UNL     1       3.104   1.852  19.148  0.00  0.00    +0.000 C 
ATOM     14  C   UNL     1       4.262   2.690  19.696  0.00  0.00    +0.000 C 
ATOM     15  C   UNL     1       4.063   4.193  19.449  0.00  0.00    +0.000 C 
ENDBRANCH   3  10
BRANCH   1  16
ATOM     16  C   UNL     1       2.855   8.208  18.233  0.00  0.00    +0.000 C 
BRANCH  16  17
ATOM     17  S   UNL     1       1.202   8.985  17.996  0.00  0.00    +0.000 S 
BRANCH  17  23
ATOM     18  C   UNL     1       0.899   8.385  21.197  0.00  0.00    +0.000 C 
ATOM     19  N   UNL     1       0.991   9.698  20.625  0.00  0.00    +0.000 N 
ATOM     20  N   UNL     1       0.951  10.791  21.412  0.00  0.00    +0.000 NA
ATOM     21  N   UNL     1       1.052  11.820  20.582  0.00  0.00    +0.000 NA
ATOM     22  N   UNL     1       1.156  11.396  19.277  0.00  0.00    +0.000 NA
ATOM     23  C   UNL     1       1.112  10.085  19.320  0.00  0.00    +0.000 A 
ENDBRANCH  17  23
ENDBRANCH  16  17
ENDBRANCH   1  16
TORSDOF 5
ENDMDL
MODEL 6
REMARK VINA RESULT:      -7.5      1.938      3.743
REMARK  Name = 
REMARK  6 active torsions:
REMARK  status: ('A' for Active; 'I' for Inactive)
REMARK    1  A    between atoms: C_1  and  N_2
REMARK    2  A    between atoms: C_6  and  S_7
REMARK    3  A    between atoms: S_7  and  C_8
REMARK    4  A    between atoms: C_8  and  C_9
REMARK    5  A    between atoms: N_11  and  C_12
REMARK    6  A    between atoms: N_11  and  C_18
REMARK                            x       y       z     vdW  Elec       q    Type
REMARK                         _______ _______ _______ _____ _____    ______ ____
ROOT
ATOM      1  C   UNL     1       4.302   3.844  17.043  0.00  0.00    +0.000 C 
ATOM      2  O   UNL     1       3.781   2.740  16.854  0.00  0.00    +0.000 OA
ATOM      3  N   UNL     1       4.185   4.466  18.305  0.00  0.00    +0.000 N 
ENDROOT
BRANCH   3   4
ATOM      4  C   UNL     1       4.883   5.700  18.841  0.00  0.00    +0.000 C 
ATOM      5  C   UNL     1       6.359   5.461  19.339  0.00  0.00    +0.000 C 
ATOM      6  C   UNL     1       7.482   5.630  18.305  0.00  0.00    +0.000 C 
ATOM      7  C   UNL     1       7.329   6.864  17.428  0.00  0.00    +0.000 C 
ATOM      8  C   UNL     1       5.922   6.932  16.858  0.00  0.00    +0.000 C 
ATOM      9  C   UNL     1       4.913   6.989  18.000  0.00  0.00    +0.000 C 
ENDBRANCH   3   4
BRANCH   3  10
ATOM     10  C   UNL     1       3.074   3.937  19.161  0.00  0.00    +0.000 C 
ATOM     11  C   UNL     1       2.301   5.053  19.880  0.00  0.00    +0.000 C 
ATOM     12  C   UNL     1       1.026   4.500  20.514  0.00  0.00    +0.000 C 
ATOM     13  C   UNL     1       1.325   3.355  21.479  0.00  0.00    +0.000 C 
ATOM     14  C   UNL     1       2.176   2.257  20.837  0.00  0.00    +0.000 C 
ATOM     15  C   UNL     1       3.440   2.816  20.165  0.00  0.00    +0.000 C 
ENDBRANCH   3  10
BRANCH   1  16
ATOM     16  C   UNL     1       5.034   4.526  15.880  0.00  0.00    +0.000 C 
BRANCH  16  17
ATOM     17  S   UNL     1       6.572   3.617  15.435  0.00  0.00    +0.000 S 
BRANCH  17  23
ATOM     18  C   UNL     1       5.937   3.163  12.258  0.00  0.00    +0.000 C 
ATOM     19  N   UNL     1       6.788   4.198  12.774  0.00  0.00    +0.000 N 
ATOM     20  N   UNL     1       7.393   5.064  11.938  0.00  0.00    +0.000 NA
ATOM     21  N   UNL     1       8.095   5.870  12.722  0.00  0.00    +0.000 NA
ATOM     22  N   UNL     1       7.944   5.527  14.047  0.00  0.00    +0.000 NA
ATOM     23  C   UNL     1       7.139   4.491  14.061  0.00  0.00    +0.000 A 
ENDBRANCH  17  23
ENDBRANCH  16  17
ENDBRANCH   1  16
TORSDOF 5
ENDMDL
MODEL 7
REMARK VINA RESULT:      -7.5      0.786      1.728
REMARK  Name = 
REMARK  6 active torsions:
REMARK  status: ('A' for Active; 'I' for Inactive)
REMARK    1  A    between atoms: C_1  and  N_2
REMARK    2  A    between atoms: C_6  and  S_7
REMARK    3  A    between atoms: S_7  and  C_8
REMARK    4  A    between atoms: C_8  and  C_9
REMARK    5  A    between atoms: N_11  and  C_12
REMARK    6  A    between atoms: N_11  and  C_18
REMARK                            x       y       z     vdW  Elec       q    Type
REMARK                         _______ _______ _______ _____ _____    ______ ____
ROOT
ATOM      1  C   UNL     1       4.660   5.803  17.503  0.00  0.00    +0.000 C 
ATOM      2  O   UNL     1       4.679   6.754  16.715  0.00  0.00    +0.000 OA
ATOM      3  N   UNL     1       3.657   5.736  18.494  0.00  0.00    +0.000 N 
ENDROOT
BRANCH   3   4
ATOM      4  C   UNL     1       3.303   4.601  19.434  0.00  0.00    +0.000 C 
ATOM      5  C   UNL     1       1.762   4.430  19.714  0.00  0.00    +0.000 C 
ATOM      6  C   UNL     1       0.977   3.508  18.770  0.00  0.00    +0.000 C 
ATOM      7  C   UNL     1       1.686   2.198  18.462  0.00  0.00    +0.000 C 
ATOM      8  C   UNL     1       3.123   2.465  18.043  0.00  0.00    +0.000 C 
ATOM      9  C   UNL     1       3.854   3.188  19.169  0.00  0.00    +0.000 C 
ENDBRANCH   3   4
BRANCH   3  10
ATOM     10  C   UNL     1       2.973   7.039  18.779  0.00  0.00    +0.000 C 
ATOM     11  C   UNL     1       2.204   7.022  20.109  0.00  0.00    +0.000 C 
ATOM     12  C   UNL     1       1.758   8.433  20.489  0.00  0.00    +0.000 C 
ATOM     13  C   UNL     1       0.908   9.072  19.392  0.00  0.00    +0.000 C 
ATOM     14  C   UNL     1       1.592   9.029  18.024  0.00  0.00    +0.000 C 
ATOM     15  C   UNL     1       2.076   7.618  17.657  0.00  0.00    +0.000 C 
ENDBRANCH   3  10
BRANCH   1  16
ATOM     16  C   UNL     1       5.757   4.736  17.403  0.00  0.00    +0.000 C 
BRANCH  16  17
ATOM     17  S   UNL     1       5.601   3.763  15.847  0.00  0.00    +0.000 S 
BRANCH  17  23
ATOM     18  C   UNL     1       5.978   3.482  12.610  0.00  0.00    +0.000 C 
ATOM     19  N   UNL     1       6.754   4.357  13.443  0.00  0.00    +0.000 N 
ATOM     20  N   UNL     1       7.716   5.134  12.908  0.00  0.00    +0.000 NA
ATOM     21  N   UNL     1       8.231   5.801  13.930  0.00  0.00    +0.000 NA
ATOM     22  N   UNL     1       7.609   5.459  15.110  0.00  0.00    +0.000 NA
ATOM     23  C   UNL     1       6.703   4.564  14.792  0.00  0.00    +0.000 A 
ENDBRANCH  17  23
ENDBRANCH  16  17
ENDBRANCH   1  16
TORSDOF 5
ENDMDL
MODEL 8
REMARK VINA RESULT:      -7.4      3.495      6.915
REMARK  Name = 
REMARK  6 active torsions:
REMARK  status: ('A' for Active; 'I' for Inactive)
REMARK    1  A    between atoms: C_1  and  N_2
REMARK    2  A    between atoms: C_6  and  S_7
REMARK    3  A    between atoms: S_7  and  C_8
REMARK    4  A    between atoms: C_8  and  C_9
REMARK    5  A    between atoms: N_11  and  C_12
REMARK    6  A    between atoms: N_11  and  C_18
REMARK                            x       y       z     vdW  Elec       q    Type
REMARK                         _______ _______ _______ _____ _____    ______ ____
ROOT
ATOM      1  C   UNL     1       3.275   7.058  17.862  0.00  0.00    +0.000 C 
ATOM      2  O   UNL     1       4.244   7.711  17.461  0.00  0.00    +0.000 OA
ATOM      3  N   UNL     1       3.452   5.712  18.248  0.00  0.00    +0.000 N 
ENDROOT
BRANCH   3   4
ATOM      4  C   UNL     1       2.487   4.774  18.946  0.00  0.00    +0.000 C 
ATOM      5  C   UNL     1       1.691   3.810  17.988  0.00  0.00    +0.000 C 
ATOM      6  C   UNL     1       2.332   2.450  17.672  0.00  0.00    +0.000 C 
ATOM      7  C   UNL     1       2.915   1.749  18.889  0.00  0.00    +0.000 C 
ATOM      8  C   UNL     1       3.800   2.705  19.672  0.00  0.00    +0.000 C 
ATOM      9  C   UNL     1       2.977   3.907  20.121  0.00  0.00    +0.000 C 
ENDBRANCH   3   4
BRANCH   3  10
ATOM     10  C   UNL     1       4.701   5.070  17.724  0.00  0.00    +0.000 C 
ATOM     11  C   UNL     1       5.974   5.657  18.353  0.00  0.00    +0.000 C 
ATOM     12  C   UNL     1       7.190   4.801  18.002  0.00  0.00    +0.000 C 
ATOM     13  C   UNL     1       7.362   4.657  16.492  0.00  0.00    +0.000 C 
ATOM     14  C   UNL     1       6.088   4.164  15.803  0.00  0.00    +0.000 C 
ATOM     15  C   UNL     1       4.857   5.000  16.184  0.00  0.00    +0.000 C 
ENDBRANCH   3  10
BRANCH   1  16
ATOM     16  C   UNL     1       1.894   7.724  17.892  0.00  0.00    +0.000 C 
BRANCH  16  17
ATOM     17  S   UNL     1       2.040   9.557  17.990  0.00  0.00    +0.000 S 
BRANCH  17  23
ATOM     18  C   UNL     1       0.972  11.250  20.577  0.00  0.00    +0.000 C 
ATOM     19  N   UNL     1       0.126  10.755  19.528  0.00  0.00    +0.000 N 
ATOM     20  N   UNL     1      -1.203  10.971  19.564  0.00  0.00    +0.000 NA
ATOM     21  N   UNL     1      -1.678  10.391  18.471  0.00  0.00    +0.000 NA
ATOM     22  N   UNL     1      -0.668   9.808  17.740  0.00  0.00    +0.000 NA
ATOM     23  C   UNL     1       0.438  10.038  18.409  0.00  0.00    +0.000 A 
ENDBRANCH  17  23
ENDBRANCH  16  17
ENDBRANCH   1  16
TORSDOF 5
ENDMDL
MODEL 9
REMARK VINA RESULT:      -7.4      3.569      7.377
REMARK  Name = 
REMARK  6 active torsions:
REMARK  status: ('A' for Active; 'I' for Inactive)
REMARK    1  A    between atoms: C_1  and  N_2
REMARK    2  A    between atoms: C_6  and  S_7
REMARK    3  A    between atoms: S_7  and  C_8
REMARK    4  A    between atoms: C_8  and  C_9
REMARK    5  A    between atoms: N_11  and  C_12
REMARK    6  A    between atoms: N_11  and  C_18
REMARK                            x       y       z     vdW  Elec       q    Type
REMARK                         _______ _______ _______ _____ _____    ______ ____
ROOT
ATOM      1  C   UNL     1       2.617   6.263  18.275  0.00  0.00    +0.000 C 
ATOM      2  O   UNL     1       1.677   5.519  18.574  0.00  0.00    +0.000 OA
ATOM      3  N   UNL     1       3.833   5.706  17.826  0.00  0.00    +0.000 N 
ENDROOT
BRANCH   3   4
ATOM      4  C   UNL     1       5.044   6.392  17.223  0.00  0.00    +0.000 C 
ATOM      5  C   UNL     1       6.432   5.873  17.758  0.00  0.00    +0.000 C 
ATOM      6  C   UNL     1       7.080   4.703  17.003  0.00  0.00    +0.000 C 
ATOM      7  C   UNL     1       7.027   4.845  15.489  0.00  0.00    +0.000 C 
ATOM      8  C   UNL     1       5.616   5.188  15.042  0.00  0.00    +0.000 C 
ATOM      9  C   UNL     1       5.181   6.497  15.693  0.00  0.00    +0.000 C 
ENDBRANCH   3   4
BRANCH   3  10
ATOM     10  C   UNL     1       4.023   4.260  18.169  0.00  0.00    +0.000 C 
ATOM     11  C   UNL     1       3.121   3.334  17.339  0.00  0.00    +0.000 C 
ATOM     12  C   UNL     1       3.537   1.875  17.522  0.00  0.00    +0.000 C 
ATOM     13  C   UNL     1       3.514   1.461  18.992  0.00  0.00    +0.000 C 
ATOM     14  C   UNL     1       4.322   2.409  19.879  0.00  0.00    +0.000 C 
ATOM     15  C   UNL     1       3.933   3.881  19.669  0.00  0.00    +0.000 C 
ENDBRANCH   3  10
BRANCH   1  16
ATOM     16  C   UNL     1       2.442   7.778  18.438  0.00  0.00    +0.000 C 
BRANCH  16  17
ATOM     17  S   UNL     1       1.774   8.197  20.103  0.00  0.00    +0.000 S 
BRANCH  17  23
ATOM     18  C   UNL     1      -0.340   9.767  22.044  0.00  0.00    +0.000 C 
ATOM     19  N   UNL     1      -0.060  10.136  20.685  0.00  0.00    +0.000 N 
ATOM     20  N   UNL     1      -0.684  11.189  20.121  0.00  0.00    +0.000 NA
ATOM     21  N   UNL     1      -0.211  11.251  18.885  0.00  0.00    +0.000 NA
ATOM     22  N   UNL     1       0.707  10.251  18.654  0.00  0.00    +0.000 NA
ATOM     23  C   UNL     1       0.784   9.570  19.774  0.00  0.00    +0.000 A 
ENDBRANCH  17  23
ENDBRANCH  16  17
ENDBRANCH   1  16
TORSDOF 5
ENDMDL
