MODEL 1
REMARK VINA RESULT:      -8.4      0.000      0.000
REMARK  Name = 
REMARK  6 active torsions:
REMARK  status: ('A' for Active; 'I' for Inactive)
REMARK    1  A    between atoms: C_2  and  C_3
REMARK    2  A    between atoms: C_3  and  O_4
REMARK    3  A    between atoms: O_4  and  C_5
REMARK    4  A    between atoms: C_16  and  O_17
REMARK    5  A    between atoms: O_17  and  C_18
REMARK    6  A    between atoms: C_18  and  C_19
REMARK                            x       y       z     vdW  Elec       q    Type
REMARK                         _______ _______ _______ _____ _____    ______ ____
ROOT
ATOM      1  C   UNL     1       5.742   4.866  15.214  0.00  0.00    +0.000 A 
ATOM      2  C   UNL     1       5.362   6.176  15.472  0.00  0.00    +0.000 A 
ATOM      3  C   UNL     1       4.515   6.459  16.560  0.00  0.00    +0.000 A 
ATOM      4  C   UNL     1       4.011   5.441  17.399  0.00  0.00    +0.000 A 
ATOM      5  C   UNL     1       4.382   4.129  17.098  0.00  0.00    +0.000 A 
ATOM      6  C   UNL     1       5.222   3.852  16.008  0.00  0.00    +0.000 A 
ATOM      7  C   UNL     1       3.926   2.949  17.893  0.00  0.00    +0.000 C 
ATOM      8  C   UNL     1       3.009   3.247  19.058  0.00  0.00    +0.000 C 
ATOM      9  N   UNL     1       2.675   4.630  19.344  0.00  0.00    +0.000 N 
ATOM     10  C   UNL     1       3.119   5.694  18.565  0.00  0.00    +0.000 A 
ATOM     11  C   UNL     1       2.728   6.935  18.897  0.00  0.00    +0.000 A 
ATOM     12  C   UNL     1       1.911   7.037  20.091  0.00  0.00    +0.000 A 
ATOM     13  N   UNL     1       1.494   6.084  20.833  0.00  0.00    +0.000 NA
ATOM     14  C   UNL     1       1.839   4.815  20.467  0.00  0.00    +0.000 A 
ATOM     15  O   UNL     1       1.437   3.850  21.112  0.00  0.00    +0.000 OA
ENDROOT
BRANCH   1  16
ATOM     16  O   UNL     1       6.620   4.635  14.191  0.00  0.00    +0.000 OA
BRANCH  16  17
ATOM     17  C   UNL     1       6.247   3.528  13.358  0.00  0.00    +0.000 C 
BRANCH  17  19
ATOM     18  C   UNL     1       4.526   3.152  11.579  0.00  0.00    +0.000 C 
ATOM     19  C   UNL     1       5.095   3.937  12.502  0.00  0.00    +0.000 C 
ENDBRANCH  17  19
ENDBRANCH  16  17
ENDBRANCH   1  16
BRANCH  12  20
ATOM     20  O   UNL     1       1.658   8.349  20.348  0.00  0.00    +0.000 OA
BRANCH  20  21
ATOM     21  C   UNL     1       1.354   8.669  21.717  0.00  0.00    +0.000 C 
BRANCH  21  22
ATOM     22  C   UNL     1       0.131   9.587  21.795  0.00  0.00    +0.000 C 
ATOM     23  C   UNL     1      -0.353   9.763  23.243  0.00  0.00    +0.000 C 
ATOM     24  O   UNL     1      -1.457  10.683  23.303  0.00  0.00    +0.000 OA
ATOM     25  C   UNL     1      -1.071  11.951  22.754  0.00  0.00    +0.000 C 
ATOM     26  C   UNL     1      -0.613  11.782  21.308  0.00  0.00    +0.000 C 
ATOM     27  O   UNL     1       0.487  10.866  21.230  0.00  0.00    +0.000 OA
ENDBRANCH  21  22
ENDBRANCH  20  21
ENDBRANCH  12  20
TORSDOF 6
ENDMDL
MODEL 2
REMARK VINA RESULT:      -8.0      0.769      1.127
REMARK  Name = 
REMARK  6 active torsions:
REMARK  status: ('A' for Active; 'I' for Inactive)
REMARK    1  A    between atoms: C_2  and  C_3
REMARK    2  A    between atoms: C_3  and  O_4
REMARK    3  A    between atoms: O_4  and  C_5
REMARK    4  A    between atoms: C_16  and  O_17
REMARK    5  A    between atoms: O_17  and  C_18
REMARK    6  A    between atoms: C_18  and  C_19
REMARK                            x       y       z     vdW  Elec       q    Type
REMARK                         _______ _______ _______ _____ _____    ______ ____
ROOT
ATOM      1  C   UNL     1       5.918   4.462  15.398  0.00  0.00    +0.000 A 
ATOM      2  C   UNL     1       5.650   5.796  15.672  0.00  0.00    +0.000 A 
ATOM      3  C   UNL     1       4.753   6.133  16.703  0.00  0.00    +0.000 A 
ATOM      4  C   UNL     1       4.087   5.149  17.467  0.00  0.00    +0.000 A 
ATOM      5  C   UNL     1       4.350   3.814  17.148  0.00  0.00    +0.000 A 
ATOM      6  C   UNL     1       5.240   3.484  16.115  0.00  0.00    +0.000 A 
ATOM      7  C   UNL     1       3.719   2.665  17.865  0.00  0.00    +0.000 C 
ATOM      8  C   UNL     1       2.748   3.023  18.968  0.00  0.00    +0.000 C 
ATOM      9  N   UNL     1       2.531   4.424  19.277  0.00  0.00    +0.000 N 
ATOM     10  C   UNL     1       3.137   5.458  18.571  0.00  0.00    +0.000 A 
ATOM     11  C   UNL     1       2.846   6.724  18.915  0.00  0.00    +0.000 A 
ATOM     12  C   UNL     1       1.953   6.874  20.049  0.00  0.00    +0.000 A 
ATOM     13  N   UNL     1       1.387   5.948  20.723  0.00  0.00    +0.000 NA
ATOM     14  C   UNL     1       1.633   4.662  20.341  0.00  0.00    +0.000 A 
ATOM     15  O   UNL     1       1.089   3.725  20.920  0.00  0.00    +0.000 OA
ENDROOT
BRANCH   1  16
ATOM     16  O   UNL     1       6.846   4.172  14.435  0.00  0.00    +0.000 OA
BRANCH  16  17
ATOM     17  C   UNL     1       6.423   4.525  13.110  0.00  0.00    +0.000 C 
BRANCH  17  19
ATOM     18  C   UNL     1       4.685   3.307  11.784  0.00  0.00    +0.000 C 
ATOM     19  C   UNL     1       5.845   3.318  12.452  0.00  0.00    +0.000 C 
ENDBRANCH  17  19
ENDBRANCH  16  17
ENDBRANCH   1  16
BRANCH  12  20
ATOM     20  O   UNL     1       1.811   8.198  20.331  0.00  0.00    +0.000 OA
BRANCH  20  21
ATOM     21  C   UNL     1       0.867   8.516  21.369  0.00  0.00    +0.000 C 
BRANCH  21  22
ATOM     22  C   UNL     1       0.480   9.997  21.307  0.00  0.00    +0.000 C 
ATOM     23  C   UNL     1      -0.340  10.315  20.047  0.00  0.00    +0.000 C 
ATOM     24  O   UNL     1      -0.752  11.693  20.044  0.00  0.00    +0.000 OA
ATOM     25  C   UNL     1      -1.523  11.979  21.220  0.00  0.00    +0.000 C 
ATOM     26  C   UNL     1      -0.702  11.687  22.472  0.00  0.00    +0.000 C 
ATOM     27  O   UNL     1      -0.280  10.316  22.492  0.00  0.00    +0.000 OA
ENDBRANCH  21  22
ENDBRANCH  20  21
ENDBRANCH  12  20
TORSDOF 6
ENDMDL
MODEL 3
REMARK VINA RESULT:      -8.0      1.152      1.266
REMARK  Name = 
REMARK  6 active torsions:
REMARK  status: ('A' for Active; 'I' for Inactive)
REMARK    1  A    between atoms: C_2  and  C_3
REMARK    2  A    between atoms: C_3  and  O_4
REMARK    3  A    between atoms: O_4  and  C_5
REMARK    4  A    between atoms: C_16  and  O_17
REMARK    5  A    between atoms: O_17  and  C_18
REMARK    6  A    between atoms: C_18  and  C_19
REMARK                            x       y       z     vdW  Elec       q    Type
REMARK                         _______ _______ _______ _____ _____    ______ ____
ROOT
ATOM      1  C   UNL     1       5.587   5.370  15.381  0.00  0.00    +0.000 A 
ATOM      2  C   UNL     1       5.211   6.628  15.831  0.00  0.00    +0.000 A 
ATOM      3  C   UNL     1       4.352   6.748  16.940  0.00  0.00    +0.000 A 
ATOM      4  C   UNL     1       3.834   5.618  17.610  0.00  0.00    +0.000 A 
ATOM      5  C   UNL     1       4.202   4.364  17.117  0.00  0.00    +0.000 A 
ATOM      6  C   UNL     1       5.053   4.251  16.007  0.00  0.00    +0.000 A 
ATOM      7  C   UNL     1       3.732   3.080  17.719  0.00  0.00    +0.000 C 
ATOM      8  C   UNL     1       2.803   3.204  18.905  0.00  0.00    +0.000 C 
ATOM      9  N   UNL     1       2.472   4.530  19.394  0.00  0.00    +0.000 N 
ATOM     10  C   UNL     1       2.930   5.697  18.791  0.00  0.00    +0.000 A 
ATOM     11  C   UNL     1       2.541   6.876  19.303  0.00  0.00    +0.000 A 
ATOM     12  C   UNL     1       1.711   6.800  20.490  0.00  0.00    +0.000 A 
ATOM     13  N   UNL     1       1.281   5.748  21.074  0.00  0.00    +0.000 NA
ATOM     14  C   UNL     1       1.624   4.547  20.524  0.00  0.00    +0.000 A 
ATOM     15  O   UNL     1       1.210   3.499  21.011  0.00  0.00    +0.000 OA
ENDROOT
BRANCH   1  16
ATOM     16  O   UNL     1       6.476   5.292  14.344  0.00  0.00    +0.000 OA
BRANCH  16  17
ATOM     17  C   UNL     1       6.745   3.946  13.924  0.00  0.00    +0.000 C 
BRANCH  17  19
ATOM     18  C   UNL     1       5.226   3.202  12.079  0.00  0.00    +0.000 C 
ATOM     19  C   UNL     1       6.350   3.801  12.493  0.00  0.00    +0.000 C 
ENDBRANCH  17  19
ENDBRANCH  16  17
ENDBRANCH   1  16
BRANCH  12  20
ATOM     20  O   UNL     1       1.461   8.060  20.940  0.00  0.00    +0.000 OA
BRANCH  20  21
ATOM     21  C   UNL     1       0.082   8.359  21.221  0.00  0.00    +0.000 C 
BRANCH  21  22
ATOM     22  C   UNL     1      -0.155   9.872  21.197  0.00  0.00    +0.000 C 
ATOM     23  C   UNL     1       1.160  10.653  21.345  0.00  0.00    +0.000 C 
ATOM     24  O   UNL     1       0.925  12.069  21.249  0.00  0.00    +0.000 OA
ATOM     25  C   UNL     1       0.305  12.380  19.993  0.00  0.00    +0.000 C 
ATOM     26  C   UNL     1      -1.014  11.624  19.855  0.00  0.00    +0.000 C 
ATOM     27  O   UNL     1      -0.798  10.210  19.950  0.00  0.00    +0.000 OA
ENDBRANCH  21  22
ENDBRANCH  20  21
ENDBRANCH  12  20
TORSDOF 6
ENDMDL
MODEL 4
REMARK VINA RESULT:      -7.9      1.308      1.579
REMARK  Name = 
REMARK  6 active torsions:
REMARK  status: ('A' for Active; 'I' for Inactive)
REMARK    1  A    between atoms: C_2  and  C_3
REMARK    2  A    between atoms: C_3  and  O_4
REMARK    3  A    between atoms: O_4  and  C_5
REMARK    4  A    between atoms: C_16  and  O_17
REMARK    5  A    between atoms: O_17  and  C_18
REMARK    6  A    between atoms: C_18  and  C_19
REMARK                            x       y       z     vdW  Elec       q    Type
REMARK                         _______ _______ _______ _____ _____    ______ ____
ROOT
ATOM      1  C   UNL     1       6.014   4.400  15.202  0.00  0.00    +0.000 A 
ATOM      2  C   UNL     1       5.659   5.739  15.288  0.00  0.00    +0.000 A 
ATOM      3  C   UNL     1       4.788   6.169  16.307  0.00  0.00    +0.000 A 
ATOM      4  C   UNL     1       4.236   5.271  17.247  0.00  0.00    +0.000 A 
ATOM      5  C   UNL     1       4.584   3.925  17.118  0.00  0.00    +0.000 A 
ATOM      6  C   UNL     1       5.447   3.501  16.096  0.00  0.00    +0.000 A 
ATOM      7  C   UNL     1       4.077   2.860  18.035  0.00  0.00    +0.000 C 
ATOM      8  C   UNL     1       3.135   3.316  19.126  0.00  0.00    +0.000 C 
ATOM      9  N   UNL     1       2.826   4.730  19.233  0.00  0.00    +0.000 N 
ATOM     10  C   UNL     1       3.318   5.682  18.345  0.00  0.00    +0.000 A 
ATOM     11  C   UNL     1       2.947   6.962  18.512  0.00  0.00    +0.000 A 
ATOM     12  C   UNL     1       2.100   7.225  19.660  0.00  0.00    +0.000 A 
ATOM     13  N   UNL     1       1.639   6.377  20.498  0.00  0.00    +0.000 NA
ATOM     14  C   UNL     1       1.963   5.067  20.299  0.00  0.00    +0.000 A 
ATOM     15  O   UNL     1       1.520   4.196  21.043  0.00  0.00    +0.000 OA
ENDROOT
BRANCH   1  16
ATOM     16  O   UNL     1       6.915   4.029  14.242  0.00  0.00    +0.000 OA
BRANCH  16  17
ATOM     17  C   UNL     1       6.517   4.397  12.913  0.00  0.00    +0.000 C 
BRANCH  17  19
ATOM     18  C   UNL     1       4.650   3.250  11.702  0.00  0.00    +0.000 C 
ATOM     19  C   UNL     1       5.865   3.222  12.264  0.00  0.00    +0.000 C 
ENDBRANCH  17  19
ENDBRANCH  16  17
ENDBRANCH   1  16
BRANCH  12  20
ATOM     20  O   UNL     1       1.871   8.563  19.748  0.00  0.00    +0.000 OA
BRANCH  20  21
ATOM     21  C   UNL     1       1.526   9.219  18.514  0.00  0.00    +0.000 C 
BRANCH  21  22
ATOM     22  C   UNL     1       0.487  10.317  18.762  0.00  0.00    +0.000 C 
ATOM     23  C   UNL     1      -0.107  10.224  20.177  0.00  0.00    +0.000 C 
ATOM     24  O   UNL     1      -1.027  11.304  20.414  0.00  0.00    +0.000 OA
ATOM     25  C   UNL     1      -0.363  12.563  20.239  0.00  0.00    +0.000 C 
ATOM     26  C   UNL     1       0.207  12.668  18.827  0.00  0.00    +0.000 C 
ATOM     27  O   UNL     1       1.126  11.597  18.573  0.00  0.00    +0.000 OA
ENDBRANCH  21  22
ENDBRANCH  20  21
ENDBRANCH  12  20
TORSDOF 6
ENDMDL
MODEL 5
REMARK VINA RESULT:      -7.8      2.417      7.746
REMARK  Name = 
REMARK  6 active torsions:
REMARK  status: ('A' for Active; 'I' for Inactive)
REMARK    1  A    between atoms: C_2  and  C_3
REMARK    2  A    between atoms: C_3  and  O_4
REMARK    3  A    between atoms: O_4  and  C_5
REMARK    4  A    between atoms: C_16  and  O_17
REMARK    5  A    between atoms: O_17  and  C_18
REMARK    6  A    between atoms: C_18  and  C_19
REMARK                            x       y       z     vdW  Elec       q    Type
REMARK                         _______ _______ _______ _____ _____    ______ ____
ROOT
ATOM      1  C   UNL     1       1.092  10.210  19.079  0.00  0.00    +0.000 A 
ATOM      2  C   UNL     1       1.837   9.922  17.943  0.00  0.00    +0.000 A 
ATOM      3  C   UNL     1       2.399   8.642  17.779  0.00  0.00    +0.000 A 
ATOM      4  C   UNL     1       2.248   7.629  18.753  0.00  0.00    +0.000 A 
ATOM      5  C   UNL     1       1.522   7.955  19.901  0.00  0.00    +0.000 A 
ATOM      6  C   UNL     1       0.970   9.236  20.061  0.00  0.00    +0.000 A 
ATOM      7  C   UNL     1       1.283   6.991  21.016  0.00  0.00    +0.000 C 
ATOM      8  C   UNL     1       1.891   5.616  20.848  0.00  0.00    +0.000 C 
ATOM      9  N   UNL     1       2.613   5.321  19.624  0.00  0.00    +0.000 N 
ATOM     10  C   UNL     1       2.817   6.259  18.618  0.00  0.00    +0.000 A 
ATOM     11  C   UNL     1       3.527   5.894  17.538  0.00  0.00    +0.000 A 
ATOM     12  C   UNL     1       3.966   4.512  17.515  0.00  0.00    +0.000 A 
ATOM     13  N   UNL     1       3.789   3.623  18.416  0.00  0.00    +0.000 NA
ATOM     14  C   UNL     1       3.119   4.004  19.542  0.00  0.00    +0.000 A 
ATOM     15  O   UNL     1       2.950   3.211  20.464  0.00  0.00    +0.000 OA
ENDROOT
BRANCH   1  16
ATOM     16  O   UNL     1       0.505  11.442  19.174  0.00  0.00    +0.000 OA
BRANCH  16  17
ATOM     17  C   UNL     1      -0.927  11.386  19.249  0.00  0.00    +0.000 C 
BRANCH  17  19
ATOM     18  C   UNL     1      -2.691  10.280  17.859  0.00  0.00    +0.000 C 
ATOM     19  C   UNL     1      -1.450  10.764  17.998  0.00  0.00    +0.000 C 
ENDBRANCH  17  19
ENDBRANCH  16  17
ENDBRANCH   1  16
BRANCH  12  20
ATOM     20  O   UNL     1       4.599   4.265  16.336  0.00  0.00    +0.000 OA
BRANCH  20  21
ATOM     21  C   UNL     1       5.861   3.583  16.438  0.00  0.00    +0.000 C 
BRANCH  21  22
ATOM     22  C   UNL     1       6.965   4.556  16.864  0.00  0.00    +0.000 C 
ATOM     23  C   UNL     1       6.792   5.932  16.203  0.00  0.00    +0.000 C 
ATOM     24  O   UNL     1       7.796   6.850  16.670  0.00  0.00    +0.000 OA
ATOM     25  C   UNL     1       7.722   6.976  18.096  0.00  0.00    +0.000 C 
ATOM     26  C   UNL     1       7.918   5.615  18.757  0.00  0.00    +0.000 C 
ATOM     27  O   UNL     1       6.925   4.684  18.301  0.00  0.00    +0.000 OA
ENDBRANCH  21  22
ENDBRANCH  20  21
ENDBRANCH  12  20
TORSDOF 6
ENDMDL
MODEL 6
REMARK VINA RESULT:      -7.8      1.693      1.979
REMARK  Name = 
REMARK  6 active torsions:
REMARK  status: ('A' for Active; 'I' for Inactive)
REMARK    1  A    between atoms: C_2  and  C_3
REMARK    2  A    between atoms: C_3  and  O_4
REMARK    3  A    between atoms: O_4  and  C_5
REMARK    4  A    between atoms: C_16  and  O_17
REMARK    5  A    between atoms: O_17  and  C_18
REMARK    6  A    between atoms: C_18  and  C_19
REMARK                            x       y       z     vdW  Elec       q    Type
REMARK                         _______ _______ _______ _____ _____    ______ ____
ROOT
ATOM      1  C   UNL     1       6.374   5.005  15.962  0.00  0.00    +0.000 A 
ATOM      2  C   UNL     1       5.941   6.307  16.168  0.00  0.00    +0.000 A 
ATOM      3  C   UNL     1       4.926   6.568  17.108  0.00  0.00    +0.000 A 
ATOM      4  C   UNL     1       4.307   5.535  17.846  0.00  0.00    +0.000 A 
ATOM      5  C   UNL     1       4.738   4.230  17.595  0.00  0.00    +0.000 A 
ATOM      6  C   UNL     1       5.746   3.976  16.652  0.00  0.00    +0.000 A 
ATOM      7  C   UNL     1       4.176   3.037  18.296  0.00  0.00    +0.000 C 
ATOM      8  C   UNL     1       3.080   3.311  19.301  0.00  0.00    +0.000 C 
ATOM      9  N   UNL     1       2.687   4.687  19.543  0.00  0.00    +0.000 N 
ATOM     10  C   UNL     1       3.237   5.764  18.856  0.00  0.00    +0.000 A 
ATOM     11  C   UNL     1       2.782   6.998  19.132  0.00  0.00    +0.000 A 
ATOM     12  C   UNL     1       1.783   7.076  20.181  0.00  0.00    +0.000 A 
ATOM     13  N   UNL     1       1.264   6.110  20.837  0.00  0.00    +0.000 NA
ATOM     14  C   UNL     1       1.679   4.850  20.519  0.00  0.00    +0.000 A 
ATOM     15  O   UNL     1       1.192   3.873  21.082  0.00  0.00    +0.000 OA
ENDROOT
BRANCH   1  16
ATOM     16  O   UNL     1       7.408   4.795  15.090  0.00  0.00    +0.000 OA
BRANCH  16  17
ATOM     17  C   UNL     1       7.013   4.856  13.712  0.00  0.00    +0.000 C 
BRANCH  17  19
ATOM     18  C   UNL     1       5.820   3.250  12.207  0.00  0.00    +0.000 C 
ATOM     19  C   UNL     1       6.075   3.730  13.430  0.00  0.00    +0.000 C 
ENDBRANCH  17  19
ENDBRANCH  16  17
ENDBRANCH   1  16
BRANCH  12  20
ATOM     20  O   UNL     1       1.475   8.382  20.406  0.00  0.00    +0.000 OA
BRANCH  20  21
ATOM     21  C   UNL     1       1.376   9.210  19.233  0.00  0.00    +0.000 C 
BRANCH  21  22
ATOM     22  C   UNL     1       0.108  10.067  19.286  0.00  0.00    +0.000 C 
ATOM     23  C   UNL     1       0.433  11.543  19.568  0.00  0.00    +0.000 C 
ATOM     24  O   UNL     1      -0.763  12.341  19.544  0.00  0.00    +0.000 OA
ATOM     25  C   UNL     1      -1.414  12.214  18.273  0.00  0.00    +0.000 C 
ATOM     26  C   UNL     1      -1.760  10.753  18.002  0.00  0.00    +0.000 C 
ATOM     27  O   UNL     1      -0.578   9.940  18.023  0.00  0.00    +0.000 OA
ENDBRANCH  21  22
ENDBRANCH  20  21
ENDBRANCH  12  20
TORSDOF 6
ENDMDL
MODEL 7
REMARK VINA RESULT:      -7.7      2.062      8.066
REMARK  Name = 
REMARK  6 active torsions:
REMARK  status: ('A' for Active; 'I' for Inactive)
REMARK    1  A    between atoms: C_2  and  C_3
REMARK    2  A    between atoms: C_3  and  O_4
REMARK    3  A    between atoms: O_4  and  C_5
REMARK    4  A    between atoms: C_16  and  O_17
REMARK    5  A    between atoms: O_17  and  C_18
REMARK    6  A    between atoms: C_18  and  C_19
REMARK                            x       y       z     vdW  Elec       q    Type
REMARK                         _______ _______ _______ _____ _____    ______ ____
ROOT
ATOM      1  C   UNL     1       1.133   9.871  19.351  0.00  0.00    +0.000 A 
ATOM      2  C   UNL     1       1.864   9.676  18.187  0.00  0.00    +0.000 A 
ATOM      3  C   UNL     1       2.439   8.419  17.922  0.00  0.00    +0.000 A 
ATOM      4  C   UNL     1       2.318   7.337  18.822  0.00  0.00    +0.000 A 
ATOM      5  C   UNL     1       1.606   7.569  20.001  0.00  0.00    +0.000 A 
ATOM      6  C   UNL     1       1.040   8.827  20.262  0.00  0.00    +0.000 A 
ATOM      7  C   UNL     1       1.396   6.523  21.047  0.00  0.00    +0.000 C 
ATOM      8  C   UNL     1       2.019   5.174  20.771  0.00  0.00    +0.000 C 
ATOM      9  N   UNL     1       2.727   4.977  19.519  0.00  0.00    +0.000 N 
ATOM     10  C   UNL     1       2.902   5.989  18.580  0.00  0.00    +0.000 A 
ATOM     11  C   UNL     1       3.600   5.713  17.466  0.00  0.00    +0.000 A 
ATOM     12  C   UNL     1       4.056   4.342  17.336  0.00  0.00    +0.000 A 
ATOM     13  N   UNL     1       3.905   3.388  18.173  0.00  0.00    +0.000 NA
ATOM     14  C   UNL     1       3.248   3.677  19.334  0.00  0.00    +0.000 A 
ATOM     15  O   UNL     1       3.104   2.817  20.199  0.00  0.00    +0.000 OA
ENDROOT
BRANCH   1  16
ATOM     16  O   UNL     1       0.531  11.084  19.544  0.00  0.00    +0.000 OA
BRANCH  16  17
ATOM     17  C   UNL     1       0.751  11.628  20.853  0.00  0.00    +0.000 C 
BRANCH  17  19
ATOM     18  C   UNL     1      -0.855  11.066  22.690  0.00  0.00    +0.000 C 
ATOM     19  C   UNL     1      -0.560  11.722  21.560  0.00  0.00    +0.000 C 
ENDBRANCH  17  19
ENDBRANCH  16  17
ENDBRANCH   1  16
BRANCH  12  20
ATOM     20  O   UNL     1       4.673   4.190  16.134  0.00  0.00    +0.000 OA
BRANCH  20  21
ATOM     21  C   UNL     1       5.966   3.559  16.172  0.00  0.00    +0.000 C 
BRANCH  21  22
ATOM     22  C   UNL     1       7.025   4.536  16.690  0.00  0.00    +0.000 C 
ATOM     23  C   UNL     1       6.804   5.954  16.141  0.00  0.00    +0.000 C 
ATOM     24  O   UNL     1       7.765   6.870  16.693  0.00  0.00    +0.000 OA
ATOM     25  C   UNL     1       7.673   6.876  18.125  0.00  0.00    +0.000 C 
ATOM     26  C   UNL     1       7.917   5.474  18.674  0.00  0.00    +0.000 C 
ATOM     27  O   UNL     1       6.967   4.546  18.132  0.00  0.00    +0.000 OA
ENDBRANCH  21  22
ENDBRANCH  20  21
ENDBRANCH  12  20
TORSDOF 6
ENDMDL
MODEL 8
REMARK VINA RESULT:      -7.7      1.232      1.559
REMARK  Name = 
REMARK  6 active torsions:
REMARK  status: ('A' for Active; 'I' for Inactive)
REMARK    1  A    between atoms: C_2  and  C_3
REMARK    2  A    between atoms: C_3  and  O_4
REMARK    3  A    between atoms: O_4  and  C_5
REMARK    4  A    between atoms: C_16  and  O_17
REMARK    5  A    between atoms: O_17  and  C_18
REMARK    6  A    between atoms: C_18  and  C_19
REMARK                            x       y       z     vdW  Elec       q    Type
REMARK                         _______ _______ _______ _____ _____    ______ ____
ROOT
ATOM      1  C   UNL     1       6.430   5.208  15.976  0.00  0.00    +0.000 A 
ATOM      2  C   UNL     1       6.119   6.325  16.739  0.00  0.00    +0.000 A 
ATOM      3  C   UNL     1       5.041   6.277  17.644  0.00  0.00    +0.000 A 
ATOM      4  C   UNL     1       4.240   5.123  17.791  0.00  0.00    +0.000 A 
ATOM      5  C   UNL     1       4.554   4.025  16.988  0.00  0.00    +0.000 A 
ATOM      6  C   UNL     1       5.625   4.081  16.083  0.00  0.00    +0.000 A 
ATOM      7  C   UNL     1       3.796   2.739  17.031  0.00  0.00    +0.000 C 
ATOM      8  C   UNL     1       2.632   2.685  17.996  0.00  0.00    +0.000 C 
ATOM      9  N   UNL     1       2.364   3.845  18.826  0.00  0.00    +0.000 N 
ATOM     10  C   UNL     1       3.096   5.024  18.741  0.00  0.00    +0.000 A 
ATOM     11  C   UNL     1       2.748   6.052  19.533  0.00  0.00    +0.000 A 
ATOM     12  C   UNL     1       1.655   5.792  20.451  0.00  0.00    +0.000 A 
ATOM     13  N   UNL     1       0.968   4.720  20.561  0.00  0.00    +0.000 NA
ATOM     14  C   UNL     1       1.279   3.693  19.718  0.00  0.00    +0.000 A 
ATOM     15  O   UNL     1       0.632   2.649  19.743  0.00  0.00    +0.000 OA
ENDROOT
BRANCH   1  16
ATOM     16  O   UNL     1       7.525   5.267  15.157  0.00  0.00    +0.000 OA
BRANCH  16  17
ATOM     17  C   UNL     1       7.208   5.090  13.768  0.00  0.00    +0.000 C 
BRANCH  17  19
ATOM     18  C   UNL     1       5.851   3.442  12.460  0.00  0.00    +0.000 C 
ATOM     19  C   UNL     1       6.380   3.857  13.618  0.00  0.00    +0.000 C 
ENDBRANCH  17  19
ENDBRANCH  16  17
ENDBRANCH   1  16
BRANCH  12  20
ATOM     20  O   UNL     1       1.465   6.885  21.238  0.00  0.00    +0.000 OA
BRANCH  20  21
ATOM     21  C   UNL     1       1.429   8.149  20.552  0.00  0.00    +0.000 C 
BRANCH  21  22
ATOM     22  C   UNL     1       1.087   9.280  21.527  0.00  0.00    +0.000 C 
ATOM     23  C   UNL     1       0.841  10.606  20.790  0.00  0.00    +0.000 C 
ATOM     24  O   UNL     1       0.453  11.637  21.715  0.00  0.00    +0.000 OA
ATOM     25  C   UNL     1      -0.727  11.241  22.427  0.00  0.00    +0.000 C 
ATOM     26  C   UNL     1      -0.477   9.937  23.179  0.00  0.00    +0.000 C 
ATOM     27  O   UNL     1      -0.088   8.897  22.271  0.00  0.00    +0.000 OA
ENDBRANCH  21  22
ENDBRANCH  20  21
ENDBRANCH  12  20
TORSDOF 6
ENDMDL
MODEL 9
REMARK VINA RESULT:      -7.7      1.199      1.636
REMARK  Name = 
REMARK  6 active torsions:
REMARK  status: ('A' for Active; 'I' for Inactive)
REMARK    1  A    between atoms: C_2  and  C_3
REMARK    2  A    between atoms: C_3  and  O_4
REMARK    3  A    between atoms: O_4  and  C_5
REMARK    4  A    between atoms: C_16  and  O_17
REMARK    5  A    between atoms: O_17  and  C_18
REMARK    6  A    between atoms: C_18  and  C_19
REMARK                            x       y       z     vdW  Elec       q    Type
REMARK                         _______ _______ _______ _____ _____    ______ ____
ROOT
ATOM      1  C   UNL     1       5.699   4.644  15.239  0.00  0.00    +0.000 A 
ATOM      2  C   UNL     1       5.334   5.965  15.460  0.00  0.00    +0.000 A 
ATOM      3  C   UNL     1       4.504   6.290  16.549  0.00  0.00    +0.000 A 
ATOM      4  C   UNL     1       4.003   5.303  17.428  0.00  0.00    +0.000 A 
ATOM      5  C   UNL     1       4.360   3.979  17.164  0.00  0.00    +0.000 A 
ATOM      6  C   UNL     1       5.182   3.661  16.072  0.00  0.00    +0.000 A 
ATOM      7  C   UNL     1       3.905   2.829  18.003  0.00  0.00    +0.000 C 
ATOM      8  C   UNL     1       3.007   3.173  19.170  0.00  0.00    +0.000 C 
ATOM      9  N   UNL     1       2.689   4.567  19.416  0.00  0.00    +0.000 N 
ATOM     10  C   UNL     1       3.130   5.601  18.597  0.00  0.00    +0.000 A 
ATOM     11  C   UNL     1       2.754   6.856  18.894  0.00  0.00    +0.000 A 
ATOM     12  C   UNL     1       1.955   7.002  20.096  0.00  0.00    +0.000 A 
ATOM     13  N   UNL     1       1.540   6.077  20.873  0.00  0.00    +0.000 NA
ATOM     14  C   UNL     1       1.870   4.795  20.544  0.00  0.00    +0.000 A 
ATOM     15  O   UNL     1       1.469   3.855  21.226  0.00  0.00    +0.000 OA
ENDROOT
BRANCH   1  16
ATOM     16  O   UNL     1       6.561   4.373  14.212  0.00  0.00    +0.000 OA
BRANCH  16  17
ATOM     17  C   UNL     1       5.940   3.694  13.110  0.00  0.00    +0.000 C 
BRANCH  17  19
ATOM     18  C   UNL     1       7.215   2.477  11.332  0.00  0.00    +0.000 C 
ATOM     19  C   UNL     1       6.918   3.607  11.987  0.00  0.00    +0.000 C 
ENDBRANCH  17  19
ENDBRANCH  16  17
ENDBRANCH   1  16
BRANCH  12  20
ATOM     20  O   UNL     1       1.716   8.324  20.313  0.00  0.00    +0.000 OA
BRANCH  20  21
ATOM     21  C   UNL     1       1.470   9.115  19.136  0.00  0.00    +0.000 C 
BRANCH  21  22
ATOM     22  C   UNL     1       0.834  10.456  19.514  0.00  0.00    +0.000 C 
ATOM     23  C   UNL     1      -0.430  10.736  18.687  0.00  0.00    +0.000 C 
ATOM     24  O   UNL     1      -1.051  11.965  19.105  0.00  0.00    +0.000 OA
ATOM     25  C   UNL     1      -1.378  11.901  20.500  0.00  0.00    +0.000 C 
ATOM     26  C   UNL     1      -0.120  11.648  21.325  0.00  0.00    +0.000 C 
ATOM     27  O   UNL     1       0.513  10.426  20.921  0.00  0.00    +0.000 OA
ENDBRANCH  21  22
ENDBRANCH  20  21
ENDBRANCH  12  20
TORSDOF 6
ENDMDL
