MODEL 1
REMARK VINA RESULT:      -7.3      0.000      0.000
REMARK  Name = 
REMARK  8 active torsions:
REMARK  status: ('A' for Active; 'I' for Inactive)
REMARK    1  A    between atoms: C_1  and  N_2
REMARK    2  A    between atoms: N_2  and  C_3
REMARK    3  A    between atoms: C_6  and  C_7
REMARK    4  A    between atoms: C_8  and  C_9
REMARK    5  A    between atoms: N_11  and  C_12
REMARK    6  A    between atoms: C_17  and  C_18
REMARK    7  A    between atoms: C_18  and  C_19
REMARK    8  A    between atoms: C_18  and  C_20
REMARK                            x       y       z     vdW  Elec       q    Type
REMARK                         _______ _______ _______ _____ _____    ______ ____
ROOT
ATOM      1  C   UNL     1       2.547   6.256  19.153  0.00  0.00    +0.000 C 
ATOM      2  O   UNL     1       2.214   6.593  18.022  0.00  0.00    +0.000 OA
ATOM      3  N   UNL     1       2.231   6.965  20.307  0.00  0.00    +0.000 N 
ATOM      4  H   UNL     1       2.595   6.584  21.176  0.00  0.00    +0.000 HD
ENDROOT
BRANCH   3   5
ATOM      5  C   UNL     1       1.551   8.210  20.372  0.00  0.00    +0.000 A 
ATOM      6  C   UNL     1       1.471   9.094  19.283  0.00  0.00    +0.000 A 
ATOM      7  C   UNL     1       0.875  10.361  19.382  0.00  0.00    +0.000 A 
ATOM      8  C   UNL     1       0.373  10.691  20.628  0.00  0.00    +0.000 A 
ATOM      9  O   UNL     1      -0.204  11.868  20.999  0.00  0.00    +0.000 OA
ATOM     10  C   UNL     1      -0.504  11.687  22.324  0.00  0.00    +0.000 A 
ATOM     11  N   UNL     1      -0.181  10.495  22.800  0.00  0.00    +0.000 NA
ATOM     12  C   UNL     1       0.387   9.852  21.729  0.00  0.00    +0.000 A 
ATOM     13  C   UNL     1       0.960   8.572  21.601  0.00  0.00    +0.000 A 
BRANCH  10  14
ATOM     14  C   UNL     1      -1.137  12.847  23.018  0.00  0.00    +0.000 C 
ATOM     15  C   UNL     1      -0.967  14.123  22.196  0.00  0.00    +0.000 C 
ATOM     16  C   UNL     1      -2.614  12.580  23.300  0.00  0.00    +0.000 C 
ENDBRANCH  10  14
ENDBRANCH   3   5
BRANCH   1  22
ATOM     17  C   UNL     1       2.918   3.834  19.901  0.00  0.00    +0.000 A 
ATOM     18  S   UNL     1       4.264   2.745  19.883  0.00  0.00    +0.000 S 
ATOM     19  N   UNL     1       5.357   3.785  19.251  0.00  0.00    +0.000 NA
ATOM     20  C   UNL     1       4.762   4.949  19.001  0.00  0.00    +0.000 A 
ATOM     21  C   UNL     1       5.600   6.001  18.354  0.00  0.00    +0.000 C 
ATOM     22  C   UNL     1       3.351   5.042  19.347  0.00  0.00    +0.000 A 
BRANCH  17  24
ATOM     23  C   UNL     1       1.562   2.678  21.586  0.00  0.00    +0.000 C 
ATOM     24  N   UNL     1       1.675   3.519  20.398  0.00  0.00    +0.000 N 
ATOM     25  H   UNL     1       1.003   4.289  20.430  0.00  0.00    +0.000 HD
ENDBRANCH  17  24
ENDBRANCH   1  22
TORSDOF 4
ENDMDL
MODEL 2
REMARK VINA RESULT:      -7.3      1.658      2.859
REMARK  Name = 
REMARK  8 active torsions:
REMARK  status: ('A' for Active; 'I' for Inactive)
REMARK    1  A    between atoms: C_1  and  N_2
REMARK    2  A    between atoms: N_2  and  C_3
REMARK    3  A    between atoms: C_6  and  C_7
REMARK    4  A    between atoms: C_8  and  C_9
REMARK    5  A    between atoms: N_11  and  C_12
REMARK    6  A    between atoms: C_17  and  C_18
REMARK    7  A    between atoms: C_18  and  C_19
REMARK    8  A    between atoms: C_18  and  C_20
REMARK                            x       y       z     vdW  Elec       q    Type
REMARK                         _______ _______ _______ _____ _____    ______ ____
ROOT
ATOM      1  C   UNL     1       2.530   4.981  19.230  0.00  0.00    +0.000 C 
ATOM      2  O   UNL     1       1.848   4.822  18.224  0.00  0.00    +0.000 OA
ATOM      3  N   UNL     1       2.695   6.199  19.880  0.00  0.00    +0.000 N 
ATOM      4  H   UNL     1       3.311   6.192  20.689  0.00  0.00    +0.000 HD
ENDROOT
BRANCH   3   5
ATOM      5  C   UNL     1       2.179   7.455  19.463  0.00  0.00    +0.000 A 
ATOM      6  C   UNL     1       2.443   8.005  18.196  0.00  0.00    +0.000 A 
ATOM      7  C   UNL     1       2.004   9.285  17.824  0.00  0.00    +0.000 A 
ATOM      8  C   UNL     1       1.299   9.981  18.790  0.00  0.00    +0.000 A 
ATOM      9  O   UNL     1       0.811  11.250  18.701  0.00  0.00    +0.000 OA
ATOM     10  C   UNL     1       0.220  11.464  19.918  0.00  0.00    +0.000 A 
ATOM     11  N   UNL     1       0.283  10.433  20.746  0.00  0.00    +0.000 NA
ATOM     12  C   UNL     1       0.976   9.482  20.040  0.00  0.00    +0.000 A 
ATOM     13  C   UNL     1       1.396   8.182  20.383  0.00  0.00    +0.000 A 
BRANCH  10  14
ATOM     14  C   UNL     1      -0.392  12.810  20.124  0.00  0.00    +0.000 C 
ATOM     15  C   UNL     1      -0.443  13.583  18.807  0.00  0.00    +0.000 C 
ATOM     16  C   UNL     1      -1.787  12.693  20.734  0.00  0.00    +0.000 C 
ENDBRANCH  10  14
ENDBRANCH   3   5
BRANCH   1  22
ATOM     17  C   UNL     1       4.507   3.363  19.419  0.00  0.00    +0.000 A 
ATOM     18  S   UNL     1       4.888   2.016  20.437  0.00  0.00    +0.000 S 
ATOM     19  N   UNL     1       3.496   2.013  21.297  0.00  0.00    +0.000 NA
ATOM     20  C   UNL     1       2.726   3.019  20.889  0.00  0.00    +0.000 A 
ATOM     21  C   UNL     1       1.436   3.210  21.616  0.00  0.00    +0.000 C 
ATOM     22  C   UNL     1       3.254   3.842  19.810  0.00  0.00    +0.000 A 
BRANCH  17  24
ATOM     23  C   UNL     1       6.188   4.975  18.652  0.00  0.00    +0.000 C 
ATOM     24  N   UNL     1       5.321   3.825  18.412  0.00  0.00    +0.000 N 
ATOM     25  H   UNL     1       5.809   3.107  17.872  0.00  0.00    +0.000 HD
ENDBRANCH  17  24
ENDBRANCH   1  22
TORSDOF 4
ENDMDL
MODEL 3
REMARK VINA RESULT:      -7.2      3.307      8.407
REMARK  Name = 
REMARK  8 active torsions:
REMARK  status: ('A' for Active; 'I' for Inactive)
REMARK    1  A    between atoms: C_1  and  N_2
REMARK    2  A    between atoms: N_2  and  C_3
REMARK    3  A    between atoms: C_6  and  C_7
REMARK    4  A    between atoms: C_8  and  C_9
REMARK    5  A    between atoms: N_11  and  C_12
REMARK    6  A    between atoms: C_17  and  C_18
REMARK    7  A    between atoms: C_18  and  C_19
REMARK    8  A    between atoms: C_18  and  C_20
REMARK                            x       y       z     vdW  Elec       q    Type
REMARK                         _______ _______ _______ _____ _____    ______ ____
ROOT
ATOM      1  C   UNL     1      -0.479  10.538  20.034  0.00  0.00    +0.000 C 
ATOM      2  O   UNL     1      -1.206  10.093  19.152  0.00  0.00    +0.000 OA
ATOM      3  N   UNL     1       0.822  10.106  20.270  0.00  0.00    +0.000 N 
ATOM      4  H   UNL     1       1.300  10.543  21.053  0.00  0.00    +0.000 HD
ENDROOT
BRANCH   3   5
ATOM      5  C   UNL     1       1.495   9.051  19.599  0.00  0.00    +0.000 A 
ATOM      6  C   UNL     1       1.913   9.143  18.260  0.00  0.00    +0.000 A 
ATOM      7  C   UNL     1       2.497   8.065  17.577  0.00  0.00    +0.000 A 
ATOM      8  C   UNL     1       2.629   6.896  18.304  0.00  0.00    +0.000 A 
ATOM      9  O   UNL     1       3.112   5.700  17.863  0.00  0.00    +0.000 OA
ATOM     10  C   UNL     1       3.012   4.879  18.956  0.00  0.00    +0.000 A 
ATOM     11  N   UNL     1       2.527   5.466  20.038  0.00  0.00    +0.000 NA
ATOM     12  C   UNL     1       2.271   6.752  19.633  0.00  0.00    +0.000 A 
ATOM     13  C   UNL     1       1.717   7.855  20.312  0.00  0.00    +0.000 A 
BRANCH  10  14
ATOM     14  C   UNL     1       3.455   3.468  18.758  0.00  0.00    +0.000 C 
ATOM     15  C   UNL     1       2.276   2.509  18.914  0.00  0.00    +0.000 C 
ATOM     16  C   UNL     1       4.122   3.286  17.396  0.00  0.00    +0.000 C 
ENDBRANCH  10  14
ENDBRANCH   3   5
BRANCH   1  22
ATOM     17  C   UNL     1      -1.413  12.861  20.578  0.00  0.00    +0.000 A 
ATOM     18  S   UNL     1      -1.905  13.668  22.028  0.00  0.00    +0.000 S 
ATOM     19  N   UNL     1      -1.533  12.461  23.068  0.00  0.00    +0.000 NA
ATOM     20  C   UNL     1      -1.071  11.418  22.382  0.00  0.00    +0.000 A 
ATOM     21  C   UNL     1      -0.743  10.194  23.170  0.00  0.00    +0.000 C 
ATOM     22  C   UNL     1      -0.982  11.581  20.938  0.00  0.00    +0.000 A 
BRANCH  17  24
ATOM     23  C   UNL     1      -0.248  14.070  18.790  0.00  0.00    +0.000 C 
ATOM     24  N   UNL     1      -1.446  13.430  19.327  0.00  0.00    +0.000 N 
ATOM     25  H   UNL     1      -1.924  12.886  18.606  0.00  0.00    +0.000 HD
ENDBRANCH  17  24
ENDBRANCH   1  22
TORSDOF 4
ENDMDL
MODEL 4
REMARK VINA RESULT:      -7.2      1.104      1.182
REMARK  Name = 
REMARK  8 active torsions:
REMARK  status: ('A' for Active; 'I' for Inactive)
REMARK    1  A    between atoms: C_1  and  N_2
REMARK    2  A    between atoms: N_2  and  C_3
REMARK    3  A    between atoms: C_6  and  C_7
REMARK    4  A    between atoms: C_8  and  C_9
REMARK    5  A    between atoms: N_11  and  C_12
REMARK    6  A    between atoms: C_17  and  C_18
REMARK    7  A    between atoms: C_18  and  C_19
REMARK    8  A    between atoms: C_18  and  C_20
REMARK                            x       y       z     vdW  Elec       q    Type
REMARK                         _______ _______ _______ _____ _____    ______ ____
ROOT
ATOM      1  C   UNL     1       2.499   5.643  18.904  0.00  0.00    +0.000 C 
ATOM      2  O   UNL     1       1.863   5.656  17.856  0.00  0.00    +0.000 OA
ATOM      3  N   UNL     1       2.513   6.685  19.826  0.00  0.00    +0.000 N 
ATOM      4  H   UNL     1       3.107   6.550  20.639  0.00  0.00    +0.000 HD
ENDROOT
BRANCH   3   5
ATOM      5  C   UNL     1       1.870   7.943  19.685  0.00  0.00    +0.000 A 
ATOM      6  C   UNL     1       1.968   8.724  18.521  0.00  0.00    +0.000 A 
ATOM      7  C   UNL     1       1.404  10.006  18.424  0.00  0.00    +0.000 A 
ATOM      8  C   UNL     1       0.749  10.461  19.554  0.00  0.00    +0.000 A 
ATOM      9  O   UNL     1       0.166  11.678  19.736  0.00  0.00    +0.000 OA
ATOM     10  C   UNL     1      -0.316  11.626  21.018  0.00  0.00    +0.000 A 
ATOM     11  N   UNL     1      -0.099  10.478  21.639  0.00  0.00    +0.000 NA
ATOM     12  C   UNL     1       0.587   9.727  20.717  0.00  0.00    +0.000 A 
ATOM     13  C   UNL     1       1.131   8.429  20.784  0.00  0.00    +0.000 A 
BRANCH  10  14
ATOM     14  C   UNL     1      -0.999  12.858  21.513  0.00  0.00    +0.000 C 
ATOM     15  C   UNL     1      -2.308  13.085  20.760  0.00  0.00    +0.000 C 
ATOM     16  C   UNL     1      -1.249  12.781  23.018  0.00  0.00    +0.000 C 
ENDBRANCH  10  14
ENDBRANCH   3   5
BRANCH   1  22
ATOM     17  C   UNL     1       2.888   3.247  19.721  0.00  0.00    +0.000 A 
ATOM     18  S   UNL     1       4.281   2.243  19.937  0.00  0.00    +0.000 S 
ATOM     19  N   UNL     1       5.399   3.350  19.489  0.00  0.00    +0.000 NA
ATOM     20  C   UNL     1       4.784   4.476  19.134  0.00  0.00    +0.000 A 
ATOM     21  C   UNL     1       5.652   5.580  18.630  0.00  0.00    +0.000 C 
ATOM     22  C   UNL     1       3.332   4.481  19.239  0.00  0.00    +0.000 A 
BRANCH  17  24
ATOM     23  C   UNL     1       0.739   2.368  18.930  0.00  0.00    +0.000 C 
ATOM     24  N   UNL     1       1.601   2.854  20.005  0.00  0.00    +0.000 N 
ATOM     25  H   UNL     1       1.486   2.288  20.848  0.00  0.00    +0.000 HD
ENDBRANCH  17  24
ENDBRANCH   1  22
TORSDOF 4
ENDMDL
MODEL 5
REMARK VINA RESULT:      -7.0      1.245      2.434
REMARK  Name = 
REMARK  8 active torsions:
REMARK  status: ('A' for Active; 'I' for Inactive)
REMARK    1  A    between atoms: C_1  and  N_2
REMARK    2  A    between atoms: N_2  and  C_3
REMARK    3  A    between atoms: C_6  and  C_7
REMARK    4  A    between atoms: C_8  and  C_9
REMARK    5  A    between atoms: N_11  and  C_12
REMARK    6  A    between atoms: C_17  and  C_18
REMARK    7  A    between atoms: C_18  and  C_19
REMARK    8  A    between atoms: C_18  and  C_20
REMARK                            x       y       z     vdW  Elec       q    Type
REMARK                         _______ _______ _______ _____ _____    ______ ____
ROOT
ATOM      1  C   UNL     1       2.422   6.960  19.016  0.00  0.00    +0.000 C 
ATOM      2  O   UNL     1       1.932   7.296  17.943  0.00  0.00    +0.000 OA
ATOM      3  N   UNL     1       2.128   7.563  20.234  0.00  0.00    +0.000 N 
ATOM      4  H   UNL     1       2.628   7.200  21.041  0.00  0.00    +0.000 HD
ENDROOT
BRANCH   3   5
ATOM      5  C   UNL     1       1.289   8.690  20.437  0.00  0.00    +0.000 A 
ATOM      6  C   UNL     1       0.972   9.599  19.413  0.00  0.00    +0.000 A 
ATOM      7  C   UNL     1       0.217  10.760  19.642  0.00  0.00    +0.000 A 
ATOM      8  C   UNL     1      -0.193  10.960  20.948  0.00  0.00    +0.000 A 
ATOM      9  O   UNL     1      -0.888  12.023  21.441  0.00  0.00    +0.000 OA
ATOM     10  C   UNL     1      -1.019  11.744  22.776  0.00  0.00    +0.000 A 
ATOM     11  N   UNL     1      -0.482  10.593  23.150  0.00  0.00    +0.000 NA
ATOM     12  C   UNL     1       0.055  10.086  21.993  0.00  0.00    +0.000 A 
ATOM     13  C   UNL     1       0.786   8.910  21.736  0.00  0.00    +0.000 A 
BRANCH  10  14
ATOM     14  C   UNL     1      -1.732  12.768  23.595  0.00  0.00    +0.000 C 
ATOM     15  C   UNL     1      -1.128  14.153  23.366  0.00  0.00    +0.000 C 
ATOM     16  C   UNL     1      -3.228  12.775  23.286  0.00  0.00    +0.000 C 
ENDBRANCH  10  14
ENDBRANCH   3   5
BRANCH   1  22
ATOM     17  C   UNL     1       4.598   5.790  18.340  0.00  0.00    +0.000 A 
ATOM     18  S   UNL     1       5.370   4.304  18.778  0.00  0.00    +0.000 S 
ATOM     19  N   UNL     1       4.207   3.764  19.794  0.00  0.00    +0.000 NA
ATOM     20  C   UNL     1       3.237   4.671  19.871  0.00  0.00    +0.000 A 
ATOM     21  C   UNL     1       2.118   4.372  20.813  0.00  0.00    +0.000 C 
ATOM     22  C   UNL     1       3.404   5.869  19.061  0.00  0.00    +0.000 A 
BRANCH  17  24
ATOM     23  C   UNL     1       5.253   6.295  16.031  0.00  0.00    +0.000 C 
ATOM     24  N   UNL     1       5.107   6.687  17.431  0.00  0.00    +0.000 N 
ATOM     25  H   UNL     1       4.755   7.644  17.506  0.00  0.00    +0.000 HD
ENDBRANCH  17  24
ENDBRANCH   1  22
TORSDOF 4
ENDMDL
MODEL 6
REMARK VINA RESULT:      -7.0      2.507      3.179
REMARK  Name = 
REMARK  8 active torsions:
REMARK  status: ('A' for Active; 'I' for Inactive)
REMARK    1  A    between atoms: C_1  and  N_2
REMARK    2  A    between atoms: N_2  and  C_3
REMARK    3  A    between atoms: C_6  and  C_7
REMARK    4  A    between atoms: C_8  and  C_9
REMARK    5  A    between atoms: N_11  and  C_12
REMARK    6  A    between atoms: C_17  and  C_18
REMARK    7  A    between atoms: C_18  and  C_19
REMARK    8  A    between atoms: C_18  and  C_20
REMARK                            x       y       z     vdW  Elec       q    Type
REMARK                         _______ _______ _______ _____ _____    ______ ____
ROOT
ATOM      1  C   UNL     1       4.427   6.062  18.340  0.00  0.00    +0.000 C 
ATOM      2  O   UNL     1       4.607   5.785  19.521  0.00  0.00    +0.000 OA
ATOM      3  N   UNL     1       3.524   7.019  17.888  0.00  0.00    +0.000 N 
ATOM      4  H   UNL     1       3.458   7.126  16.880  0.00  0.00    +0.000 HD
ENDROOT
BRANCH   3   5
ATOM      5  C   UNL     1       2.622   7.771  18.686  0.00  0.00    +0.000 A 
ATOM      6  C   UNL     1       2.172   7.336  19.945  0.00  0.00    +0.000 A 
ATOM      7  C   UNL     1       1.212   8.041  20.687  0.00  0.00    +0.000 A 
ATOM      8  C   UNL     1       0.727   9.195  20.098  0.00  0.00    +0.000 A 
ATOM      9  O   UNL     1      -0.238  10.025  20.582  0.00  0.00    +0.000 OA
ATOM     10  C   UNL     1      -0.357  10.993  19.618  0.00  0.00    +0.000 A 
ATOM     11  N   UNL     1       0.463  10.844  18.590  0.00  0.00    +0.000 NA
ATOM     12  C   UNL     1       1.155   9.695  18.880  0.00  0.00    +0.000 A 
ATOM     13  C   UNL     1       2.144   8.991  18.165  0.00  0.00    +0.000 A 
BRANCH  10  14
ATOM     14  C   UNL     1      -1.381  12.049  19.870  0.00  0.00    +0.000 C 
ATOM     15  C   UNL     1      -2.601  11.837  18.977  0.00  0.00    +0.000 C 
ATOM     16  C   UNL     1      -1.789  12.078  21.342  0.00  0.00    +0.000 C 
ENDBRANCH  10  14
ENDBRANCH   3   5
BRANCH   1  22
ATOM     17  C   UNL     1       4.764   4.202  16.611  0.00  0.00    +0.000 A 
ATOM     18  S   UNL     1       6.022   3.787  15.496  0.00  0.00    +0.000 S 
ATOM     19  N   UNL     1       7.063   4.979  15.913  0.00  0.00    +0.000 NA
ATOM     20  C   UNL     1       6.507   5.737  16.855  0.00  0.00    +0.000 A 
ATOM     21  C   UNL     1       7.295   6.920  17.310  0.00  0.00    +0.000 C 
ATOM     22  C   UNL     1       5.176   5.347  17.299  0.00  0.00    +0.000 A 
BRANCH  17  24
ATOM     23  C   UNL     1       3.477   2.518  17.845  0.00  0.00    +0.000 C 
ATOM     24  N   UNL     1       3.598   3.489  16.761  0.00  0.00    +0.000 N 
ATOM     25  H   UNL     1       2.734   4.025  16.654  0.00  0.00    +0.000 HD
ENDBRANCH  17  24
ENDBRANCH   1  22
TORSDOF 4
ENDMDL
MODEL 7
REMARK VINA RESULT:      -7.0      2.592      3.829
REMARK  Name = 
REMARK  8 active torsions:
REMARK  status: ('A' for Active; 'I' for Inactive)
REMARK    1  A    between atoms: C_1  and  N_2
REMARK    2  A    between atoms: N_2  and  C_3
REMARK    3  A    between atoms: C_6  and  C_7
REMARK    4  A    between atoms: C_8  and  C_9
REMARK    5  A    between atoms: N_11  and  C_12
REMARK    6  A    between atoms: C_17  and  C_18
REMARK    7  A    between atoms: C_18  and  C_19
REMARK    8  A    between atoms: C_18  and  C_20
REMARK                            x       y       z     vdW  Elec       q    Type
REMARK                         _______ _______ _______ _____ _____    ______ ____
ROOT
ATOM      1  C   UNL     1       4.379   5.978  18.342  0.00  0.00    +0.000 C 
ATOM      2  O   UNL     1       4.634   5.696  19.507  0.00  0.00    +0.000 OA
ATOM      3  N   UNL     1       3.423   6.910  17.951  0.00  0.00    +0.000 N 
ATOM      4  H   UNL     1       3.297   7.024  16.949  0.00  0.00    +0.000 HD
ENDROOT
BRANCH   3   5
ATOM      5  C   UNL     1       2.546   7.627  18.807  0.00  0.00    +0.000 A 
ATOM      6  C   UNL     1       2.157   7.153  20.072  0.00  0.00    +0.000 A 
ATOM      7  C   UNL     1       1.220   7.824  20.873  0.00  0.00    +0.000 A 
ATOM      8  C   UNL     1       0.692   8.983  20.335  0.00  0.00    +0.000 A 
ATOM      9  O   UNL     1      -0.264   9.786  20.882  0.00  0.00    +0.000 OA
ATOM     10  C   UNL     1      -0.439  10.775  19.950  0.00  0.00    +0.000 A 
ATOM     11  N   UNL     1       0.338  10.666  18.883  0.00  0.00    +0.000 NA
ATOM     12  C   UNL     1       1.059   9.521  19.113  0.00  0.00    +0.000 A 
ATOM     13  C   UNL     1       2.026   8.852  18.338  0.00  0.00    +0.000 A 
BRANCH  10  14
ATOM     14  C   UNL     1      -1.467  11.808  20.273  0.00  0.00    +0.000 C 
ATOM     15  C   UNL     1      -1.425  12.159  21.759  0.00  0.00    +0.000 C 
ATOM     16  C   UNL     1      -1.278  13.059  19.418  0.00  0.00    +0.000 C 
ENDBRANCH  10  14
ENDBRANCH   3   5
BRANCH   1  22
ATOM     17  C   UNL     1       6.136   5.813  16.485  0.00  0.00    +0.000 A 
ATOM     18  S   UNL     1       6.605   4.588  15.355  0.00  0.00    +0.000 S 
ATOM     19  N   UNL     1       5.488   3.474  15.789  0.00  0.00    +0.000 NA
ATOM     20  C   UNL     1       4.762   3.951  16.798  0.00  0.00    +0.000 A 
ATOM     21  C   UNL     1       3.732   3.035  17.370  0.00  0.00    +0.000 C 
ATOM     22  C   UNL     1       5.089   5.295  17.253  0.00  0.00    +0.000 A 
BRANCH  17  24
ATOM     23  C   UNL     1       7.630   7.368  17.653  0.00  0.00    +0.000 C 
ATOM     24  N   UNL     1       6.714   7.058  16.559  0.00  0.00    +0.000 N 
ATOM     25  H   UNL     1       7.059   7.440  15.675  0.00  0.00    +0.000 HD
ENDBRANCH  17  24
ENDBRANCH   1  22
TORSDOF 4
ENDMDL
MODEL 8
REMARK VINA RESULT:      -7.0      3.504      8.785
REMARK  Name = 
REMARK  8 active torsions:
REMARK  status: ('A' for Active; 'I' for Inactive)
REMARK    1  A    between atoms: C_1  and  N_2
REMARK    2  A    between atoms: N_2  and  C_3
REMARK    3  A    between atoms: C_6  and  C_7
REMARK    4  A    between atoms: C_8  and  C_9
REMARK    5  A    between atoms: N_11  and  C_12
REMARK    6  A    between atoms: C_17  and  C_18
REMARK    7  A    between atoms: C_18  and  C_19
REMARK    8  A    between atoms: C_18  and  C_20
REMARK                            x       y       z     vdW  Elec       q    Type
REMARK                         _______ _______ _______ _____ _____    ______ ____
ROOT
ATOM      1  C   UNL     1       1.316   9.182  18.812  0.00  0.00    +0.000 C 
ATOM      2  O   UNL     1       0.827   9.224  17.689  0.00  0.00    +0.000 OA
ATOM      3  N   UNL     1       2.257   8.243  19.223  0.00  0.00    +0.000 N 
ATOM      4  H   UNL     1       2.557   8.310  20.191  0.00  0.00    +0.000 HD
ENDROOT
BRANCH   3   5
ATOM      5  C   UNL     1       2.747   7.151  18.459  0.00  0.00    +0.000 A 
ATOM      6  C   UNL     1       2.306   5.830  18.646  0.00  0.00    +0.000 A 
ATOM      7  C   UNL     1       2.860   4.744  17.950  0.00  0.00    +0.000 A 
ATOM      8  C   UNL     1       3.880   5.055  17.069  0.00  0.00    +0.000 A 
ATOM      9  O   UNL     1       4.612   4.188  16.316  0.00  0.00    +0.000 OA
ATOM     10  C   UNL     1       5.491   4.994  15.642  0.00  0.00    +0.000 A 
ATOM     11  N   UNL     1       5.355   6.286  15.897  0.00  0.00    +0.000 NA
ATOM     12  C   UNL     1       4.334   6.338  16.813  0.00  0.00    +0.000 A 
ATOM     13  C   UNL     1       3.743   7.418  17.497  0.00  0.00    +0.000 A 
BRANCH  10  14
ATOM     14  C   UNL     1       6.458   4.302  14.739  0.00  0.00    +0.000 C 
ATOM     15  C   UNL     1       5.740   3.742  13.513  0.00  0.00    +0.000 C 
ATOM     16  C   UNL     1       7.588   5.240  14.320  0.00  0.00    +0.000 C 
ENDBRANCH  10  14
ENDBRANCH   3   5
BRANCH   1  22
ATOM     17  C   UNL     1       0.548  11.491  19.613  0.00  0.00    +0.000 A 
ATOM     18  S   UNL     1       0.128  12.172  21.148  0.00  0.00    +0.000 S 
ATOM     19  N   UNL     1       0.430  10.840  22.049  0.00  0.00    +0.000 NA
ATOM     20  C   UNL     1       0.813   9.847  21.250  0.00  0.00    +0.000 A 
ATOM     21  C   UNL     1       1.068   8.528  21.899  0.00  0.00    +0.000 C 
ATOM     22  C   UNL     1       0.896  10.155  19.829  0.00  0.00    +0.000 A 
BRANCH  17  24
ATOM     23  C   UNL     1      -0.706  12.791  17.953  0.00  0.00    +0.000 C 
ATOM     24  N   UNL     1       0.538  12.190  18.429  0.00  0.00    +0.000 N 
ATOM     25  H   UNL     1       1.328  12.821  18.280  0.00  0.00    +0.000 HD
ENDBRANCH  17  24
ENDBRANCH   1  22
TORSDOF 4
ENDMDL
MODEL 9
REMARK VINA RESULT:      -6.9      3.694      8.580
REMARK  Name = 
REMARK  8 active torsions:
REMARK  status: ('A' for Active; 'I' for Inactive)
REMARK    1  A    between atoms: C_1  and  N_2
REMARK    2  A    between atoms: N_2  and  C_3
REMARK    3  A    between atoms: C_6  and  C_7
REMARK    4  A    between atoms: C_8  and  C_9
REMARK    5  A    between atoms: N_11  and  C_12
REMARK    6  A    between atoms: C_17  and  C_18
REMARK    7  A    between atoms: C_18  and  C_19
REMARK    8  A    between atoms: C_18  and  C_20
REMARK                            x       y       z     vdW  Elec       q    Type
REMARK                         _______ _______ _______ _____ _____    ______ ____
ROOT
ATOM      1  C   UNL     1       1.216  10.063  18.560  0.00  0.00    +0.000 C 
ATOM      2  O   UNL     1       2.135  10.508  17.881  0.00  0.00    +0.000 OA
ATOM      3  N   UNL     1       1.184   8.778  19.092  0.00  0.00    +0.000 N 
ATOM      4  H   UNL     1       0.347   8.534  19.612  0.00  0.00    +0.000 HD
ENDROOT
BRANCH   3   5
ATOM      5  C   UNL     1       2.149   7.757  18.886  0.00  0.00    +0.000 A 
ATOM      6  C   UNL     1       2.358   6.710  19.801  0.00  0.00    +0.000 A 
ATOM      7  C   UNL     1       3.374   5.756  19.634  0.00  0.00    +0.000 A 
ATOM      8  C   UNL     1       4.168   5.914  18.512  0.00  0.00    +0.000 A 
ATOM      9  O   UNL     1       5.244   5.161  18.150  0.00  0.00    +0.000 OA
ATOM     10  C   UNL     1       5.677   5.741  16.986  0.00  0.00    +0.000 A 
ATOM     11  N   UNL     1       4.953   6.775  16.587  0.00  0.00    +0.000 NA
ATOM     12  C   UNL     1       3.990   6.901  17.557  0.00  0.00    +0.000 A 
ATOM     13  C   UNL     1       2.945   7.829  17.724  0.00  0.00    +0.000 A 
BRANCH  10  14
ATOM     14  C   UNL     1       6.885   5.130  16.358  0.00  0.00    +0.000 C 
ATOM     15  C   UNL     1       7.760   4.461  17.417  0.00  0.00    +0.000 C 
ATOM     16  C   UNL     1       6.494   4.129  15.272  0.00  0.00    +0.000 C 
ENDBRANCH  10  14
ENDBRANCH   3   5
BRANCH   1  22
ATOM     17  C   UNL     1      -1.173  10.890  18.146  0.00  0.00    +0.000 A 
ATOM     18  S   UNL     1      -2.205  12.062  18.893  0.00  0.00    +0.000 S 
ATOM     19  N   UNL     1      -1.132  12.594  20.008  0.00  0.00    +0.000 NA
ATOM     20  C   UNL     1       0.000  11.905  19.890  0.00  0.00    +0.000 A 
ATOM     21  C   UNL     1       1.075  12.213  20.880  0.00  0.00    +0.000 C 
ATOM     22  C   UNL     1       0.041  10.900  18.837  0.00  0.00    +0.000 A 
BRANCH  17  24
ATOM     23  C   UNL     1      -2.694  10.503  16.261  0.00  0.00    +0.000 C 
ATOM     24  N   UNL     1      -1.531  10.126  17.060  0.00  0.00    +0.000 N 
ATOM     25  H   UNL     1      -0.761   9.818  16.462  0.00  0.00    +0.000 HD
ENDBRANCH  17  24
ENDBRANCH   1  22
TORSDOF 4
ENDMDL
