MODEL 1
REMARK VINA RESULT:      -7.0      0.000      0.000
REMARK  Name = 
REMARK  6 active torsions:
REMARK  status: ('A' for Active; 'I' for Inactive)
REMARK    1  A    between atoms: C_1  and  C_2
REMARK    2  A    between atoms: C_2  and  C_3
REMARK    3  A    between atoms: C_4  and  C_5
REMARK    4  A    between atoms: C_6  and  C_7
REMARK    5  A    between atoms: C_18  and  N_19
REMARK    6  A    between atoms: N_19  and  C_20
REMARK                            x       y       z     vdW  Elec       q    Type
REMARK                         _______ _______ _______ _____ _____    ______ ____
ROOT
ATOM      1  C   UNL     1       2.719   4.552  20.141  0.00  0.00    +0.000 A 
ATOM      2  C   UNL     1       2.193   5.933  19.991  0.00  0.00    +0.000 A 
ATOM      3  C   UNL     1       1.165   6.464  20.970  0.00  0.00    +0.000 C 
ATOM      4  C   UNL     1       2.622   6.729  18.978  0.00  0.00    +0.000 A 
ATOM      5  C   UNL     1       3.514   6.237  18.002  0.00  0.00    +0.000 A 
ATOM      6  N   UNL     1       4.044   6.865  16.975  0.00  0.00    +0.000 NA
ATOM      7  C   UNL     1       4.815   5.941  16.345  0.00  0.00    +0.000 A 
ATOM      8  C   UNL     1       5.604   6.126  15.199  0.00  0.00    +0.000 A 
ATOM      9  C   UNL     1       6.341   5.053  14.699  0.00  0.00    +0.000 A 
ATOM     10  C   UNL     1       6.271   3.807  15.322  0.00  0.00    +0.000 A 
ATOM     11  C   UNL     1       5.470   3.602  16.451  0.00  0.00    +0.000 A 
ATOM     12  C   UNL     1       4.756   4.697  16.977  0.00  0.00    +0.000 A 
ATOM     13  N   UNL     1       3.917   4.900  18.084  0.00  0.00    +0.000 N 
ATOM     14  C   UNL     1       3.513   4.027  19.160  0.00  0.00    +0.000 A 
ENDROOT
BRANCH  14  15
ATOM     15  N   UNL     1       4.036   2.734  19.200  0.00  0.00    +0.000 N 
ATOM     16  C   UNL     1       3.492   1.529  18.604  0.00  0.00    +0.000 C 
ATOM     17  H   UNL     1       5.021   2.676  19.422  0.00  0.00    +0.000 HD
ENDBRANCH  14  15
BRANCH   1  19
ATOM     18  C   UNL     1       1.272   2.815  21.348  0.00  0.00    +0.000 C 
ATOM     19  C   UNL     1       2.418   3.820  21.447  0.00  0.00    +0.000 C 
ENDBRANCH   1  19
BRANCH   4  20
ATOM     20  C   UNL     1       2.116   8.161  18.912  0.00  0.00    +0.000 C 
ATOM     21  N   UNL     1       1.697   9.349  18.858  0.00  0.00    +0.000 NA
ENDBRANCH   4  20
TORSDOF 3
ENDMDL
MODEL 2
REMARK VINA RESULT:      -6.7      1.553      4.937
REMARK  Name = 
REMARK  6 active torsions:
REMARK  status: ('A' for Active; 'I' for Inactive)
REMARK    1  A    between atoms: C_1  and  C_2
REMARK    2  A    between atoms: C_2  and  C_3
REMARK    3  A    between atoms: C_4  and  C_5
REMARK    4  A    between atoms: C_6  and  C_7
REMARK    5  A    between atoms: C_18  and  N_19
REMARK    6  A    between atoms: N_19  and  C_20
REMARK                            x       y       z     vdW  Elec       q    Type
REMARK                         _______ _______ _______ _____ _____    ______ ____
ROOT
ATOM      1  C   UNL     1       4.026   4.274  19.183  0.00  0.00    +0.000 A 
ATOM      2  C   UNL     1       4.621   4.801  17.929  0.00  0.00    +0.000 A 
ATOM      3  C   UNL     1       5.667   3.993  17.187  0.00  0.00    +0.000 C 
ATOM      4  C   UNL     1       4.241   6.008  17.439  0.00  0.00    +0.000 A 
ATOM      5  C   UNL     1       3.333   6.822  18.149  0.00  0.00    +0.000 A 
ATOM      6  N   UNL     1       2.843   7.997  17.818  0.00  0.00    +0.000 NA
ATOM      7  C   UNL     1       2.031   8.353  18.848  0.00  0.00    +0.000 A 
ATOM      8  C   UNL     1       1.261   9.521  18.965  0.00  0.00    +0.000 A 
ATOM      9  C   UNL     1       0.476   9.709  20.102  0.00  0.00    +0.000 A 
ATOM     10  C   UNL     1       0.479   8.753  21.118  0.00  0.00    +0.000 A 
ATOM     11  C   UNL     1       1.260   7.596  21.026  0.00  0.00    +0.000 A 
ATOM     12  C   UNL     1       2.024   7.390  19.860  0.00  0.00    +0.000 A 
ATOM     13  N   UNL     1       2.863   6.370  19.386  0.00  0.00    +0.000 N 
ATOM     14  C   UNL     1       3.214   5.081  19.931  0.00  0.00    +0.000 A 
ENDROOT
BRANCH  14  15
ATOM     15  N   UNL     1       2.627   4.683  21.133  0.00  0.00    +0.000 N 
ATOM     16  C   UNL     1       1.607   3.674  21.340  0.00  0.00    +0.000 C 
ATOM     17  H   UNL     1       3.151   4.917  21.965  0.00  0.00    +0.000 HD
ENDBRANCH  14  15
BRANCH   1  19
ATOM     18  C   UNL     1       3.412   1.826  18.736  0.00  0.00    +0.000 C 
ATOM     19  C   UNL     1       4.280   2.806  19.523  0.00  0.00    +0.000 C 
ENDBRANCH   1  19
BRANCH   4  20
ATOM     20  C   UNL     1       4.818   6.471  16.111  0.00  0.00    +0.000 C 
ATOM     21  N   UNL     1       5.297   6.855  15.010  0.00  0.00    +0.000 NA
ENDBRANCH   4  20
TORSDOF 3
ENDMDL
MODEL 3
REMARK VINA RESULT:      -6.3      1.719      5.390
REMARK  Name = 
REMARK  6 active torsions:
REMARK  status: ('A' for Active; 'I' for Inactive)
REMARK    1  A    between atoms: C_1  and  C_2
REMARK    2  A    between atoms: C_2  and  C_3
REMARK    3  A    between atoms: C_4  and  C_5
REMARK    4  A    between atoms: C_6  and  C_7
REMARK    5  A    between atoms: C_18  and  N_19
REMARK    6  A    between atoms: N_19  and  C_20
REMARK                            x       y       z     vdW  Elec       q    Type
REMARK                         _______ _______ _______ _____ _____    ______ ____
ROOT
ATOM      1  C   UNL     1       4.613   4.841  18.173  0.00  0.00    +0.000 A 
ATOM      2  C   UNL     1       3.990   4.051  19.264  0.00  0.00    +0.000 A 
ATOM      3  C   UNL     1       4.401   2.609  19.487  0.00  0.00    +0.000 C 
ATOM      4  C   UNL     1       3.046   4.605  20.067  0.00  0.00    +0.000 A 
ATOM      5  C   UNL     1       2.581   5.917  19.833  0.00  0.00    +0.000 A 
ATOM      6  N   UNL     1       1.697   6.614  20.514  0.00  0.00    +0.000 NA
ATOM      7  C   UNL     1       1.598   7.803  19.866  0.00  0.00    +0.000 A 
ATOM      8  C   UNL     1       0.793   8.900  20.212  0.00  0.00    +0.000 A 
ATOM      9  C   UNL     1       0.833  10.051  19.424  0.00  0.00    +0.000 A 
ATOM     10  C   UNL     1       1.648  10.093  18.292  0.00  0.00    +0.000 A 
ATOM     11  C   UNL     1       2.437   8.999  17.922  0.00  0.00    +0.000 A 
ATOM     12  C   UNL     1       2.423   7.851  18.740  0.00  0.00    +0.000 A 
ATOM     13  N   UNL     1       3.089   6.616  18.734  0.00  0.00    +0.000 N 
ATOM     14  C   UNL     1       4.116   6.079  17.874  0.00  0.00    +0.000 A 
ENDROOT
BRANCH  14  15
ATOM     15  N   UNL     1       4.620   6.888  16.854  0.00  0.00    +0.000 N 
ATOM     16  C   UNL     1       5.016   6.496  15.515  0.00  0.00    +0.000 C 
ATOM     17  H   UNL     1       4.432   7.875  16.957  0.00  0.00    +0.000 HD
ENDBRANCH  14  15
BRANCH   1  19
ATOM     18  C   UNL     1       7.173   4.797  18.056  0.00  0.00    +0.000 C 
ATOM     19  C   UNL     1       5.855   4.260  17.500  0.00  0.00    +0.000 C 
ENDBRANCH   1  19
BRANCH   4  20
ATOM     20  C   UNL     1       2.494   3.783  21.220  0.00  0.00    +0.000 C 
ATOM     21  N   UNL     1       2.037   3.101  22.177  0.00  0.00    +0.000 NA
ENDBRANCH   4  20
TORSDOF 3
ENDMDL
MODEL 4
REMARK VINA RESULT:      -5.6      7.673      9.979
REMARK  Name = 
REMARK  6 active torsions:
REMARK  status: ('A' for Active; 'I' for Inactive)
REMARK    1  A    between atoms: C_1  and  C_2
REMARK    2  A    between atoms: C_2  and  C_3
REMARK    3  A    between atoms: C_4  and  C_5
REMARK    4  A    between atoms: C_6  and  C_7
REMARK    5  A    between atoms: C_18  and  N_19
REMARK    6  A    between atoms: N_19  and  C_20
REMARK                            x       y       z     vdW  Elec       q    Type
REMARK                         _______ _______ _______ _____ _____    ______ ____
ROOT
ATOM      1  C   UNL     1      -3.191  13.087  21.327  0.00  0.00    +0.000 A 
ATOM      2  C   UNL     1      -1.878  12.543  21.755  0.00  0.00    +0.000 A 
ATOM      3  C   UNL     1      -1.270  12.979  23.075  0.00  0.00    +0.000 C 
ATOM      4  C   UNL     1      -1.208  11.659  20.974  0.00  0.00    +0.000 A 
ATOM      5  C   UNL     1      -1.705  11.298  19.704  0.00  0.00    +0.000 A 
ATOM      6  N   UNL     1      -1.205  10.450  18.831  0.00  0.00    +0.000 NA
ATOM      7  C   UNL     1      -2.054  10.479  17.771  0.00  0.00    +0.000 A 
ATOM      8  C   UNL     1      -1.966   9.734  16.585  0.00  0.00    +0.000 A 
ATOM      9  C   UNL     1      -2.946   9.894  15.605  0.00  0.00    +0.000 A 
ATOM     10  C   UNL     1      -3.985  10.803  15.800  0.00  0.00    +0.000 A 
ATOM     11  C   UNL     1      -4.073  11.569  16.967  0.00  0.00    +0.000 A 
ATOM     12  C   UNL     1      -3.103  11.380  17.971  0.00  0.00    +0.000 A 
ATOM     13  N   UNL     1      -2.885  11.900  19.256  0.00  0.00    +0.000 N 
ATOM     14  C   UNL     1      -3.648  12.820  20.066  0.00  0.00    +0.000 A 
ENDROOT
BRANCH  14  15
ATOM     15  N   UNL     1      -4.857  13.302  19.564  0.00  0.00    +0.000 N 
ATOM     16  C   UNL     1      -6.176  12.711  19.685  0.00  0.00    +0.000 C 
ATOM     17  H   UNL     1      -4.866  14.287  19.338  0.00  0.00    +0.000 HD
ENDBRANCH  14  15
BRANCH   1  19
ATOM     18  C   UNL     1      -4.930  12.952  23.205  0.00  0.00    +0.000 C 
ATOM     19  C   UNL     1      -4.016  13.843  22.366  0.00  0.00    +0.000 C 
ENDBRANCH   1  19
BRANCH   4  20
ATOM     20  C   UNL     1       0.095  11.069  21.491  0.00  0.00    +0.000 C 
ATOM     21  N   UNL     1       1.175  10.579  21.919  0.00  0.00    +0.000 NA
ENDBRANCH   4  20
TORSDOF 3
ENDMDL
MODEL 5
REMARK VINA RESULT:      -5.2      5.946      8.704
REMARK  Name = 
REMARK  6 active torsions:
REMARK  status: ('A' for Active; 'I' for Inactive)
REMARK    1  A    between atoms: C_1  and  C_2
REMARK    2  A    between atoms: C_2  and  C_3
REMARK    3  A    between atoms: C_4  and  C_5
REMARK    4  A    between atoms: C_6  and  C_7
REMARK    5  A    between atoms: C_18  and  N_19
REMARK    6  A    between atoms: N_19  and  C_20
REMARK                            x       y       z     vdW  Elec       q    Type
REMARK                         _______ _______ _______ _____ _____    ______ ____
ROOT
ATOM      1  C   UNL     1      -0.364  10.909  20.841  0.00  0.00    +0.000 A 
ATOM      2  C   UNL     1      -1.347  11.801  21.507  0.00  0.00    +0.000 A 
ATOM      3  C   UNL     1      -1.139  12.216  22.950  0.00  0.00    +0.000 C 
ATOM      4  C   UNL     1      -2.439  12.249  20.836  0.00  0.00    +0.000 A 
ATOM      5  C   UNL     1      -2.706  11.815  19.521  0.00  0.00    +0.000 A 
ATOM      6  N   UNL     1      -3.693  12.157  18.722  0.00  0.00    +0.000 NA
ATOM      7  C   UNL     1      -3.498  11.446  17.581  0.00  0.00    +0.000 A 
ATOM      8  C   UNL     1      -4.277  11.472  16.414  0.00  0.00    +0.000 A 
ATOM      9  C   UNL     1      -3.911  10.673  15.331  0.00  0.00    +0.000 A 
ATOM     10  C   UNL     1      -2.796   9.840  15.424  0.00  0.00    +0.000 A 
ATOM     11  C   UNL     1      -2.023   9.786  16.590  0.00  0.00    +0.000 A 
ATOM     12  C   UNL     1      -2.373  10.622  17.669  0.00  0.00    +0.000 A 
ATOM     13  N   UNL     1      -1.837  10.886  18.939  0.00  0.00    +0.000 N 
ATOM     14  C   UNL     1      -0.648  10.407  19.601  0.00  0.00    +0.000 A 
ENDROOT
BRANCH  14  15
ATOM     15  N   UNL     1       0.200   9.546  18.905  0.00  0.00    +0.000 N 
ATOM     16  C   UNL     1       1.373   9.884  18.121  0.00  0.00    +0.000 C 
ATOM     17  H   UNL     1       0.164   8.579  19.197  0.00  0.00    +0.000 HD
ENDBRANCH  14  15
BRANCH   1  19
ATOM     18  C   UNL     1       1.064   9.338  22.276  0.00  0.00    +0.000 C 
ATOM     19  C   UNL     1       0.970  10.677  21.546  0.00  0.00    +0.000 C 
ENDBRANCH   1  19
BRANCH   4  20
ATOM     20  C   UNL     1      -3.374  13.224  21.534  0.00  0.00    +0.000 C 
ATOM     21  N   UNL     1      -4.150  14.032  22.112  0.00  0.00    +0.000 NA
ENDBRANCH   4  20
TORSDOF 3
ENDMDL
MODEL 6
REMARK VINA RESULT:      -5.2      7.247     11.334
REMARK  Name = 
REMARK  6 active torsions:
REMARK  status: ('A' for Active; 'I' for Inactive)
REMARK    1  A    between atoms: C_1  and  C_2
REMARK    2  A    between atoms: C_2  and  C_3
REMARK    3  A    between atoms: C_4  and  C_5
REMARK    4  A    between atoms: C_6  and  C_7
REMARK    5  A    between atoms: C_18  and  N_19
REMARK    6  A    between atoms: N_19  and  C_20
REMARK                            x       y       z     vdW  Elec       q    Type
REMARK                         _______ _______ _______ _____ _____    ______ ____
ROOT
ATOM      1  C   UNL     1      -2.574  11.384  18.065  0.00  0.00    +0.000 A 
ATOM      2  C   UNL     1      -1.367  11.079  18.875  0.00  0.00    +0.000 A 
ATOM      3  C   UNL     1      -0.229  10.282  18.268  0.00  0.00    +0.000 C 
ATOM      4  C   UNL     1      -1.272  11.504  20.160  0.00  0.00    +0.000 A 
ATOM      5  C   UNL     1      -2.348  12.175  20.780  0.00  0.00    +0.000 A 
ATOM      6  N   UNL     1      -2.422  12.670  21.996  0.00  0.00    +0.000 NA
ATOM      7  C   UNL     1      -3.672  13.193  22.097  0.00  0.00    +0.000 A 
ATOM      8  C   UNL     1      -4.234  13.854  23.201  0.00  0.00    +0.000 A 
ATOM      9  C   UNL     1      -5.540  14.336  23.113  0.00  0.00    +0.000 A 
ATOM     10  C   UNL     1      -6.280  14.138  21.947  0.00  0.00    +0.000 A 
ATOM     11  C   UNL     1      -5.740  13.461  20.848  0.00  0.00    +0.000 A 
ATOM     12  C   UNL     1      -4.409  13.008  20.925  0.00  0.00    +0.000 A 
ATOM     13  N   UNL     1      -3.525  12.358  20.049  0.00  0.00    +0.000 N 
ATOM     14  C   UNL     1      -3.661  11.952  18.670  0.00  0.00    +0.000 A 
ENDROOT
BRANCH  14  15
ATOM     15  N   UNL     1      -4.846  12.256  18.000  0.00  0.00    +0.000 N 
ATOM     16  C   UNL     1      -6.016  11.416  17.825  0.00  0.00    +0.000 C 
ATOM     17  H   UNL     1      -5.022  13.242  17.864  0.00  0.00    +0.000 HD
ENDBRANCH  14  15
BRANCH   1  19
ATOM     18  C   UNL     1      -3.040   9.768  16.131  0.00  0.00    +0.000 C 
ATOM     19  C   UNL     1      -2.499  11.131  16.561  0.00  0.00    +0.000 C 
ENDBRANCH   1  19
BRANCH   4  20
ATOM     20  C   UNL     1       0.016  11.237  20.923  0.00  0.00    +0.000 C 
ATOM     21  N   UNL     1       1.083  11.016  21.557  0.00  0.00    +0.000 NA
ENDBRANCH   4  20
TORSDOF 3
ENDMDL
MODEL 7
REMARK VINA RESULT:      -5.2      8.983     11.303
REMARK  Name = 
REMARK  6 active torsions:
REMARK  status: ('A' for Active; 'I' for Inactive)
REMARK    1  A    between atoms: C_1  and  C_2
REMARK    2  A    between atoms: C_2  and  C_3
REMARK    3  A    between atoms: C_4  and  C_5
REMARK    4  A    between atoms: C_6  and  C_7
REMARK    5  A    between atoms: C_18  and  N_19
REMARK    6  A    between atoms: N_19  and  C_20
REMARK                            x       y       z     vdW  Elec       q    Type
REMARK                         _______ _______ _______ _____ _____    ______ ____
ROOT
ATOM      1  C   UNL     1      -5.858  12.703  21.531  0.00  0.00    +0.000 A 
ATOM      2  C   UNL     1      -4.595  12.957  22.270  0.00  0.00    +0.000 A 
ATOM      3  C   UNL     1      -4.640  13.507  23.682  0.00  0.00    +0.000 C 
ATOM      4  C   UNL     1      -3.394  12.704  21.692  0.00  0.00    +0.000 A 
ATOM      5  C   UNL     1      -3.315  12.271  20.351  0.00  0.00    +0.000 A 
ATOM      6  N   UNL     1      -2.250  11.963  19.643  0.00  0.00    +0.000 NA
ATOM      7  C   UNL     1      -2.718  11.625  18.414  0.00  0.00    +0.000 A 
ATOM      8  C   UNL     1      -1.973  11.203  17.302  0.00  0.00    +0.000 A 
ATOM      9  C   UNL     1      -2.636  10.888  16.116  0.00  0.00    +0.000 A 
ATOM     10  C   UNL     1      -4.023  11.018  16.037  0.00  0.00    +0.000 A 
ATOM     11  C   UNL     1      -4.776  11.460  17.129  0.00  0.00    +0.000 A 
ATOM     12  C   UNL     1      -4.109  11.742  18.338  0.00  0.00    +0.000 A 
ATOM     13  N   UNL     1      -4.502  12.144  19.623  0.00  0.00    +0.000 N 
ATOM     14  C   UNL     1      -5.803  12.370  20.206  0.00  0.00    +0.000 A 
ENDROOT
BRANCH  14  15
ATOM     15  N   UNL     1      -6.933  12.135  19.422  0.00  0.00    +0.000 N 
ATOM     16  C   UNL     1      -7.683  13.085  18.622  0.00  0.00    +0.000 C 
ATOM     17  H   UNL     1      -7.082  11.169  19.162  0.00  0.00    +0.000 HD
ENDBRANCH  14  15
BRANCH   1  19
ATOM     18  C   UNL     1      -7.917  14.059  22.232  0.00  0.00    +0.000 C 
ATOM     19  C   UNL     1      -7.161  12.735  22.326  0.00  0.00    +0.000 C 
ENDBRANCH   1  19
BRANCH   4  20
ATOM     20  C   UNL     1      -2.131  12.903  22.515  0.00  0.00    +0.000 C 
ATOM     21  N   UNL     1      -1.084  13.068  23.198  0.00  0.00    +0.000 NA
ENDBRANCH   4  20
TORSDOF 3
ENDMDL
MODEL 8
REMARK VINA RESULT:      -5.2      6.837      9.641
REMARK  Name = 
REMARK  6 active torsions:
REMARK  status: ('A' for Active; 'I' for Inactive)
REMARK    1  A    between atoms: C_1  and  C_2
REMARK    2  A    between atoms: C_2  and  C_3
REMARK    3  A    between atoms: C_4  and  C_5
REMARK    4  A    between atoms: C_6  and  C_7
REMARK    5  A    between atoms: C_18  and  N_19
REMARK    6  A    between atoms: N_19  and  C_20
REMARK                            x       y       z     vdW  Elec       q    Type
REMARK                         _______ _______ _______ _____ _____    ______ ____
ROOT
ATOM      1  C   UNL     1      -4.863  11.930  18.631  0.00  0.00    +0.000 A 
ATOM      2  C   UNL     1      -4.742  12.850  19.790  0.00  0.00    +0.000 A 
ATOM      3  C   UNL     1      -5.923  13.706  20.207  0.00  0.00    +0.000 C 
ATOM      4  C   UNL     1      -3.579  12.938  20.484  0.00  0.00    +0.000 A 
ATOM      5  C   UNL     1      -2.437  12.218  20.072  0.00  0.00    +0.000 A 
ATOM      6  N   UNL     1      -1.247  12.168  20.629  0.00  0.00    +0.000 NA
ATOM      7  C   UNL     1      -0.510  11.348  19.834  0.00  0.00    +0.000 A 
ATOM      8  C   UNL     1       0.827  10.961  20.012  0.00  0.00    +0.000 A 
ATOM      9  C   UNL     1       1.416  10.098  19.088  0.00  0.00    +0.000 A 
ATOM     10  C   UNL     1       0.684   9.648  17.989  0.00  0.00    +0.000 A 
ATOM     11  C   UNL     1      -0.643  10.045  17.786  0.00  0.00    +0.000 A 
ATOM     12  C   UNL     1      -1.247  10.887  18.740  0.00  0.00    +0.000 A 
ATOM     13  N   UNL     1      -2.525  11.441  18.912  0.00  0.00    +0.000 N 
ATOM     14  C   UNL     1      -3.748  11.293  18.162  0.00  0.00    +0.000 A 
ENDROOT
BRANCH  14  15
ATOM     15  N   UNL     1      -3.757  10.428  17.067  0.00  0.00    +0.000 N 
ATOM     16  C   UNL     1      -3.585  10.757  15.665  0.00  0.00    +0.000 C 
ATOM     17  H   UNL     1      -3.589   9.456  17.287  0.00  0.00    +0.000 HD
ENDBRANCH  14  15
BRANCH   1  19
ATOM     18  C   UNL     1      -6.969  10.472  18.715  0.00  0.00    +0.000 C 
ATOM     19  C   UNL     1      -6.263  11.669  18.080  0.00  0.00    +0.000 C 
ENDBRANCH   1  19
BRANCH   4  20
ATOM     20  C   UNL     1      -3.527  13.833  21.711  0.00  0.00    +0.000 C 
ATOM     21  N   UNL     1      -3.484  14.575  22.730  0.00  0.00    +0.000 NA
ENDBRANCH   4  20
TORSDOF 3
ENDMDL
MODEL 9
REMARK VINA RESULT:      -5.2      8.240     10.841
REMARK  Name = 
REMARK  6 active torsions:
REMARK  status: ('A' for Active; 'I' for Inactive)
REMARK    1  A    between atoms: C_1  and  C_2
REMARK    2  A    between atoms: C_2  and  C_3
REMARK    3  A    between atoms: C_4  and  C_5
REMARK    4  A    between atoms: C_6  and  C_7
REMARK    5  A    between atoms: C_18  and  N_19
REMARK    6  A    between atoms: N_19  and  C_20
REMARK                            x       y       z     vdW  Elec       q    Type
REMARK                         _______ _______ _______ _____ _____    ______ ____
ROOT
ATOM      1  C   UNL     1      -5.200  13.235  20.806  0.00  0.00    +0.000 A 
ATOM      2  C   UNL     1      -3.950  13.175  21.604  0.00  0.00    +0.000 A 
ATOM      3  C   UNL     1      -3.877  13.862  22.954  0.00  0.00    +0.000 C 
ATOM      4  C   UNL     1      -2.862  12.511  21.136  0.00  0.00    +0.000 A 
ATOM      5  C   UNL     1      -2.870  11.932  19.849  0.00  0.00    +0.000 A 
ATOM      6  N   UNL     1      -1.925  11.242  19.247  0.00  0.00    +0.000 NA
ATOM      7  C   UNL     1      -2.428  10.930  18.025  0.00  0.00    +0.000 A 
ATOM      8  C   UNL     1      -1.807  10.185  17.010  0.00  0.00    +0.000 A 
ATOM      9  C   UNL     1      -2.489   9.958  15.815  0.00  0.00    +0.000 A 
ATOM     10  C   UNL     1      -3.765  10.490  15.629  0.00  0.00    +0.000 A 
ATOM     11  C   UNL     1      -4.387  11.255  16.622  0.00  0.00    +0.000 A 
ATOM     12  C   UNL     1      -3.711  11.452  17.843  0.00  0.00    +0.000 A 
ATOM     13  N   UNL     1      -4.011  12.090  19.056  0.00  0.00    +0.000 N 
ATOM     14  C   UNL     1      -5.201  12.759  19.524  0.00  0.00    +0.000 A 
ENDROOT
BRANCH  14  15
ATOM     15  N   UNL     1      -6.318  12.792  18.689  0.00  0.00    +0.000 N 
ATOM     16  C   UNL     1      -6.734  13.852  17.791  0.00  0.00    +0.000 C 
ATOM     17  H   UNL     1      -6.723  11.890  18.479  0.00  0.00    +0.000 HD
ENDBRANCH  14  15
BRANCH   1  19
ATOM     18  C   UNL     1      -7.310  12.642  22.135  0.00  0.00    +0.000 C 
ATOM     19  C   UNL     1      -6.460  13.743  21.504  0.00  0.00    +0.000 C 
ENDBRANCH   1  19
BRANCH   4  20
ATOM     20  C   UNL     1      -1.632  12.408  22.022  0.00  0.00    +0.000 C 
ATOM     21  N   UNL     1      -0.612  12.322  22.758  0.00  0.00    +0.000 NA
ENDBRANCH   4  20
TORSDOF 3
ENDMDL
