MODEL 1
REMARK VINA RESULT:      -8.1      0.000      0.000
REMARK  Name = 
REMARK  4 active torsions:
REMARK  status: ('A' for Active; 'I' for Inactive)
REMARK    1  A    between atoms: C_1  and  O_2
REMARK    2  A    between atoms: O_2  and  C_3
REMARK    3  A    between atoms: C_8  and  C_9
REMARK    4  A    between atoms: C_11  and  C_12
REMARK                            x       y       z     vdW  Elec       q    Type
REMARK                         _______ _______ _______ _____ _____    ______ ____
ROOT
ATOM      1  C   UNL     1       4.026   5.143  18.407  0.00  0.00    +0.000 A 
ATOM      2  N   UNL     1       3.681   6.397  18.880  0.00  0.00    +0.000 NA
ATOM      3  C   UNL     1       2.578   6.247  19.600  0.00  0.00    +0.000 A 
ATOM      4  N   UNL     1       2.163   4.929  19.551  0.00  0.00    +0.000 N 
ATOM      5  C   UNL     1       1.028   4.277  20.019  0.00  0.00    +0.000 A 
ATOM      6  C   UNL     1       0.922   2.954  19.831  0.00  0.00    +0.000 A 
ATOM      7  N   UNL     1       1.883   2.184  19.208  0.00  0.00    +0.000 NA
ATOM      8  C   UNL     1       2.936   2.794  18.733  0.00  0.00    +0.000 A 
ATOM      9  C   UNL     1       3.126   4.212  18.870  0.00  0.00    +0.000 A 
ENDROOT
BRANCH   3  10
ATOM     10  C   UNL     1       1.849   7.330  20.256  0.00  0.00    +0.000 C 
ATOM     11  O   UNL     1       1.558   7.267  21.451  0.00  0.00    +0.000 OA
ATOM     12  N   UNL     1       1.483   8.467  19.521  0.00  0.00    +0.000 N 
ATOM     13  C   UNL     1       1.815   8.744  18.121  0.00  0.00    +0.000 C 
ATOM     14  C   UNL     1       2.137  10.232  17.893  0.00  0.00    +0.000 C 
ATOM     15  O   UNL     1       1.165  11.110  18.478  0.00  0.00    +0.000 OA
ATOM     16  C   UNL     1       1.034  10.857  19.885  0.00  0.00    +0.000 C 
ATOM     17  C   UNL     1       0.547   9.428  20.111  0.00  0.00    +0.000 C 
ENDBRANCH   3  10
BRANCH   1  23
ATOM     18  C   UNL     1       6.442   4.734  17.720  0.00  0.00    +0.000 A 
ATOM     19  C   UNL     1       7.345   4.467  16.678  0.00  0.00    +0.000 A 
ATOM     20  C   UNL     1       6.937   4.518  15.345  0.00  0.00    +0.000 A 
ATOM     21  C   UNL     1       5.618   4.818  15.036  0.00  0.00    +0.000 A 
ATOM     22  C   UNL     1       4.701   5.031  16.065  0.00  0.00    +0.000 A 
ATOM     23  C   UNL     1       5.087   4.968  17.418  0.00  0.00    +0.000 A 
BRANCH  18  25
ATOM     24  C   UNL     1       7.809   5.737  19.378  0.00  0.00    +0.000 C 
ATOM     25  O   UNL     1       6.831   4.760  19.035  0.00  0.00    +0.000 OA
ENDBRANCH  18  25
ENDBRANCH   1  23
TORSDOF 3
ENDMDL
MODEL 2
REMARK VINA RESULT:      -7.4      1.558      6.181
REMARK  Name = 
REMARK  4 active torsions:
REMARK  status: ('A' for Active; 'I' for Inactive)
REMARK    1  A    between atoms: C_1  and  O_2
REMARK    2  A    between atoms: O_2  and  C_3
REMARK    3  A    between atoms: C_8  and  C_9
REMARK    4  A    between atoms: C_11  and  C_12
REMARK                            x       y       z     vdW  Elec       q    Type
REMARK                         _______ _______ _______ _____ _____    ______ ____
ROOT
ATOM      1  C   UNL     1       2.306   6.709  19.873  0.00  0.00    +0.000 A 
ATOM      2  N   UNL     1       3.600   6.870  19.407  0.00  0.00    +0.000 NA
ATOM      3  C   UNL     1       4.123   5.658  19.294  0.00  0.00    +0.000 A 
ATOM      4  N   UNL     1       3.216   4.713  19.738  0.00  0.00    +0.000 N 
ATOM      5  C   UNL     1       3.303   3.341  19.942  0.00  0.00    +0.000 A 
ATOM      6  C   UNL     1       2.216   2.684  20.371  0.00  0.00    +0.000 A 
ATOM      7  N   UNL     1       0.997   3.284  20.613  0.00  0.00    +0.000 NA
ATOM      8  C   UNL     1       0.916   4.579  20.458  0.00  0.00    +0.000 A 
ATOM      9  C   UNL     1       2.034   5.368  20.022  0.00  0.00    +0.000 A 
ENDROOT
BRANCH   3  10
ATOM     10  C   UNL     1       5.490   5.368  18.868  0.00  0.00    +0.000 C 
ATOM     11  O   UNL     1       6.321   4.920  19.660  0.00  0.00    +0.000 OA
ATOM     12  N   UNL     1       5.866   5.590  17.535  0.00  0.00    +0.000 N 
ATOM     13  C   UNL     1       4.993   6.039  16.447  0.00  0.00    +0.000 C 
ATOM     14  C   UNL     1       5.328   5.339  15.118  0.00  0.00    +0.000 C 
ATOM     15  O   UNL     1       6.732   5.346  14.821  0.00  0.00    +0.000 OA
ATOM     16  C   UNL     1       7.478   4.739  15.886  0.00  0.00    +0.000 C 
ATOM     17  C   UNL     1       7.285   5.535  17.174  0.00  0.00    +0.000 C 
ENDBRANCH   3  10
BRANCH   1  23
ATOM     18  C   UNL     1       1.116   8.919  19.461  0.00  0.00    +0.000 A 
ATOM     19  C   UNL     1       0.242   9.901  19.956  0.00  0.00    +0.000 A 
ATOM     20  C   UNL     1      -0.178   9.881  21.287  0.00  0.00    +0.000 A 
ATOM     21  C   UNL     1       0.254   8.871  22.134  0.00  0.00    +0.000 A 
ATOM     22  C   UNL     1       1.078   7.861  21.637  0.00  0.00    +0.000 A 
ATOM     23  C   UNL     1       1.501   7.852  20.294  0.00  0.00    +0.000 A 
BRANCH  18  25
ATOM     24  C   UNL     1       2.186  10.184  17.764  0.00  0.00    +0.000 C 
ATOM     25  O   UNL     1       1.600   8.952  18.177  0.00  0.00    +0.000 OA
ENDBRANCH  18  25
ENDBRANCH   1  23
TORSDOF 3
ENDMDL
MODEL 3
REMARK VINA RESULT:      -7.2      1.376      2.018
REMARK  Name = 
REMARK  4 active torsions:
REMARK  status: ('A' for Active; 'I' for Inactive)
REMARK    1  A    between atoms: C_1  and  O_2
REMARK    2  A    between atoms: O_2  and  C_3
REMARK    3  A    between atoms: C_8  and  C_9
REMARK    4  A    between atoms: C_11  and  C_12
REMARK                            x       y       z     vdW  Elec       q    Type
REMARK                         _______ _______ _______ _____ _____    ______ ____
ROOT
ATOM      1  C   UNL     1       4.114   6.142  18.147  0.00  0.00    +0.000 A 
ATOM      2  N   UNL     1       3.555   7.390  17.934  0.00  0.00    +0.000 NA
ATOM      3  C   UNL     1       2.488   7.474  18.717  0.00  0.00    +0.000 A 
ATOM      4  N   UNL     1       2.305   6.277  19.387  0.00  0.00    +0.000 N 
ATOM      5  C   UNL     1       1.295   5.803  20.216  0.00  0.00    +0.000 A 
ATOM      6  C   UNL     1       1.419   4.577  20.744  0.00  0.00    +0.000 A 
ATOM      7  N   UNL     1       2.503   3.750  20.529  0.00  0.00    +0.000 NA
ATOM      8  C   UNL     1       3.440   4.174  19.723  0.00  0.00    +0.000 A 
ATOM      9  C   UNL     1       3.382   5.465  19.095  0.00  0.00    +0.000 A 
ENDROOT
BRANCH   3  10
ATOM     10  C   UNL     1       1.579   8.614  18.779  0.00  0.00    +0.000 C 
ATOM     11  O   UNL     1       0.994   9.018  17.773  0.00  0.00    +0.000 OA
ATOM     12  N   UNL     1       1.353   9.258  20.005  0.00  0.00    +0.000 N 
ATOM     13  C   UNL     1       1.897   8.865  21.309  0.00  0.00    +0.000 C 
ATOM     14  C   UNL     1       0.870   9.059  22.439  0.00  0.00    +0.000 C 
ATOM     15  O   UNL     1       0.234  10.345  22.401  0.00  0.00    +0.000 OA
ATOM     16  C   UNL     1      -0.402  10.560  21.132  0.00  0.00    +0.000 C 
ATOM     17  C   UNL     1       0.643  10.540  20.019  0.00  0.00    +0.000 C 
ENDBRANCH   3  10
BRANCH   1  23
ATOM     18  C   UNL     1       6.395   5.076  17.782  0.00  0.00    +0.000 A 
ATOM     19  C   UNL     1       7.309   4.523  16.870  0.00  0.00    +0.000 A 
ATOM     20  C   UNL     1       7.087   4.605  15.495  0.00  0.00    +0.000 A 
ATOM     21  C   UNL     1       5.942   5.222  15.014  0.00  0.00    +0.000 A 
ATOM     22  C   UNL     1       5.002   5.726  15.913  0.00  0.00    +0.000 A 
ATOM     23  C   UNL     1       5.197   5.640  17.306  0.00  0.00    +0.000 A 
BRANCH  18  25
ATOM     24  C   UNL     1       7.782   5.770  19.576  0.00  0.00    +0.000 C 
ATOM     25  O   UNL     1       6.621   5.072  19.136  0.00  0.00    +0.000 OA
ENDBRANCH  18  25
ENDBRANCH   1  23
TORSDOF 3
ENDMDL
MODEL 4
REMARK VINA RESULT:      -6.7      4.185      7.390
REMARK  Name = 
REMARK  4 active torsions:
REMARK  status: ('A' for Active; 'I' for Inactive)
REMARK    1  A    between atoms: C_1  and  O_2
REMARK    2  A    between atoms: O_2  and  C_3
REMARK    3  A    between atoms: C_8  and  C_9
REMARK    4  A    between atoms: C_11  and  C_12
REMARK                            x       y       z     vdW  Elec       q    Type
REMARK                         _______ _______ _______ _____ _____    ______ ____
ROOT
ATOM      1  C   UNL     1       0.584  10.295  18.785  0.00  0.00    +0.000 A 
ATOM      2  N   UNL     1      -0.789  10.270  18.961  0.00  0.00    +0.000 NA
ATOM      3  C   UNL     1      -1.203  11.529  18.947  0.00  0.00    +0.000 A 
ATOM      4  N   UNL     1      -0.116  12.377  18.829  0.00  0.00    +0.000 N 
ATOM      5  C   UNL     1       0.015  13.760  18.885  0.00  0.00    +0.000 A 
ATOM      6  C   UNL     1       1.229  14.299  18.709  0.00  0.00    +0.000 A 
ATOM      7  N   UNL     1       2.370  13.565  18.458  0.00  0.00    +0.000 NA
ATOM      8  C   UNL     1       2.263  12.262  18.438  0.00  0.00    +0.000 A 
ATOM      9  C   UNL     1       1.006  11.596  18.638  0.00  0.00    +0.000 A 
ENDROOT
BRANCH   3  10
ATOM     10  C   UNL     1      -2.584  11.962  19.138  0.00  0.00    +0.000 C 
ATOM     11  O   UNL     1      -3.413  11.862  18.231  0.00  0.00    +0.000 OA
ATOM     12  N   UNL     1      -2.984  12.489  20.374  0.00  0.00    +0.000 N 
ATOM     13  C   UNL     1      -2.158  12.606  21.580  0.00  0.00    +0.000 C 
ATOM     14  C   UNL     1      -2.964  12.305  22.856  0.00  0.00    +0.000 C 
ATOM     15  O   UNL     1      -4.219  13.000  22.902  0.00  0.00    +0.000 OA
ATOM     16  C   UNL     1      -5.013  12.689  21.748  0.00  0.00    +0.000 C 
ATOM     17  C   UNL     1      -4.290  13.145  20.483  0.00  0.00    +0.000 C 
ENDBRANCH   3  10
BRANCH   1  23
ATOM     18  C   UNL     1       1.403   8.263  20.080  0.00  0.00    +0.000 A 
ATOM     19  C   UNL     1       2.137   7.066  20.060  0.00  0.00    +0.000 A 
ATOM     20  C   UNL     1       2.926   6.729  18.960  0.00  0.00    +0.000 A 
ATOM     21  C   UNL     1       2.978   7.572  17.860  0.00  0.00    +0.000 A 
ATOM     22  C   UNL     1       2.209   8.736  17.848  0.00  0.00    +0.000 A 
ATOM     23  C   UNL     1       1.393   9.089  18.940  0.00  0.00    +0.000 A 
BRANCH  18  25
ATOM     24  C   UNL     1       1.421   9.200  22.259  0.00  0.00    +0.000 C 
ATOM     25  O   UNL     1       0.674   8.655  21.175  0.00  0.00    +0.000 OA
ENDBRANCH  18  25
ENDBRANCH   1  23
TORSDOF 3
ENDMDL
MODEL 5
REMARK VINA RESULT:      -6.6      4.569      7.854
REMARK  Name = 
REMARK  4 active torsions:
REMARK  status: ('A' for Active; 'I' for Inactive)
REMARK    1  A    between atoms: C_1  and  O_2
REMARK    2  A    between atoms: O_2  and  C_3
REMARK    3  A    between atoms: C_8  and  C_9
REMARK    4  A    between atoms: C_11  and  C_12
REMARK                            x       y       z     vdW  Elec       q    Type
REMARK                         _______ _______ _______ _____ _____    ______ ____
ROOT
ATOM      1  C   UNL     1       0.202  10.757  19.089  0.00  0.00    +0.000 A 
ATOM      2  N   UNL     1      -1.131  10.738  19.465  0.00  0.00    +0.000 NA
ATOM      3  C   UNL     1      -1.538  11.999  19.505  0.00  0.00    +0.000 A 
ATOM      4  N   UNL     1      -0.477  12.843  19.225  0.00  0.00    +0.000 N 
ATOM      5  C   UNL     1      -0.335  14.225  19.254  0.00  0.00    +0.000 A 
ATOM      6  C   UNL     1       0.842  14.758  18.899  0.00  0.00    +0.000 A 
ATOM      7  N   UNL     1       1.932  14.018  18.486  0.00  0.00    +0.000 NA
ATOM      8  C   UNL     1       1.818  12.716  18.490  0.00  0.00    +0.000 A 
ATOM      9  C   UNL     1       0.602  12.056  18.875  0.00  0.00    +0.000 A 
ENDROOT
BRANCH   3  10
ATOM     10  C   UNL     1      -2.875  12.439  19.894  0.00  0.00    +0.000 C 
ATOM     11  O   UNL     1      -3.050  13.130  20.900  0.00  0.00    +0.000 OA
ATOM     12  N   UNL     1      -3.981  12.084  19.108  0.00  0.00    +0.000 N 
ATOM     13  C   UNL     1      -3.949  11.342  17.845  0.00  0.00    +0.000 C 
ATOM     14  C   UNL     1      -4.982  11.880  16.838  0.00  0.00    +0.000 C 
ATOM     15  O   UNL     1      -6.285  12.056  17.414  0.00  0.00    +0.000 OA
ATOM     16  C   UNL     1      -6.222  12.928  18.553  0.00  0.00    +0.000 C 
ATOM     17  C   UNL     1      -5.331  12.313  19.629  0.00  0.00    +0.000 C 
ENDBRANCH   3  10
BRANCH   1  23
ATOM     18  C   UNL     1       1.286   8.791  20.286  0.00  0.00    +0.000 A 
ATOM     19  C   UNL     1       1.993   7.583  20.172  0.00  0.00    +0.000 A 
ATOM     20  C   UNL     1       2.510   7.168  18.945  0.00  0.00    +0.000 A 
ATOM     21  C   UNL     1       2.313   7.944  17.812  0.00  0.00    +0.000 A 
ATOM     22  C   UNL     1       1.566   9.118  17.904  0.00  0.00    +0.000 A 
ATOM     23  C   UNL     1       1.020   9.549  19.130  0.00  0.00    +0.000 A 
BRANCH  18  25
ATOM     24  C   UNL     1      -0.312   8.590  22.027  0.00  0.00    +0.000 C 
ATOM     25  O   UNL     1       0.827   9.259  21.491  0.00  0.00    +0.000 OA
ENDBRANCH  18  25
ENDBRANCH   1  23
TORSDOF 3
ENDMDL
MODEL 6
REMARK VINA RESULT:      -6.4      4.639      7.558
REMARK  Name = 
REMARK  4 active torsions:
REMARK  status: ('A' for Active; 'I' for Inactive)
REMARK    1  A    between atoms: C_1  and  O_2
REMARK    2  A    between atoms: O_2  and  C_3
REMARK    3  A    between atoms: C_8  and  C_9
REMARK    4  A    between atoms: C_11  and  C_12
REMARK                            x       y       z     vdW  Elec       q    Type
REMARK                         _______ _______ _______ _____ _____    ______ ____
ROOT
ATOM      1  C   UNL     1      -0.340  10.382  19.585  0.00  0.00    +0.000 A 
ATOM      2  N   UNL     1      -0.164  11.433  20.469  0.00  0.00    +0.000 NA
ATOM      3  C   UNL     1      -1.238  12.203  20.371  0.00  0.00    +0.000 A 
ATOM      4  N   UNL     1      -2.082  11.708  19.393  0.00  0.00    +0.000 N 
ATOM      5  C   UNL     1      -3.253  12.191  18.822  0.00  0.00    +0.000 A 
ATOM      6  C   UNL     1      -3.866  11.450  17.887  0.00  0.00    +0.000 A 
ATOM      7  N   UNL     1      -3.413  10.219  17.459  0.00  0.00    +0.000 NA
ATOM      8  C   UNL     1      -2.293   9.774  17.965  0.00  0.00    +0.000 A 
ATOM      9  C   UNL     1      -1.558  10.508  18.957  0.00  0.00    +0.000 A 
ENDROOT
BRANCH   3  10
ATOM     10  C   UNL     1      -1.450  13.448  21.106  0.00  0.00    +0.000 C 
ATOM     11  O   UNL     1      -1.164  14.537  20.607  0.00  0.00    +0.000 OA
ATOM     12  N   UNL     1      -2.001  13.410  22.395  0.00  0.00    +0.000 N 
ATOM     13  C   UNL     1      -2.472  12.218  23.107  0.00  0.00    +0.000 C 
ATOM     14  C   UNL     1      -3.745  12.505  23.923  0.00  0.00    +0.000 C 
ATOM     15  O   UNL     1      -3.642  13.695  24.719  0.00  0.00    +0.000 OA
ATOM     16  C   UNL     1      -3.332  14.830  23.897  0.00  0.00    +0.000 C 
ATOM     17  C   UNL     1      -1.981  14.624  23.216  0.00  0.00    +0.000 C 
ENDBRANCH   3  10
BRANCH   1  23
ATOM     18  C   UNL     1       1.204   8.448  20.176  0.00  0.00    +0.000 A 
ATOM     19  C   UNL     1       2.171   7.531  19.733  0.00  0.00    +0.000 A 
ATOM     20  C   UNL     1       2.742   7.647  18.466  0.00  0.00    +0.000 A 
ATOM     21  C   UNL     1       2.342   8.668  17.617  0.00  0.00    +0.000 A 
ATOM     22  C   UNL     1       1.342   9.551  18.026  0.00  0.00    +0.000 A 
ATOM     23  C   UNL     1       0.740   9.443  19.295  0.00  0.00    +0.000 A 
BRANCH  18  25
ATOM     24  C   UNL     1       1.406   9.096  22.448  0.00  0.00    +0.000 C 
ATOM     25  O   UNL     1       0.676   8.400  21.442  0.00  0.00    +0.000 OA
ENDBRANCH  18  25
ENDBRANCH   1  23
TORSDOF 3
ENDMDL
MODEL 7
REMARK VINA RESULT:      -6.4      6.616     10.348
REMARK  Name = 
REMARK  4 active torsions:
REMARK  status: ('A' for Active; 'I' for Inactive)
REMARK    1  A    between atoms: C_1  and  O_2
REMARK    2  A    between atoms: O_2  and  C_3
REMARK    3  A    between atoms: C_8  and  C_9
REMARK    4  A    between atoms: C_11  and  C_12
REMARK                            x       y       z     vdW  Elec       q    Type
REMARK                         _______ _______ _______ _____ _____    ______ ____
ROOT
ATOM      1  C   UNL     1      -1.485  11.868  22.439  0.00  0.00    +0.000 A 
ATOM      2  N   UNL     1      -2.734  11.535  22.938  0.00  0.00    +0.000 NA
ATOM      3  C   UNL     1      -3.192  12.604  23.574  0.00  0.00    +0.000 A 
ATOM      4  N   UNL     1      -2.238  13.606  23.554  0.00  0.00    +0.000 N 
ATOM      5  C   UNL     1      -2.164  14.853  24.163  0.00  0.00    +0.000 A 
ATOM      6  C   UNL     1      -1.091  15.621  23.926  0.00  0.00    +0.000 A 
ATOM      7  N   UNL     1      -0.049  15.259  23.096  0.00  0.00    +0.000 NA
ATOM      8  C   UNL     1      -0.094  14.073  22.549  0.00  0.00    +0.000 A 
ATOM      9  C   UNL     1      -1.194  13.173  22.761  0.00  0.00    +0.000 A 
ENDROOT
BRANCH   3  10
ATOM     10  C   UNL     1      -4.466  12.677  24.284  0.00  0.00    +0.000 C 
ATOM     11  O   UNL     1      -4.552  12.358  25.471  0.00  0.00    +0.000 OA
ATOM     12  N   UNL     1      -5.611  13.130  23.613  0.00  0.00    +0.000 N 
ATOM     13  C   UNL     1      -5.676  13.623  22.234  0.00  0.00    +0.000 C 
ATOM     14  C   UNL     1      -6.647  14.809  22.096  0.00  0.00    +0.000 C 
ATOM     15  O   UNL     1      -7.916  14.568  22.722  0.00  0.00    +0.000 OA
ATOM     16  C   UNL     1      -7.744  14.247  24.110  0.00  0.00    +0.000 C 
ATOM     17  C   UNL     1      -6.922  12.968  24.249  0.00  0.00    +0.000 C 
ENDBRANCH   3  10
BRANCH   1  23
ATOM     18  C   UNL     1      -0.295  10.770  20.477  0.00  0.00    +0.000 A 
ATOM     19  C   UNL     1       0.652   9.826  20.047  0.00  0.00    +0.000 A 
ATOM     20  C   UNL     1       1.218   8.919  20.944  0.00  0.00    +0.000 A 
ATOM     21  C   UNL     1       0.859   8.956  22.284  0.00  0.00    +0.000 A 
ATOM     22  C   UNL     1      -0.039   9.925  22.730  0.00  0.00    +0.000 A 
ATOM     23  C   UNL     1      -0.611  10.861  21.845  0.00  0.00    +0.000 A 
BRANCH  18  25
ATOM     24  C   UNL     1      -1.790  11.023  18.653  0.00  0.00    +0.000 C 
ATOM     25  O   UNL     1      -0.920  11.627  19.606  0.00  0.00    +0.000 OA
ENDBRANCH  18  25
ENDBRANCH   1  23
TORSDOF 3
ENDMDL
MODEL 8
REMARK VINA RESULT:      -6.4      2.595      4.683
REMARK  Name = 
REMARK  4 active torsions:
REMARK  status: ('A' for Active; 'I' for Inactive)
REMARK    1  A    between atoms: C_1  and  O_2
REMARK    2  A    between atoms: O_2  and  C_3
REMARK    3  A    between atoms: C_8  and  C_9
REMARK    4  A    between atoms: C_11  and  C_12
REMARK                            x       y       z     vdW  Elec       q    Type
REMARK                         _______ _______ _______ _____ _____    ______ ____
ROOT
ATOM      1  C   UNL     1       1.639   6.673  20.204  0.00  0.00    +0.000 A 
ATOM      2  N   UNL     1       1.183   7.241  21.381  0.00  0.00    +0.000 NA
ATOM      3  C   UNL     1       1.091   8.547  21.169  0.00  0.00    +0.000 A 
ATOM      4  N   UNL     1       1.540   8.846  19.895  0.00  0.00    +0.000 N 
ATOM      5  C   UNL     1       1.762  10.046  19.229  0.00  0.00    +0.000 A 
ATOM      6  C   UNL     1       2.189  10.007  17.959  0.00  0.00    +0.000 A 
ATOM      7  N   UNL     1       2.412   8.841  17.255  0.00  0.00    +0.000 NA
ATOM      8  C   UNL     1       2.239   7.709  17.885  0.00  0.00    +0.000 A 
ATOM      9  C   UNL     1       1.803   7.653  19.253  0.00  0.00    +0.000 A 
ENDROOT
BRANCH   3  10
ATOM     10  C   UNL     1       0.682   9.533  22.165  0.00  0.00    +0.000 C 
ATOM     11  O   UNL     1       1.273   9.632  23.242  0.00  0.00    +0.000 OA
ATOM     12  N   UNL     1      -0.391  10.394  21.893  0.00  0.00    +0.000 N 
ATOM     13  C   UNL     1      -1.151  10.470  20.641  0.00  0.00    +0.000 C 
ATOM     14  C   UNL     1      -1.519  11.921  20.284  0.00  0.00    +0.000 C 
ATOM     15  O   UNL     1      -2.083  12.644  21.389  0.00  0.00    +0.000 OA
ATOM     16  C   UNL     1      -1.185  12.638  22.509  0.00  0.00    +0.000 C 
ATOM     17  C   UNL     1      -0.951  11.204  22.978  0.00  0.00    +0.000 C 
ENDBRANCH   3  10
BRANCH   1  23
ATOM     18  C   UNL     1       3.348   4.811  19.913  0.00  0.00    +0.000 A 
ATOM     19  C   UNL     1       3.622   3.436  19.992  0.00  0.00    +0.000 A 
ATOM     20  C   UNL     1       2.599   2.512  20.206  0.00  0.00    +0.000 A 
ATOM     21  C   UNL     1       1.292   2.951  20.362  0.00  0.00    +0.000 A 
ATOM     22  C   UNL     1       1.018   4.318  20.340  0.00  0.00    +0.000 A 
ATOM     23  C   UNL     1       2.037   5.270  20.141  0.00  0.00    +0.000 A 
BRANCH  18  25
ATOM     24  C   UNL     1       5.549   5.216  19.127  0.00  0.00    +0.000 C 
ATOM     25  O   UNL     1       4.323   5.736  19.634  0.00  0.00    +0.000 OA
ENDBRANCH  18  25
ENDBRANCH   1  23
TORSDOF 3
ENDMDL
MODEL 9
REMARK VINA RESULT:      -6.3      2.342      4.669
REMARK  Name = 
REMARK  4 active torsions:
REMARK  status: ('A' for Active; 'I' for Inactive)
REMARK    1  A    between atoms: C_1  and  O_2
REMARK    2  A    between atoms: O_2  and  C_3
REMARK    3  A    between atoms: C_8  and  C_9
REMARK    4  A    between atoms: C_11  and  C_12
REMARK                            x       y       z     vdW  Elec       q    Type
REMARK                         _______ _______ _______ _____ _____    ______ ____
ROOT
ATOM      1  C   UNL     1       2.550   5.487  18.948  0.00  0.00    +0.000 A 
ATOM      2  N   UNL     1       1.797   6.647  19.011  0.00  0.00    +0.000 NA
ATOM      3  C   UNL     1       2.454   7.571  18.323  0.00  0.00    +0.000 A 
ATOM      4  N   UNL     1       3.652   7.051  17.868  0.00  0.00    +0.000 N 
ATOM      5  C   UNL     1       4.742   7.618  17.217  0.00  0.00    +0.000 A 
ATOM      6  C   UNL     1       5.771   6.829  16.879  0.00  0.00    +0.000 A 
ATOM      7  N   UNL     1       5.816   5.471  17.123  0.00  0.00    +0.000 NA
ATOM      8  C   UNL     1       4.811   4.937  17.766  0.00  0.00    +0.000 A 
ATOM      9  C   UNL     1       3.674   5.709  18.186  0.00  0.00    +0.000 A 
ENDROOT
BRANCH   3  10
ATOM     10  C   UNL     1       2.030   8.959  18.163  0.00  0.00    +0.000 C 
ATOM     11  O   UNL     1       2.199   9.557  17.099  0.00  0.00    +0.000 OA
ATOM     12  N   UNL     1       1.408   9.624  19.230  0.00  0.00    +0.000 N 
ATOM     13  C   UNL     1       1.056   9.047  20.530  0.00  0.00    +0.000 C 
ATOM     14  C   UNL     1      -0.294   9.578  21.045  0.00  0.00    +0.000 C 
ATOM     15  O   UNL     1      -0.404  11.006  20.958  0.00  0.00    +0.000 OA
ATOM     16  C   UNL     1      -0.196  11.449  19.608  0.00  0.00    +0.000 C 
ATOM     17  C   UNL     1       1.211  11.075  19.151  0.00  0.00    +0.000 C 
ENDBRANCH   3  10
BRANCH   1  23
ATOM     18  C   UNL     1       1.814   3.070  19.248  0.00  0.00    +0.000 A 
ATOM     19  C   UNL     1       1.634   1.991  20.128  0.00  0.00    +0.000 A 
ATOM     20  C   UNL     1       1.761   2.161  21.507  0.00  0.00    +0.000 A 
ATOM     21  C   UNL     1       2.089   3.406  22.023  0.00  0.00    +0.000 A 
ATOM     22  C   UNL     1       2.323   4.472  21.154  0.00  0.00    +0.000 A 
ATOM     23  C   UNL     1       2.216   4.319  19.758  0.00  0.00    +0.000 A 
BRANCH  18  25
ATOM     24  C   UNL     1       2.614   2.199  17.192  0.00  0.00    +0.000 C 
ATOM     25  O   UNL     1       1.626   2.949  17.894  0.00  0.00    +0.000 OA
ENDBRANCH  18  25
ENDBRANCH   1  23
TORSDOF 3
ENDMDL
