MODEL 1
REMARK VINA RESULT:      -6.0      0.000      0.000
REMARK  Name = 
REMARK  5 active torsions:
REMARK  status: ('A' for Active; 'I' for Inactive)
REMARK    1  A    between atoms: N_2  and  C_4
REMARK    2  A    between atoms: C_7  and  C_8
REMARK    3  A    between atoms: C_8  and  P_9
REMARK    4  A    between atoms: P_9  and  O_11
REMARK    5  A    between atoms: P_9  and  O_12
REMARK                            x       y       z     vdW  Elec       q    Type
REMARK                         _______ _______ _______ _____ _____    ______ ____
ROOT
ATOM      1  C   UNL     1       2.296   3.913  18.262  0.00  0.00    +0.000 A 
ATOM      2  C   UNL     1       2.484   5.295  18.237  0.00  0.00    +0.000 A 
ATOM      3  C   UNL     1       3.623   5.827  17.610  0.00  0.00    +0.000 A 
ATOM      4  C   UNL     1       4.576   4.989  17.017  0.00  0.00    +0.000 A 
ATOM      5  C   UNL     1       4.361   3.601  17.032  0.00  0.00    +0.000 A 
ATOM      6  C   UNL     1       3.225   3.062  17.650  0.00  0.00    +0.000 A 
ENDROOT
BRANCH   1   8
ATOM      7  O   UNL     1       0.544   2.391  18.408  0.00  0.00    +0.000 OA
ATOM      8  N   UNL     1       1.124   3.342  18.954  0.00  0.00    +0.000 N 
ATOM      9  O   UNL     1       0.789   3.858  20.030  0.00  0.00    +0.000 OA
ENDBRANCH   1   8
BRANCH   4  10
ATOM     10  C   UNL     1       5.871   5.569  16.446  0.00  0.00    +0.000 C 
BRANCH  10  11
ATOM     11  P   UNL     1       7.074   6.035  17.744  0.00  0.00    +0.000 P 
ATOM     12  O   UNL     1       7.863   4.744  17.528  0.00  0.00    +0.000 OA
BRANCH  11  13
ATOM     13  O   UNL     1       7.745   7.175  16.777  0.00  0.00    +0.000 OA
ATOM     14  H   UNL     1       7.795   8.053  17.198  0.00  0.00    +0.000 HD
ENDBRANCH  11  13
BRANCH  11  15
ATOM     15  O   UNL     1       8.209   6.477  18.972  0.00  0.00    +0.000 OA
ATOM     16  H   UNL     1       9.030   6.649  18.461  0.00  0.00    +0.000 HD
ENDBRANCH  11  15
ENDBRANCH  10  11
ENDBRANCH   4  10
TORSDOF 5
ENDMDL
MODEL 2
REMARK VINA RESULT:      -6.0      2.809      5.727
REMARK  Name = 
REMARK  5 active torsions:
REMARK  status: ('A' for Active; 'I' for Inactive)
REMARK    1  A    between atoms: N_2  and  C_4
REMARK    2  A    between atoms: C_7  and  C_8
REMARK    3  A    between atoms: C_8  and  P_9
REMARK    4  A    between atoms: P_9  and  O_11
REMARK    5  A    between atoms: P_9  and  O_12
REMARK                            x       y       z     vdW  Elec       q    Type
REMARK                         _______ _______ _______ _____ _____    ______ ____
ROOT
ATOM      1  C   UNL     1       5.276   5.362  16.602  0.00  0.00    +0.000 A 
ATOM      2  C   UNL     1       4.744   4.075  16.519  0.00  0.00    +0.000 A 
ATOM      3  C   UNL     1       3.575   3.763  17.231  0.00  0.00    +0.000 A 
ATOM      4  C   UNL     1       2.940   4.723  18.030  0.00  0.00    +0.000 A 
ATOM      5  C   UNL     1       3.477   6.020  18.085  0.00  0.00    +0.000 A 
ATOM      6  C   UNL     1       4.639   6.342  17.373  0.00  0.00    +0.000 A 
ENDROOT
BRANCH   1   8
ATOM      7  O   UNL     1       6.624   5.329  14.706  0.00  0.00    +0.000 OA
ATOM      8  N   UNL     1       6.527   5.689  15.890  0.00  0.00    +0.000 N 
ATOM      9  O   UNL     1       7.404   6.292  16.526  0.00  0.00    +0.000 OA
ENDBRANCH   1   8
BRANCH   4  10
ATOM     10  C   UNL     1       1.739   4.341  18.898  0.00  0.00    +0.000 C 
BRANCH  10  11
ATOM     11  P   UNL     1       2.224   3.514  20.456  0.00  0.00    +0.000 P 
ATOM     12  O   UNL     1       2.333   4.858  21.178  0.00  0.00    +0.000 OA
BRANCH  11  13
ATOM     13  O   UNL     1       0.699   2.965  20.693  0.00  0.00    +0.000 OA
ATOM     14  H   UNL     1       0.669   2.053  21.038  0.00  0.00    +0.000 HD
ENDBRANCH  11  13
BRANCH  11  15
ATOM     15  O   UNL     1       2.683   2.732  21.929  0.00  0.00    +0.000 OA
ATOM     16  H   UNL     1       2.038   3.088  22.578  0.00  0.00    +0.000 HD
ENDBRANCH  11  15
ENDBRANCH  10  11
ENDBRANCH   4  10
TORSDOF 5
ENDMDL
MODEL 3
REMARK VINA RESULT:      -6.0      2.847      5.980
REMARK  Name = 
REMARK  5 active torsions:
REMARK  status: ('A' for Active; 'I' for Inactive)
REMARK    1  A    between atoms: N_2  and  C_4
REMARK    2  A    between atoms: C_7  and  C_8
REMARK    3  A    between atoms: C_8  and  P_9
REMARK    4  A    between atoms: P_9  and  O_11
REMARK    5  A    between atoms: P_9  and  O_12
REMARK                            x       y       z     vdW  Elec       q    Type
REMARK                         _______ _______ _______ _____ _____    ______ ____
ROOT
ATOM      1  C   UNL     1       6.354   5.730  17.777  0.00  0.00    +0.000 A 
ATOM      2  C   UNL     1       5.678   5.414  16.598  0.00  0.00    +0.000 A 
ATOM      3  C   UNL     1       4.671   4.434  16.619  0.00  0.00    +0.000 A 
ATOM      4  C   UNL     1       4.342   3.766  17.805  0.00  0.00    +0.000 A 
ATOM      5  C   UNL     1       5.017   4.111  18.987  0.00  0.00    +0.000 A 
ATOM      6  C   UNL     1       6.018   5.090  18.977  0.00  0.00    +0.000 A 
ENDROOT
BRANCH   1   8
ATOM      7  O   UNL     1       7.594   7.388  16.718  0.00  0.00    +0.000 OA
ATOM      8  N   UNL     1       7.441   6.728  17.757  0.00  0.00    +0.000 N 
ATOM      9  O   UNL     1       8.137   6.832  18.778  0.00  0.00    +0.000 OA
ENDBRANCH   1   8
BRANCH   4  10
ATOM     10  C   UNL     1       3.332   2.616  17.794  0.00  0.00    +0.000 C 
BRANCH  10  11
ATOM     11  P   UNL     1       1.871   2.944  18.846  0.00  0.00    +0.000 P 
ATOM     12  O   UNL     1       1.212   3.765  17.737  0.00  0.00    +0.000 OA
BRANCH  11  13
ATOM     13  O   UNL     1       1.346   1.401  18.677  0.00  0.00    +0.000 OA
ATOM     14  H   UNL     1       1.970   0.837  18.184  0.00  0.00    +0.000 HD
ENDBRANCH  11  13
BRANCH  11  15
ATOM     15  O   UNL     1       0.490   3.254  19.840  0.00  0.00    +0.000 OA
ATOM     16  H   UNL     1      -0.117   3.730  19.232  0.00  0.00    +0.000 HD
ENDBRANCH  11  15
ENDBRANCH  10  11
ENDBRANCH   4  10
TORSDOF 5
ENDMDL
MODEL 4
REMARK VINA RESULT:      -6.0      2.786      5.778
REMARK  Name = 
REMARK  5 active torsions:
REMARK  status: ('A' for Active; 'I' for Inactive)
REMARK    1  A    between atoms: N_2  and  C_4
REMARK    2  A    between atoms: C_7  and  C_8
REMARK    3  A    between atoms: C_8  and  P_9
REMARK    4  A    between atoms: P_9  and  O_11
REMARK    5  A    between atoms: P_9  and  O_12
REMARK                            x       y       z     vdW  Elec       q    Type
REMARK                         _______ _______ _______ _____ _____    ______ ____
ROOT
ATOM      1  C   UNL     1       5.739   5.517  16.879  0.00  0.00    +0.000 A 
ATOM      2  C   UNL     1       4.938   6.506  17.451  0.00  0.00    +0.000 A 
ATOM      3  C   UNL     1       3.728   6.146  18.065  0.00  0.00    +0.000 A 
ATOM      4  C   UNL     1       3.310   4.809  18.106  0.00  0.00    +0.000 A 
ATOM      5  C   UNL     1       4.138   3.824  17.544  0.00  0.00    +0.000 A 
ATOM      6  C   UNL     1       5.350   4.172  16.934  0.00  0.00    +0.000 A 
ENDROOT
BRANCH   1   8
ATOM      7  O   UNL     1       7.629   6.853  16.648  0.00  0.00    +0.000 OA
ATOM      8  N   UNL     1       6.993   5.889  16.195  0.00  0.00    +0.000 N 
ATOM      9  O   UNL     1       7.322   5.220  15.203  0.00  0.00    +0.000 OA
ENDBRANCH   1   8
BRANCH   4  10
ATOM     10  C   UNL     1       1.935   4.442  18.667  0.00  0.00    +0.000 C 
BRANCH  10  11
ATOM     11  P   UNL     1       2.010   3.838  20.392  0.00  0.00    +0.000 P 
ATOM     12  O   UNL     1       1.960   5.267  20.933  0.00  0.00    +0.000 OA
BRANCH  11  13
ATOM     13  O   UNL     1       0.465   3.299  20.319  0.00  0.00    +0.000 OA
ATOM     14  H   UNL     1       0.349   2.415  20.716  0.00  0.00    +0.000 HD
ENDBRANCH  11  13
BRANCH  11  15
ATOM     15  O   UNL     1       2.082   3.266  22.024  0.00  0.00    +0.000 OA
ATOM     16  H   UNL     1       1.375   2.585  22.049  0.00  0.00    +0.000 HD
ENDBRANCH  11  15
ENDBRANCH  10  11
ENDBRANCH   4  10
TORSDOF 5
ENDMDL
MODEL 5
REMARK VINA RESULT:      -6.0      3.123      5.910
REMARK  Name = 
REMARK  5 active torsions:
REMARK  status: ('A' for Active; 'I' for Inactive)
REMARK    1  A    between atoms: N_2  and  C_4
REMARK    2  A    between atoms: C_7  and  C_8
REMARK    3  A    between atoms: C_8  and  P_9
REMARK    4  A    between atoms: P_9  and  O_11
REMARK    5  A    between atoms: P_9  and  O_12
REMARK                            x       y       z     vdW  Elec       q    Type
REMARK                         _______ _______ _______ _____ _____    ______ ____
ROOT
ATOM      1  C   UNL     1       5.846   4.892  15.526  0.00  0.00    +0.000 A 
ATOM      2  C   UNL     1       5.318   6.107  15.963  0.00  0.00    +0.000 A 
ATOM      3  C   UNL     1       4.379   6.117  17.008  0.00  0.00    +0.000 A 
ATOM      4  C   UNL     1       3.960   4.924  17.611  0.00  0.00    +0.000 A 
ATOM      5  C   UNL     1       4.517   3.712  17.174  0.00  0.00    +0.000 A 
ATOM      6  C   UNL     1       5.459   3.692  16.137  0.00  0.00    +0.000 A 
ENDROOT
BRANCH   1   8
ATOM      7  O   UNL     1       7.816   5.575  14.496  0.00  0.00    +0.000 OA
ATOM      8  N   UNL     1       6.802   4.866  14.403  0.00  0.00    +0.000 N 
ATOM      9  O   UNL     1       6.523   4.146  13.432  0.00  0.00    +0.000 OA
ENDBRANCH   1   8
BRANCH   4  10
ATOM     10  C   UNL     1       2.847   4.934  18.662  0.00  0.00    +0.000 C 
BRANCH  10  11
ATOM     11  P   UNL     1       1.745   3.478  18.543  0.00  0.00    +0.000 P 
ATOM     12  O   UNL     1       0.953   3.932  19.770  0.00  0.00    +0.000 OA
BRANCH  11  13
ATOM     13  O   UNL     1       0.991   4.099  17.228  0.00  0.00    +0.000 OA
ATOM     14  H   UNL     1       1.570   4.153  16.445  0.00  0.00    +0.000 HD
ENDBRANCH  11  13
BRANCH  11  15
ATOM     15  O   UNL     1       0.704   2.101  18.431  0.00  0.00    +0.000 OA
ATOM     16  H   UNL     1       0.756   1.712  19.331  0.00  0.00    +0.000 HD
ENDBRANCH  11  15
ENDBRANCH  10  11
ENDBRANCH   4  10
TORSDOF 5
ENDMDL
MODEL 6
REMARK VINA RESULT:      -6.0      1.098      1.322
REMARK  Name = 
REMARK  5 active torsions:
REMARK  status: ('A' for Active; 'I' for Inactive)
REMARK    1  A    between atoms: N_2  and  C_4
REMARK    2  A    between atoms: C_7  and  C_8
REMARK    3  A    between atoms: C_8  and  P_9
REMARK    4  A    between atoms: P_9  and  O_11
REMARK    5  A    between atoms: P_9  and  O_12
REMARK                            x       y       z     vdW  Elec       q    Type
REMARK                         _______ _______ _______ _____ _____    ______ ____
ROOT
ATOM      1  C   UNL     1       2.405   3.257  18.933  0.00  0.00    +0.000 A 
ATOM      2  C   UNL     1       2.416   3.376  17.542  0.00  0.00    +0.000 A 
ATOM      3  C   UNL     1       3.595   3.774  16.892  0.00  0.00    +0.000 A 
ATOM      4  C   UNL     1       4.758   4.061  17.619  0.00  0.00    +0.000 A 
ATOM      5  C   UNL     1       4.735   3.917  19.016  0.00  0.00    +0.000 A 
ATOM      6  C   UNL     1       3.566   3.514  19.673  0.00  0.00    +0.000 A 
ENDROOT
BRANCH   1   8
ATOM      7  O   UNL     1       0.264   2.348  18.955  0.00  0.00    +0.000 OA
ATOM      8  N   UNL     1       1.160   2.879  19.629  0.00  0.00    +0.000 N 
ATOM      9  O   UNL     1       1.087   3.128  20.842  0.00  0.00    +0.000 OA
ENDBRANCH   1   8
BRANCH   4  10
ATOM     10  C   UNL     1       5.999   4.613  16.915  0.00  0.00    +0.000 C 
BRANCH  10  11
ATOM     11  P   UNL     1       7.100   5.544  18.041  0.00  0.00    +0.000 P 
ATOM     12  O   UNL     1       8.080   4.373  18.111  0.00  0.00    +0.000 OA
BRANCH  11  13
ATOM     13  O   UNL     1       7.601   6.516  16.821  0.00  0.00    +0.000 OA
ATOM     14  H   UNL     1       6.942   7.191  16.573  0.00  0.00    +0.000 HD
ENDBRANCH  11  13
BRANCH  11  15
ATOM     15  O   UNL     1       8.140   6.425  19.106  0.00  0.00    +0.000 OA
ATOM     16  H   UNL     1       7.674   6.366  19.968  0.00  0.00    +0.000 HD
ENDBRANCH  11  15
ENDBRANCH  10  11
ENDBRANCH   4  10
TORSDOF 5
ENDMDL
MODEL 7
REMARK VINA RESULT:      -5.9      1.760      2.408
REMARK  Name = 
REMARK  5 active torsions:
REMARK  status: ('A' for Active; 'I' for Inactive)
REMARK    1  A    between atoms: N_2  and  C_4
REMARK    2  A    between atoms: C_7  and  C_8
REMARK    3  A    between atoms: C_8  and  P_9
REMARK    4  A    between atoms: P_9  and  O_11
REMARK    5  A    between atoms: P_9  and  O_12
REMARK                            x       y       z     vdW  Elec       q    Type
REMARK                         _______ _______ _______ _____ _____    ______ ____
ROOT
ATOM      1  C   UNL     1       2.965   3.325  19.828  0.00  0.00    +0.000 A 
ATOM      2  C   UNL     1       3.127   2.349  18.844  0.00  0.00    +0.000 A 
ATOM      3  C   UNL     1       3.875   2.645  17.693  0.00  0.00    +0.000 A 
ATOM      4  C   UNL     1       4.454   3.908  17.515  0.00  0.00    +0.000 A 
ATOM      5  C   UNL     1       4.299   4.872  18.524  0.00  0.00    +0.000 A 
ATOM      6  C   UNL     1       3.561   4.584  19.679  0.00  0.00    +0.000 A 
ENDROOT
BRANCH   1   8
ATOM      7  O   UNL     1       2.730   2.585  22.020  0.00  0.00    +0.000 OA
ATOM      8  N   UNL     1       2.148   3.038  21.023  0.00  0.00    +0.000 N 
ATOM      9  O   UNL     1       0.930   3.257  20.946  0.00  0.00    +0.000 OA
ENDBRANCH   1   8
BRANCH   4  10
ATOM     10  C   UNL     1       5.161   4.261  16.205  0.00  0.00    +0.000 C 
BRANCH  10  11
ATOM     11  P   UNL     1       6.422   5.571  16.409  0.00  0.00    +0.000 P 
ATOM     12  O   UNL     1       7.395   4.828  15.494  0.00  0.00    +0.000 OA
BRANCH  11  13
ATOM     13  O   UNL     1       5.569   6.603  15.464  0.00  0.00    +0.000 OA
ATOM     14  H   UNL     1       6.111   7.025  14.772  0.00  0.00    +0.000 HD
ENDBRANCH  11  13
BRANCH  11  15
ATOM     15  O   UNL     1       7.613   6.810  16.603  0.00  0.00    +0.000 OA
ATOM     16  H   UNL     1       8.180   6.459  17.323  0.00  0.00    +0.000 HD
ENDBRANCH  11  15
ENDBRANCH  10  11
ENDBRANCH   4  10
TORSDOF 5
ENDMDL
MODEL 8
REMARK VINA RESULT:      -5.9      1.294      2.223
REMARK  Name = 
REMARK  5 active torsions:
REMARK  status: ('A' for Active; 'I' for Inactive)
REMARK    1  A    between atoms: N_2  and  C_4
REMARK    2  A    between atoms: C_7  and  C_8
REMARK    3  A    between atoms: C_8  and  P_9
REMARK    4  A    between atoms: P_9  and  O_11
REMARK    5  A    between atoms: P_9  and  O_12
REMARK                            x       y       z     vdW  Elec       q    Type
REMARK                         _______ _______ _______ _____ _____    ______ ____
ROOT
ATOM      1  C   UNL     1       2.188   3.665  19.203  0.00  0.00    +0.000 A 
ATOM      2  C   UNL     1       2.566   3.576  17.862  0.00  0.00    +0.000 A 
ATOM      3  C   UNL     1       3.633   4.358  17.392  0.00  0.00    +0.000 A 
ATOM      4  C   UNL     1       4.318   5.232  18.246  0.00  0.00    +0.000 A 
ATOM      5  C   UNL     1       3.940   5.293  19.597  0.00  0.00    +0.000 A 
ATOM      6  C   UNL     1       2.881   4.513  20.078  0.00  0.00    +0.000 A 
ENDROOT
BRANCH   1   8
ATOM      7  O   UNL     1       0.910   2.771  20.928  0.00  0.00    +0.000 OA
ATOM      8  N   UNL     1       1.043   2.878  19.699  0.00  0.00    +0.000 N 
ATOM      9  O   UNL     1       0.294   2.366  18.854  0.00  0.00    +0.000 OA
ENDBRANCH   1   8
BRANCH   4  10
ATOM     10  C   UNL     1       5.397   6.169  17.697  0.00  0.00    +0.000 C 
BRANCH  10  11
ATOM     11  P   UNL     1       6.647   5.297  16.686  0.00  0.00    +0.000 P 
ATOM     12  O   UNL     1       7.541   6.537  16.657  0.00  0.00    +0.000 OA
BRANCH  11  13
ATOM     13  O   UNL     1       7.121   4.393  17.968  0.00  0.00    +0.000 OA
ATOM     14  H   UNL     1       8.001   4.643  18.308  0.00  0.00    +0.000 HD
ENDBRANCH  11  13
BRANCH  11  15
ATOM     15  O   UNL     1       7.829   4.472  15.729  0.00  0.00    +0.000 OA
ATOM     16  H   UNL     1       8.070   3.704  16.291  0.00  0.00    +0.000 HD
ENDBRANCH  11  15
ENDBRANCH  10  11
ENDBRANCH   4  10
TORSDOF 5
ENDMDL
MODEL 9
REMARK VINA RESULT:      -5.9      1.145      1.848
REMARK  Name = 
REMARK  5 active torsions:
REMARK  status: ('A' for Active; 'I' for Inactive)
REMARK    1  A    between atoms: N_2  and  C_4
REMARK    2  A    between atoms: C_7  and  C_8
REMARK    3  A    between atoms: C_8  and  P_9
REMARK    4  A    between atoms: P_9  and  O_11
REMARK    5  A    between atoms: P_9  and  O_12
REMARK                            x       y       z     vdW  Elec       q    Type
REMARK                         _______ _______ _______ _____ _____    ______ ____
ROOT
ATOM      1  C   UNL     1       2.045   3.823  19.078  0.00  0.00    +0.000 A 
ATOM      2  C   UNL     1       2.496   4.904  19.836  0.00  0.00    +0.000 A 
ATOM      3  C   UNL     1       3.506   5.735  19.323  0.00  0.00    +0.000 A 
ATOM      4  C   UNL     1       4.070   5.490  18.065  0.00  0.00    +0.000 A 
ATOM      5  C   UNL     1       3.590   4.411  17.306  0.00  0.00    +0.000 A 
ATOM      6  C   UNL     1       2.579   3.580  17.806  0.00  0.00    +0.000 A 
ENDROOT
BRANCH   1   8
ATOM      7  O   UNL     1       0.955   2.796  20.857  0.00  0.00    +0.000 OA
ATOM      8  N   UNL     1       1.014   2.920  19.624  0.00  0.00    +0.000 N 
ATOM      9  O   UNL     1       0.281   2.334  18.813  0.00  0.00    +0.000 OA
ENDBRANCH   1   8
BRANCH   4  10
ATOM     10  C   UNL     1       5.253   6.325  17.568  0.00  0.00    +0.000 C 
BRANCH  10  11
ATOM     11  P   UNL     1       6.681   5.301  17.058  0.00  0.00    +0.000 P 
ATOM     12  O   UNL     1       7.495   6.546  16.707  0.00  0.00    +0.000 OA
BRANCH  11  13
ATOM     13  O   UNL     1       7.026   4.926  18.616  0.00  0.00    +0.000 OA
ATOM     14  H   UNL     1       7.945   4.623  18.742  0.00  0.00    +0.000 HD
ENDBRANCH  11  13
BRANCH  11  15
ATOM     15  O   UNL     1       8.031   4.332  16.577  0.00  0.00    +0.000 OA
ATOM     16  H   UNL     1       8.408   4.038  17.434  0.00  0.00    +0.000 HD
ENDBRANCH  11  15
ENDBRANCH  10  11
ENDBRANCH   4  10
TORSDOF 5
ENDMDL
