MODEL 1
REMARK VINA RESULT:      -7.0      0.000      0.000
REMARK  Name = 
REMARK  6 active torsions:
REMARK  status: ('A' for Active; 'I' for Inactive)
REMARK    1  A    between atoms: C_1  and  O_2
REMARK    2  A    between atoms: O_2  and  C_3
REMARK    3  A    between atoms: C_5  and  C_6
REMARK    4  A    between atoms: C_6  and  O_7
REMARK    5  A    between atoms: C_10  and  O_11
REMARK    6  A    between atoms: O_11  and  C_12
REMARK                            x       y       z     vdW  Elec       q    Type
REMARK                         _______ _______ _______ _____ _____    ______ ____
ROOT
ATOM      1  C   UNL     1       6.626   4.633  17.870  0.00  0.00    +0.000 A 
ATOM      2  C   UNL     1       7.118   4.519  16.561  0.00  0.00    +0.000 A 
ATOM      3  C   UNL     1       6.263   4.571  15.447  0.00  0.00    +0.000 A 
ATOM      4  C   UNL     1       4.887   4.670  15.659  0.00  0.00    +0.000 A 
ATOM      5  C   UNL     1       4.382   4.730  16.961  0.00  0.00    +0.000 A 
ATOM      6  C   UNL     1       5.241   4.704  18.070  0.00  0.00    +0.000 A 
ENDROOT
BRANCH   1   8
ATOM      7  C   UNL     1       8.015   5.956  19.248  0.00  0.00    +0.000 C 
ATOM      8  O   UNL     1       7.447   4.682  18.964  0.00  0.00    +0.000 OA
ENDBRANCH   1   8
BRANCH   3   9
ATOM      9  C   UNL     1       6.848   4.551  14.061  0.00  0.00    +0.000 C 
BRANCH   9  10
ATOM     10  O   UNL     1       7.901   5.504  13.964  0.00  0.00    +0.000 OA
ATOM     11  H   UNL     1       7.748   6.166  14.660  0.00  0.00    +0.000 HD
ENDBRANCH   9  10
ENDBRANCH   3   9
BRANCH   6  12
ATOM     12  O   UNL     1       4.623   4.968  19.272  0.00  0.00    +0.000 OA
BRANCH  12  13
ATOM     13  C   UNL     1       3.506   4.291  19.689  0.00  0.00    +0.000 A 
ATOM     14  C   UNL     1       2.458   5.114  20.124  0.00  0.00    +0.000 A 
ATOM     15  C   UNL     1       1.241   4.570  20.537  0.00  0.00    +0.000 A 
ATOM     16  C   UNL     1       1.065   3.190  20.520  0.00  0.00    +0.000 A 
ATOM     17  C   UNL     1       2.097   2.362  20.077  0.00  0.00    +0.000 A 
ATOM     18  C   UNL     1       3.312   2.908  19.645  0.00  0.00    +0.000 A 
ENDBRANCH  12  13
ENDBRANCH   6  12
TORSDOF 5
ENDMDL
MODEL 2
REMARK VINA RESULT:      -6.8      0.791      1.397
REMARK  Name = 
REMARK  6 active torsions:
REMARK  status: ('A' for Active; 'I' for Inactive)
REMARK    1  A    between atoms: C_1  and  O_2
REMARK    2  A    between atoms: O_2  and  C_3
REMARK    3  A    between atoms: C_5  and  C_6
REMARK    4  A    between atoms: C_6  and  O_7
REMARK    5  A    between atoms: C_10  and  O_11
REMARK    6  A    between atoms: O_11  and  C_12
REMARK                            x       y       z     vdW  Elec       q    Type
REMARK                         _______ _______ _______ _____ _____    ______ ____
ROOT
ATOM      1  C   UNL     1       6.811   4.590  17.850  0.00  0.00    +0.000 A 
ATOM      2  C   UNL     1       7.138   4.559  16.486  0.00  0.00    +0.000 A 
ATOM      3  C   UNL     1       6.154   4.395  15.498  0.00  0.00    +0.000 A 
ATOM      4  C   UNL     1       4.831   4.189  15.894  0.00  0.00    +0.000 A 
ATOM      5  C   UNL     1       4.503   4.164  17.252  0.00  0.00    +0.000 A 
ATOM      6  C   UNL     1       5.484   4.355  18.235  0.00  0.00    +0.000 A 
ENDROOT
BRANCH   1   8
ATOM      7  C   UNL     1       8.004   6.221  19.074  0.00  0.00    +0.000 C 
ATOM      8  O   UNL     1       7.738   4.844  18.825  0.00  0.00    +0.000 OA
ENDBRANCH   1   8
BRANCH   3   9
ATOM      9  C   UNL     1       6.538   4.475  14.045  0.00  0.00    +0.000 C 
BRANCH   9  10
ATOM     10  O   UNL     1       6.281   3.229  13.406  0.00  0.00    +0.000 OA
ATOM     11  H   UNL     1       6.580   3.319  12.484  0.00  0.00    +0.000 HD
ENDBRANCH   9  10
ENDBRANCH   3   9
BRANCH   6  12
ATOM     12  O   UNL     1       4.989   4.501  19.512  0.00  0.00    +0.000 OA
BRANCH  12  13
ATOM     13  C   UNL     1       3.671   4.280  19.819  0.00  0.00    +0.000 A 
ATOM     14  C   UNL     1       3.352   2.938  20.072  0.00  0.00    +0.000 A 
ATOM     15  C   UNL     1       2.059   2.564  20.440  0.00  0.00    +0.000 A 
ATOM     16  C   UNL     1       1.070   3.536  20.556  0.00  0.00    +0.000 A 
ATOM     17  C   UNL     1       1.380   4.876  20.318  0.00  0.00    +0.000 A 
ATOM     18  C   UNL     1       2.681   5.254  19.967  0.00  0.00    +0.000 A 
ENDBRANCH  12  13
ENDBRANCH   6  12
TORSDOF 5
ENDMDL
MODEL 3
REMARK VINA RESULT:      -6.7      0.721      1.240
REMARK  Name = 
REMARK  6 active torsions:
REMARK  status: ('A' for Active; 'I' for Inactive)
REMARK    1  A    between atoms: C_1  and  O_2
REMARK    2  A    between atoms: O_2  and  C_3
REMARK    3  A    between atoms: C_5  and  C_6
REMARK    4  A    between atoms: C_6  and  O_7
REMARK    5  A    between atoms: C_10  and  O_11
REMARK    6  A    between atoms: O_11  and  C_12
REMARK                            x       y       z     vdW  Elec       q    Type
REMARK                         _______ _______ _______ _____ _____    ______ ____
ROOT
ATOM      1  C   UNL     1       6.280   4.979  18.388  0.00  0.00    +0.000 A 
ATOM      2  C   UNL     1       6.951   4.749  17.177  0.00  0.00    +0.000 A 
ATOM      3  C   UNL     1       6.260   4.672  15.957  0.00  0.00    +0.000 A 
ATOM      4  C   UNL     1       4.866   4.759  15.966  0.00  0.00    +0.000 A 
ATOM      5  C   UNL     1       4.184   4.934  17.173  0.00  0.00    +0.000 A 
ATOM      6  C   UNL     1       4.880   5.037  18.387  0.00  0.00    +0.000 A 
ENDROOT
BRANCH   1   8
ATOM      7  C   UNL     1       8.186   5.837  19.489  0.00  0.00    +0.000 C 
ATOM      8  O   UNL     1       6.940   5.154  19.574  0.00  0.00    +0.000 OA
ENDBRANCH   1   8
BRANCH   3   9
ATOM      9  C   UNL     1       7.033   4.530  14.674  0.00  0.00    +0.000 C 
BRANCH   9  10
ATOM     10  O   UNL     1       7.925   5.628  14.520  0.00  0.00    +0.000 OA
ATOM     11  H   UNL     1       8.441   5.690  15.343  0.00  0.00    +0.000 HD
ENDBRANCH   9  10
ENDBRANCH   3   9
BRANCH   6  12
ATOM     12  O   UNL     1       4.098   5.403  19.460  0.00  0.00    +0.000 OA
BRANCH  12  13
ATOM     13  C   UNL     1       3.086   4.610  19.936  0.00  0.00    +0.000 A 
ATOM     14  C   UNL     1       3.519   3.458  20.610  0.00  0.00    +0.000 A 
ATOM     15  C   UNL     1       2.604   2.578  21.187  0.00  0.00    +0.000 A 
ATOM     16  C   UNL     1       1.241   2.843  21.093  0.00  0.00    +0.000 A 
ATOM     17  C   UNL     1       0.800   3.992  20.436  0.00  0.00    +0.000 A 
ATOM     18  C   UNL     1       1.718   4.886  19.871  0.00  0.00    +0.000 A 
ENDBRANCH  12  13
ENDBRANCH   6  12
TORSDOF 5
ENDMDL
MODEL 4
REMARK VINA RESULT:      -6.5      1.982      3.215
REMARK  Name = 
REMARK  6 active torsions:
REMARK  status: ('A' for Active; 'I' for Inactive)
REMARK    1  A    between atoms: C_1  and  O_2
REMARK    2  A    between atoms: O_2  and  C_3
REMARK    3  A    between atoms: C_5  and  C_6
REMARK    4  A    between atoms: C_6  and  O_7
REMARK    5  A    between atoms: C_10  and  O_11
REMARK    6  A    between atoms: O_11  and  C_12
REMARK                            x       y       z     vdW  Elec       q    Type
REMARK                         _______ _______ _______ _____ _____    ______ ____
ROOT
ATOM      1  C   UNL     1       5.949   5.271  16.370  0.00  0.00    +0.000 A 
ATOM      2  C   UNL     1       6.819   6.304  16.750  0.00  0.00    +0.000 A 
ATOM      3  C   UNL     1       7.250   6.451  18.078  0.00  0.00    +0.000 A 
ATOM      4  C   UNL     1       6.743   5.586  19.050  0.00  0.00    +0.000 A 
ATOM      5  C   UNL     1       5.834   4.587  18.692  0.00  0.00    +0.000 A 
ATOM      6  C   UNL     1       5.426   4.427  17.360  0.00  0.00    +0.000 A 
ENDROOT
BRANCH   1   8
ATOM      7  C   UNL     1       6.624   4.547  14.226  0.00  0.00    +0.000 C 
ATOM      8  O   UNL     1       5.592   5.049  15.068  0.00  0.00    +0.000 OA
ENDBRANCH   1   8
BRANCH   3   9
ATOM      9  C   UNL     1       8.266   7.508  18.417  0.00  0.00    +0.000 C 
BRANCH   9  10
ATOM     10  O   UNL     1       7.942   8.724  17.752  0.00  0.00    +0.000 OA
ATOM     11  H   UNL     1       8.347   8.679  16.869  0.00  0.00    +0.000 HD
ENDBRANCH   9  10
ENDBRANCH   3   9
BRANCH   6  12
ATOM     12  O   UNL     1       4.688   3.289  17.125  0.00  0.00    +0.000 OA
BRANCH  12  13
ATOM     13  C   UNL     1       3.495   3.043  17.754  0.00  0.00    +0.000 A 
ATOM     14  C   UNL     1       2.507   4.011  17.523  0.00  0.00    +0.000 A 
ATOM     15  C   UNL     1       1.228   3.874  18.063  0.00  0.00    +0.000 A 
ATOM     16  C   UNL     1       0.926   2.762  18.844  0.00  0.00    +0.000 A 
ATOM     17  C   UNL     1       1.898   1.786  19.069  0.00  0.00    +0.000 A 
ATOM     18  C   UNL     1       3.177   1.914  18.513  0.00  0.00    +0.000 A 
ENDBRANCH  12  13
ENDBRANCH   6  12
TORSDOF 5
ENDMDL
MODEL 5
REMARK VINA RESULT:      -6.5      2.079      5.934
REMARK  Name = 
REMARK  6 active torsions:
REMARK  status: ('A' for Active; 'I' for Inactive)
REMARK    1  A    between atoms: C_1  and  O_2
REMARK    2  A    between atoms: O_2  and  C_3
REMARK    3  A    between atoms: C_5  and  C_6
REMARK    4  A    between atoms: C_6  and  O_7
REMARK    5  A    between atoms: C_10  and  O_11
REMARK    6  A    between atoms: O_11  and  C_12
REMARK                            x       y       z     vdW  Elec       q    Type
REMARK                         _______ _______ _______ _____ _____    ______ ____
ROOT
ATOM      1  C   UNL     1       2.768   5.174  18.414  0.00  0.00    +0.000 A 
ATOM      2  C   UNL     1       1.914   4.604  19.370  0.00  0.00    +0.000 A 
ATOM      3  C   UNL     1       2.105   3.293  19.837  0.00  0.00    +0.000 A 
ATOM      4  C   UNL     1       3.129   2.523  19.281  0.00  0.00    +0.000 A 
ATOM      5  C   UNL     1       3.952   3.064  18.289  0.00  0.00    +0.000 A 
ATOM      6  C   UNL     1       3.774   4.382  17.845  0.00  0.00    +0.000 A 
ENDROOT
BRANCH   1   8
ATOM      7  C   UNL     1       2.440   7.423  19.058  0.00  0.00    +0.000 C 
ATOM      8  O   UNL     1       2.661   6.479  18.015  0.00  0.00    +0.000 OA
ENDBRANCH   1   8
BRANCH   3   9
ATOM      9  C   UNL     1       1.230   2.762  20.939  0.00  0.00    +0.000 C 
BRANCH   9  10
ATOM     10  O   UNL     1       1.894   2.890  22.191  0.00  0.00    +0.000 OA
ATOM     11  H   UNL     1       2.181   3.817  22.266  0.00  0.00    +0.000 HD
ENDBRANCH   9  10
ENDBRANCH   3   9
BRANCH   6  12
ATOM     12  O   UNL     1       4.773   4.840  17.014  0.00  0.00    +0.000 OA
BRANCH  12  13
ATOM     13  C   UNL     1       5.875   5.505  17.487  0.00  0.00    +0.000 A 
ATOM     14  C   UNL     1       6.055   6.787  16.947  0.00  0.00    +0.000 A 
ATOM     15  C   UNL     1       7.109   7.600  17.364  0.00  0.00    +0.000 A 
ATOM     16  C   UNL     1       7.996   7.134  18.329  0.00  0.00    +0.000 A 
ATOM     17  C   UNL     1       7.819   5.865  18.883  0.00  0.00    +0.000 A 
ATOM     18  C   UNL     1       6.751   5.055  18.478  0.00  0.00    +0.000 A 
ENDBRANCH  12  13
ENDBRANCH   6  12
TORSDOF 5
ENDMDL
MODEL 6
REMARK VINA RESULT:      -6.5      1.233      1.294
REMARK  Name = 
REMARK  6 active torsions:
REMARK  status: ('A' for Active; 'I' for Inactive)
REMARK    1  A    between atoms: C_1  and  O_2
REMARK    2  A    between atoms: O_2  and  C_3
REMARK    3  A    between atoms: C_5  and  C_6
REMARK    4  A    between atoms: C_6  and  O_7
REMARK    5  A    between atoms: C_10  and  O_11
REMARK    6  A    between atoms: O_11  and  C_12
REMARK                            x       y       z     vdW  Elec       q    Type
REMARK                         _______ _______ _______ _____ _____    ______ ____
ROOT
ATOM      1  C   UNL     1       6.950   4.931  17.018  0.00  0.00    +0.000 A 
ATOM      2  C   UNL     1       7.548   4.970  15.749  0.00  0.00    +0.000 A 
ATOM      3  C   UNL     1       6.797   4.779  14.577  0.00  0.00    +0.000 A 
ATOM      4  C   UNL     1       5.439   4.475  14.690  0.00  0.00    +0.000 A 
ATOM      5  C   UNL     1       4.846   4.381  15.952  0.00  0.00    +0.000 A 
ATOM      6  C   UNL     1       5.593   4.599  17.118  0.00  0.00    +0.000 A 
ENDROOT
BRANCH   1   8
ATOM      7  C   UNL     1       7.822   6.592  18.453  0.00  0.00    +0.000 C 
ATOM      8  O   UNL     1       7.641   5.210  18.166  0.00  0.00    +0.000 OA
ENDBRANCH   1   8
BRANCH   3   9
ATOM      9  C   UNL     1       7.461   4.935  13.236  0.00  0.00    +0.000 C 
BRANCH   9  10
ATOM     10  O   UNL     1       8.555   5.840  13.338  0.00  0.00    +0.000 OA
ATOM     11  H   UNL     1       9.001   5.842  12.473  0.00  0.00    +0.000 HD
ENDBRANCH   9  10
ENDBRANCH   3   9
BRANCH   6  12
ATOM     12  O   UNL     1       4.841   4.667  18.270  0.00  0.00    +0.000 OA
BRANCH  12  13
ATOM     13  C   UNL     1       3.742   3.873  18.478  0.00  0.00    +0.000 A 
ATOM     14  C   UNL     1       2.515   4.545  18.386  0.00  0.00    +0.000 A 
ATOM     15  C   UNL     1       1.308   3.861  18.532  0.00  0.00    +0.000 A 
ATOM     16  C   UNL     1       1.321   2.491  18.774  0.00  0.00    +0.000 A 
ATOM     17  C   UNL     1       2.536   1.809  18.855  0.00  0.00    +0.000 A 
ATOM     18  C   UNL     1       3.747   2.492  18.691  0.00  0.00    +0.000 A 
ENDBRANCH  12  13
ENDBRANCH   6  12
TORSDOF 5
ENDMDL
MODEL 7
REMARK VINA RESULT:      -6.4      1.767      3.527
REMARK  Name = 
REMARK  6 active torsions:
REMARK  status: ('A' for Active; 'I' for Inactive)
REMARK    1  A    between atoms: C_1  and  O_2
REMARK    2  A    between atoms: O_2  and  C_3
REMARK    3  A    between atoms: C_5  and  C_6
REMARK    4  A    between atoms: C_6  and  O_7
REMARK    5  A    between atoms: C_10  and  O_11
REMARK    6  A    between atoms: O_11  and  C_12
REMARK                            x       y       z     vdW  Elec       q    Type
REMARK                         _______ _______ _______ _____ _____    ______ ____
ROOT
ATOM      1  C   UNL     1       6.120   4.377  16.667  0.00  0.00    +0.000 A 
ATOM      2  C   UNL     1       7.257   4.774  17.387  0.00  0.00    +0.000 A 
ATOM      3  C   UNL     1       7.153   5.358  18.660  0.00  0.00    +0.000 A 
ATOM      4  C   UNL     1       5.883   5.611  19.183  0.00  0.00    +0.000 A 
ATOM      5  C   UNL     1       4.744   5.269  18.450  0.00  0.00    +0.000 A 
ATOM      6  C   UNL     1       4.851   4.660  17.191  0.00  0.00    +0.000 A 
ENDROOT
BRANCH   1   8
ATOM      7  C   UNL     1       6.621   4.507  14.362  0.00  0.00    +0.000 C 
ATOM      8  O   UNL     1       6.199   3.718  15.470  0.00  0.00    +0.000 OA
ENDBRANCH   1   8
BRANCH   3   9
ATOM      9  C   UNL     1       8.402   5.669  19.439  0.00  0.00    +0.000 C 
BRANCH   9  10
ATOM     10  O   UNL     1       8.189   5.412  20.822  0.00  0.00    +0.000 OA
ATOM     11  H   UNL     1       8.319   4.456  20.955  0.00  0.00    +0.000 HD
ENDBRANCH   9  10
ENDBRANCH   3   9
BRANCH   6  12
ATOM     12  O   UNL     1       3.658   4.204  16.677  0.00  0.00    +0.000 OA
BRANCH  12  13
ATOM     13  C   UNL     1       2.722   3.564  17.448  0.00  0.00    +0.000 A 
ATOM     14  C   UNL     1       3.133   2.318  17.944  0.00  0.00    +0.000 A 
ATOM     15  C   UNL     1       2.304   1.569  18.779  0.00  0.00    +0.000 A 
ATOM     16  C   UNL     1       1.051   2.062  19.125  0.00  0.00    +0.000 A 
ATOM     17  C   UNL     1       0.637   3.306  18.648  0.00  0.00    +0.000 A 
ATOM     18  C   UNL     1       1.475   4.068  17.824  0.00  0.00    +0.000 A 
ENDBRANCH  12  13
ENDBRANCH   6  12
TORSDOF 5
ENDMDL
MODEL 8
REMARK VINA RESULT:      -6.4      1.980      3.378
REMARK  Name = 
REMARK  6 active torsions:
REMARK  status: ('A' for Active; 'I' for Inactive)
REMARK    1  A    between atoms: C_1  and  O_2
REMARK    2  A    between atoms: O_2  and  C_3
REMARK    3  A    between atoms: C_5  and  C_6
REMARK    4  A    between atoms: C_6  and  O_7
REMARK    5  A    between atoms: C_10  and  O_11
REMARK    6  A    between atoms: O_11  and  C_12
REMARK                            x       y       z     vdW  Elec       q    Type
REMARK                         _______ _______ _______ _____ _____    ______ ____
ROOT
ATOM      1  C   UNL     1       5.912   5.243  16.357  0.00  0.00    +0.000 A 
ATOM      2  C   UNL     1       6.805   6.257  16.736  0.00  0.00    +0.000 A 
ATOM      3  C   UNL     1       7.219   6.412  18.069  0.00  0.00    +0.000 A 
ATOM      4  C   UNL     1       6.671   5.576  19.045  0.00  0.00    +0.000 A 
ATOM      5  C   UNL     1       5.740   4.598  18.686  0.00  0.00    +0.000 A 
ATOM      6  C   UNL     1       5.349   4.429  17.350  0.00  0.00    +0.000 A 
ENDROOT
BRANCH   1   8
ATOM      7  C   UNL     1       6.623   4.545  14.215  0.00  0.00    +0.000 C 
ATOM      8  O   UNL     1       5.570   5.012  15.052  0.00  0.00    +0.000 OA
ENDBRANCH   1   8
BRANCH   3   9
ATOM      9  C   UNL     1       8.258   7.445  18.410  0.00  0.00    +0.000 C 
BRANCH   9  10
ATOM     10  O   UNL     1       7.936   8.683  17.785  0.00  0.00    +0.000 OA
ATOM     11  H   UNL     1       7.200   8.507  17.172  0.00  0.00    +0.000 HD
ENDBRANCH   9  10
ENDBRANCH   3   9
BRANCH   6  12
ATOM     12  O   UNL     1       4.583   3.309  17.119  0.00  0.00    +0.000 OA
BRANCH  12  13
ATOM     13  C   UNL     1       3.331   3.151  17.657  0.00  0.00    +0.000 A 
ATOM     14  C   UNL     1       3.157   1.964  18.382  0.00  0.00    +0.000 A 
ATOM     15  C   UNL     1       1.950   1.684  19.023  0.00  0.00    +0.000 A 
ATOM     16  C   UNL     1       0.902   2.595  18.942  0.00  0.00    +0.000 A 
ATOM     17  C   UNL     1       1.068   3.786  18.233  0.00  0.00    +0.000 A 
ATOM     18  C   UNL     1       2.285   4.076  17.604  0.00  0.00    +0.000 A 
ENDBRANCH  12  13
ENDBRANCH   6  12
TORSDOF 5
ENDMDL
MODEL 9
REMARK VINA RESULT:      -6.4      1.884      3.162
REMARK  Name = 
REMARK  6 active torsions:
REMARK  status: ('A' for Active; 'I' for Inactive)
REMARK    1  A    between atoms: C_1  and  O_2
REMARK    2  A    between atoms: O_2  and  C_3
REMARK    3  A    between atoms: C_5  and  C_6
REMARK    4  A    between atoms: C_6  and  O_7
REMARK    5  A    between atoms: C_10  and  O_11
REMARK    6  A    between atoms: O_11  and  C_12
REMARK                            x       y       z     vdW  Elec       q    Type
REMARK                         _______ _______ _______ _____ _____    ______ ____
ROOT
ATOM      1  C   UNL     1       5.945   4.724  16.147  0.00  0.00    +0.000 A 
ATOM      2  C   UNL     1       6.913   5.705  16.414  0.00  0.00    +0.000 A 
ATOM      3  C   UNL     1       6.645   6.789  17.265  0.00  0.00    +0.000 A 
ATOM      4  C   UNL     1       5.361   6.925  17.798  0.00  0.00    +0.000 A 
ATOM      5  C   UNL     1       4.374   5.984  17.495  0.00  0.00    +0.000 A 
ATOM      6  C   UNL     1       4.653   4.887  16.667  0.00  0.00    +0.000 A 
ENDROOT
BRANCH   1   8
ATOM      7  C   UNL     1       6.259   3.810  13.992  0.00  0.00    +0.000 C 
ATOM      8  O   UNL     1       6.212   3.609  15.401  0.00  0.00    +0.000 OA
ENDBRANCH   1   8
BRANCH   3   9
ATOM      9  C   UNL     1       7.746   7.756  17.605  0.00  0.00    +0.000 C 
BRANCH   9  10
ATOM     10  O   UNL     1       8.408   7.340  18.794  0.00  0.00    +0.000 OA
ATOM     11  H   UNL     1       7.716   7.142  19.449  0.00  0.00    +0.000 HD
ENDBRANCH   9  10
ENDBRANCH   3   9
BRANCH   6  12
ATOM     12  O   UNL     1       3.651   3.944  16.616  0.00  0.00    +0.000 OA
BRANCH  12  13
ATOM     13  C   UNL     1       2.959   3.547  17.731  0.00  0.00    +0.000 A 
ATOM     14  C   UNL     1       3.733   2.870  18.684  0.00  0.00    +0.000 A 
ATOM     15  C   UNL     1       3.175   2.443  19.890  0.00  0.00    +0.000 A 
ATOM     16  C   UNL     1       1.831   2.689  20.151  0.00  0.00    +0.000 A 
ATOM     17  C   UNL     1       1.055   3.374  19.215  0.00  0.00    +0.000 A 
ATOM     18  C   UNL     1       1.617   3.819  18.013  0.00  0.00    +0.000 A 
ENDBRANCH  12  13
ENDBRANCH   6  12
TORSDOF 5
ENDMDL
