MODEL 1
REMARK VINA RESULT:      -8.3      0.000      0.000
REMARK  Name = 
REMARK  10 active torsions:
REMARK  status: ('A' for Active; 'I' for Inactive)
REMARK    1  A    between atoms: C_1  and  C_2
REMARK    2  A    between atoms: C_4  and  C_5
REMARK    3  A    between atoms: C_13  and  N_14
REMARK    4  A    between atoms: C_15  and  C_17
REMARK    5  A    between atoms: C_17  and  N_18
REMARK    6  A    between atoms: C_19  and  O_21
REMARK    7  A    between atoms: O_21  and  C_22
REMARK    8  A    between atoms: C_22  and  C_23
REMARK    9  A    between atoms: C_22  and  C_24
REMARK   10  A    between atoms: C_22  and  C_25
REMARK                            x       y       z     vdW  Elec       q    Type
REMARK                         _______ _______ _______ _____ _____    ______ ____
ROOT
ATOM      1  C   UNL     1      -1.547  12.156  22.431  0.00  0.00    +0.000 C 
ATOM      2  O   UNL     1      -1.195  11.567  23.448  0.00  0.00    +0.000 OA
ATOM      3  N   UNL     1      -1.159  11.793  21.152  0.00  0.00    +0.000 N 
ATOM      4  C   UNL     1      -0.348  10.732  20.755  0.00  0.00    +0.000 A 
ATOM      5  N   UNL     1       0.076  10.624  19.514  0.00  0.00    +0.000 NA
ATOM      6  C   UNL     1       0.885   9.495  19.358  0.00  0.00    +0.000 A 
ATOM      7  C   UNL     1       1.548   9.092  18.181  0.00  0.00    +0.000 A 
ATOM      8  C   UNL     1       2.351   7.928  18.155  0.00  0.00    +0.000 A 
ATOM      9  C   UNL     1       2.512   7.116  19.279  0.00  0.00    +0.000 A 
ATOM     10  C   UNL     1       1.832   7.500  20.461  0.00  0.00    +0.000 A 
ATOM     11  C   UNL     1       1.041   8.695  20.490  0.00  0.00    +0.000 A 
ATOM     12  S   UNL     1       0.144   9.451  21.783  0.00  0.00    +0.000 S 
ATOM     13  H   UNL     1      -1.423  12.396  20.383  0.00  0.00    +0.000 HD
ENDROOT
BRANCH   1  17
ATOM     14  C   UNL     1      -5.447  15.141  21.360  0.00  0.00    +0.000 C 
ATOM     15  C   UNL     1      -4.194  14.699  22.043  0.00  0.00    +0.000 A 
ATOM     16  N   UNL     1      -3.541  13.517  21.762  0.00  0.00    +0.000 N 
ATOM     17  C   UNL     1      -2.404  13.352  22.559  0.00  0.00    +0.000 A 
ATOM     18  C   UNL     1      -2.349  14.494  23.349  0.00  0.00    +0.000 A 
ATOM     19 CL   UNL     1      -1.168  14.893  24.514  0.00  0.00    +0.000 Cl
ATOM     20  C   UNL     1      -3.461  15.326  23.027  0.00  0.00    +0.000 A 
ATOM     21 CL   UNL     1      -3.832  16.839  23.726  0.00  0.00    +0.000 Cl
ATOM     22  H   UNL     1      -3.829  12.836  21.067  0.00  0.00    +0.000 HD
ENDBRANCH   1  17
BRANCH   9  23
ATOM     23  N   UNL     1       3.333   5.930  19.291  0.00  0.00    +0.000 N 
ATOM     24  C   UNL     1       2.933   4.621  19.553  0.00  0.00    +0.000 C 
ATOM     25  O   UNL     1       1.799   4.301  19.919  0.00  0.00    +0.000 OA
ATOM     26  H   UNL     1       4.332   6.060  19.135  0.00  0.00    +0.000 HD
BRANCH  24  27
ATOM     27  C   UNL     1       4.028   3.501  19.546  0.00  0.00    +0.000 C 
BRANCH  27  28
ATOM     28  N   UNL     1       4.905   3.280  18.401  0.00  0.00    +0.000 N 
ATOM     29  C   UNL     1       4.458   3.525  17.140  0.00  0.00    +0.000 C 
ATOM     30  O   UNL     1       3.271   3.668  16.896  0.00  0.00    +0.000 OA
ATOM     31  H   UNL     1       5.901   3.406  18.524  0.00  0.00    +0.000 HD
BRANCH  29  32
ATOM     32  O   UNL     1       5.469   3.532  16.228  0.00  0.00    +0.000 OA
BRANCH  32  33
ATOM     33  C   UNL     1       6.275   4.743  16.085  0.00  0.00    +0.000 C 
ATOM     34  C   UNL     1       7.458   4.756  17.063  0.00  0.00    +0.000 C 
ATOM     35  C   UNL     1       6.852   4.759  14.655  0.00  0.00    +0.000 C 
ATOM     36  C   UNL     1       5.398   5.995  16.231  0.00  0.00    +0.000 C 
ENDBRANCH  32  33
ENDBRANCH  29  32
ENDBRANCH  27  28
ENDBRANCH  24  27
ENDBRANCH   9  23
TORSDOF 6
ENDMDL
MODEL 2
REMARK VINA RESULT:      -8.2      1.488      1.846
REMARK  Name = 
REMARK  10 active torsions:
REMARK  status: ('A' for Active; 'I' for Inactive)
REMARK    1  A    between atoms: C_1  and  C_2
REMARK    2  A    between atoms: C_4  and  C_5
REMARK    3  A    between atoms: C_13  and  N_14
REMARK    4  A    between atoms: C_15  and  C_17
REMARK    5  A    between atoms: C_17  and  N_18
REMARK    6  A    between atoms: C_19  and  O_21
REMARK    7  A    between atoms: O_21  and  C_22
REMARK    8  A    between atoms: C_22  and  C_23
REMARK    9  A    between atoms: C_22  and  C_24
REMARK   10  A    between atoms: C_22  and  C_25
REMARK                            x       y       z     vdW  Elec       q    Type
REMARK                         _______ _______ _______ _____ _____    ______ ____
ROOT
ATOM      1  C   UNL     1      -1.210  11.114  22.726  0.00  0.00    +0.000 C 
ATOM      2  O   UNL     1      -0.861  10.291  23.566  0.00  0.00    +0.000 OA
ATOM      3  N   UNL     1      -0.799  11.095  21.403  0.00  0.00    +0.000 N 
ATOM      4  C   UNL     1       0.036  10.181  20.763  0.00  0.00    +0.000 A 
ATOM      5  N   UNL     1       0.478  10.399  19.544  0.00  0.00    +0.000 NA
ATOM      6  C   UNL     1       1.308   9.357  19.119  0.00  0.00    +0.000 A 
ATOM      7  C   UNL     1       1.993   9.277  17.889  0.00  0.00    +0.000 A 
ATOM      8  C   UNL     1       2.816   8.169  17.581  0.00  0.00    +0.000 A 
ATOM      9  C   UNL     1       2.977   7.099  18.464  0.00  0.00    +0.000 A 
ATOM     10  C   UNL     1       2.275   7.160  19.694  0.00  0.00    +0.000 A 
ATOM     11  C   UNL     1       1.463   8.298  20.013  0.00  0.00    +0.000 A 
ATOM     12  S   UNL     1       0.537   8.687  21.439  0.00  0.00    +0.000 S 
ATOM     13  H   UNL     1      -1.063  11.870  20.809  0.00  0.00    +0.000 HD
ENDROOT
BRANCH   1  17
ATOM     14  C   UNL     1      -5.498  13.249  24.252  0.00  0.00    +0.000 C 
ATOM     15  C   UNL     1      -4.066  13.175  23.832  0.00  0.00    +0.000 A 
ATOM     16  N   UNL     1      -3.428  12.005  23.476  0.00  0.00    +0.000 N 
ATOM     17  C   UNL     1      -2.089  12.227  23.140  0.00  0.00    +0.000 A 
ATOM     18  C   UNL     1      -1.905  13.597  23.279  0.00  0.00    +0.000 A 
ATOM     19 CL   UNL     1      -0.479  14.487  22.984  0.00  0.00    +0.000 Cl
ATOM     20  C   UNL     1      -3.133  14.182  23.709  0.00  0.00    +0.000 A 
ATOM     21 CL   UNL     1      -3.415  15.836  24.018  0.00  0.00    +0.000 Cl
ATOM     22  H   UNL     1      -3.856  11.086  23.452  0.00  0.00    +0.000 HD
ENDBRANCH   1  17
BRANCH   9  23
ATOM     23  N   UNL     1       3.819   5.961  18.188  0.00  0.00    +0.000 N 
ATOM     24  C   UNL     1       4.117   4.898  19.038  0.00  0.00    +0.000 C 
ATOM     25  O   UNL     1       3.765   4.831  20.219  0.00  0.00    +0.000 OA
ATOM     26  H   UNL     1       4.293   5.947  17.286  0.00  0.00    +0.000 HD
BRANCH  24  27
ATOM     27  C   UNL     1       5.098   3.792  18.518  0.00  0.00    +0.000 C 
BRANCH  27  28
ATOM     28  N   UNL     1       5.534   3.733  17.128  0.00  0.00    +0.000 N 
ATOM     29  C   UNL     1       6.695   4.330  16.750  0.00  0.00    +0.000 C 
ATOM     30  O   UNL     1       7.263   5.140  17.463  0.00  0.00    +0.000 OA
ATOM     31  H   UNL     1       5.278   2.925  16.575  0.00  0.00    +0.000 HD
BRANCH  29  32
ATOM     32  O   UNL     1       7.085   3.952  15.500  0.00  0.00    +0.000 OA
BRANCH  32  33
ATOM     33  C   UNL     1       6.531   4.660  14.349  0.00  0.00    +0.000 C 
ATOM     34  C   UNL     1       5.518   5.732  14.775  0.00  0.00    +0.000 C 
ATOM     35  C   UNL     1       7.693   5.376  13.631  0.00  0.00    +0.000 C 
ATOM     36  C   UNL     1       5.925   3.668  13.345  0.00  0.00    +0.000 C 
ENDBRANCH  32  33
ENDBRANCH  29  32
ENDBRANCH  27  28
ENDBRANCH  24  27
ENDBRANCH   9  23
TORSDOF 6
ENDMDL
MODEL 3
REMARK VINA RESULT:      -8.1      1.060      1.261
REMARK  Name = 
REMARK  10 active torsions:
REMARK  status: ('A' for Active; 'I' for Inactive)
REMARK    1  A    between atoms: C_1  and  C_2
REMARK    2  A    between atoms: C_4  and  C_5
REMARK    3  A    between atoms: C_13  and  N_14
REMARK    4  A    between atoms: C_15  and  C_17
REMARK    5  A    between atoms: C_17  and  N_18
REMARK    6  A    between atoms: C_19  and  O_21
REMARK    7  A    between atoms: O_21  and  C_22
REMARK    8  A    between atoms: C_22  and  C_23
REMARK    9  A    between atoms: C_22  and  C_24
REMARK   10  A    between atoms: C_22  and  C_25
REMARK                            x       y       z     vdW  Elec       q    Type
REMARK                         _______ _______ _______ _____ _____    ______ ____
ROOT
ATOM      1  C   UNL     1      -1.530  12.084  22.442  0.00  0.00    +0.000 C 
ATOM      2  O   UNL     1      -1.175  11.497  23.459  0.00  0.00    +0.000 OA
ATOM      3  N   UNL     1      -1.137  11.729  21.163  0.00  0.00    +0.000 N 
ATOM      4  C   UNL     1      -0.315  10.675  20.765  0.00  0.00    +0.000 A 
ATOM      5  N   UNL     1       0.112  10.575  19.525  0.00  0.00    +0.000 NA
ATOM      6  C   UNL     1       0.932   9.454  19.367  0.00  0.00    +0.000 A 
ATOM      7  C   UNL     1       1.600   9.060  18.189  0.00  0.00    +0.000 A 
ATOM      8  C   UNL     1       2.413   7.903  18.162  0.00  0.00    +0.000 A 
ATOM      9  C   UNL     1       2.580   7.090  19.285  0.00  0.00    +0.000 A 
ATOM     10  C   UNL     1       1.894   7.465  20.466  0.00  0.00    +0.000 A 
ATOM     11  C   UNL     1       1.092   8.653  20.497  0.00  0.00    +0.000 A 
ATOM     12  S   UNL     1       0.187   9.396  21.790  0.00  0.00    +0.000 S 
ATOM     13  H   UNL     1      -1.405  12.331  20.395  0.00  0.00    +0.000 HD
ENDROOT
BRANCH   1  17
ATOM     14  C   UNL     1      -3.148  16.723  21.372  0.00  0.00    +0.000 C 
ATOM     15  C   UNL     1      -3.111  15.399  22.064  0.00  0.00    +0.000 A 
ATOM     16  N   UNL     1      -2.192  14.409  21.783  0.00  0.00    +0.000 N 
ATOM     17  C   UNL     1      -2.398  13.273  22.572  0.00  0.00    +0.000 A 
ATOM     18  C   UNL     1      -3.480  13.589  23.384  0.00  0.00    +0.000 A 
ATOM     19 CL   UNL     1      -4.196  12.611  24.585  0.00  0.00    +0.000 Cl
ATOM     20  C   UNL     1      -3.920  14.908  23.066  0.00  0.00    +0.000 A 
ATOM     21 CL   UNL     1      -5.218  15.747  23.791  0.00  0.00    +0.000 Cl
ATOM     22  H   UNL     1      -1.449  14.475  21.096  0.00  0.00    +0.000 HD
ENDBRANCH   1  17
BRANCH   9  23
ATOM     23  N   UNL     1       3.413   5.912  19.294  0.00  0.00    +0.000 N 
ATOM     24  C   UNL     1       3.002   4.582  19.363  0.00  0.00    +0.000 C 
ATOM     25  O   UNL     1       1.833   4.222  19.527  0.00  0.00    +0.000 OA
ATOM     26  H   UNL     1       4.421   6.061  19.298  0.00  0.00    +0.000 HD
BRANCH  24  27
ATOM     27  C   UNL     1       4.106   3.471  19.400  0.00  0.00    +0.000 C 
BRANCH  27  28
ATOM     28  N   UNL     1       5.068   3.296  18.316  0.00  0.00    +0.000 N 
ATOM     29  C   UNL     1       4.718   3.597  17.038  0.00  0.00    +0.000 C 
ATOM     30  O   UNL     1       3.554   3.757  16.710  0.00  0.00    +0.000 OA
ATOM     31  H   UNL     1       6.052   3.411  18.521  0.00  0.00    +0.000 HD
BRANCH  29  32
ATOM     32  O   UNL     1       5.796   3.639  16.206  0.00  0.00    +0.000 OA
BRANCH  32  33
ATOM     33  C   UNL     1       5.868   4.701  15.205  0.00  0.00    +0.000 C 
ATOM     34  C   UNL     1       5.243   6.007  15.716  0.00  0.00    +0.000 C 
ATOM     35  C   UNL     1       7.357   4.979  14.918  0.00  0.00    +0.000 C 
ATOM     36  C   UNL     1       5.233   4.242  13.884  0.00  0.00    +0.000 C 
ENDBRANCH  32  33
ENDBRANCH  29  32
ENDBRANCH  27  28
ENDBRANCH  24  27
ENDBRANCH   9  23
TORSDOF 6
ENDMDL
MODEL 4
REMARK VINA RESULT:      -7.9      1.109      1.406
REMARK  Name = 
REMARK  10 active torsions:
REMARK  status: ('A' for Active; 'I' for Inactive)
REMARK    1  A    between atoms: C_1  and  C_2
REMARK    2  A    between atoms: C_4  and  C_5
REMARK    3  A    between atoms: C_13  and  N_14
REMARK    4  A    between atoms: C_15  and  C_17
REMARK    5  A    between atoms: C_17  and  N_18
REMARK    6  A    between atoms: C_19  and  O_21
REMARK    7  A    between atoms: O_21  and  C_22
REMARK    8  A    between atoms: C_22  and  C_23
REMARK    9  A    between atoms: C_22  and  C_24
REMARK   10  A    between atoms: C_22  and  C_25
REMARK                            x       y       z     vdW  Elec       q    Type
REMARK                         _______ _______ _______ _____ _____    ______ ____
ROOT
ATOM      1  C   UNL     1      -1.485  12.715  22.298  0.00  0.00    +0.000 C 
ATOM      2  O   UNL     1      -1.156  12.151  23.337  0.00  0.00    +0.000 OA
ATOM      3  N   UNL     1      -1.116  12.288  21.034  0.00  0.00    +0.000 N 
ATOM      4  C   UNL     1      -0.351  11.178  20.677  0.00  0.00    +0.000 A 
ATOM      5  N   UNL     1       0.065  11.006  19.441  0.00  0.00    +0.000 NA
ATOM      6  C   UNL     1       0.825   9.838  19.327  0.00  0.00    +0.000 A 
ATOM      7  C   UNL     1       1.467   9.362  18.166  0.00  0.00    +0.000 A 
ATOM      8  C   UNL     1       2.219   8.165  18.183  0.00  0.00    +0.000 A 
ATOM      9  C   UNL     1       2.348   7.390  19.338  0.00  0.00    +0.000 A 
ATOM     10  C   UNL     1       1.688   7.848  20.505  0.00  0.00    +0.000 A 
ATOM     11  C   UNL     1       0.949   9.076  20.489  0.00  0.00    +0.000 A 
ATOM     12  S   UNL     1       0.088   9.917  21.752  0.00  0.00    +0.000 S 
ATOM     13  H   UNL     1      -1.355  12.871  20.243  0.00  0.00    +0.000 HD
ENDROOT
BRANCH   1  17
ATOM     14  C   UNL     1      -5.170  15.684  23.994  0.00  0.00    +0.000 C 
ATOM     15  C   UNL     1      -3.989  15.283  23.172  0.00  0.00    +0.000 A 
ATOM     16  N   UNL     1      -3.379  14.048  23.254  0.00  0.00    +0.000 N 
ATOM     17  C   UNL     1      -2.290  13.951  22.381  0.00  0.00    +0.000 A 
ATOM     18  C   UNL     1      -2.244  15.174  21.725  0.00  0.00    +0.000 A 
ATOM     19 CL   UNL     1      -1.144  15.660  20.514  0.00  0.00    +0.000 Cl
ATOM     20  C   UNL     1      -3.297  15.998  22.218  0.00  0.00    +0.000 A 
ATOM     21 CL   UNL     1      -3.657  17.591  21.723  0.00  0.00    +0.000 Cl
ATOM     22  H   UNL     1      -3.667  13.289  23.861  0.00  0.00    +0.000 HD
ENDBRANCH   1  17
BRANCH   9  23
ATOM     23  N   UNL     1       3.119   6.172  19.394  0.00  0.00    +0.000 N 
ATOM     24  C   UNL     1       2.640   4.867  19.497  0.00  0.00    +0.000 C 
ATOM     25  O   UNL     1       1.452   4.573  19.657  0.00  0.00    +0.000 OA
ATOM     26  H   UNL     1       4.133   6.269  19.406  0.00  0.00    +0.000 HD
BRANCH  24  27
ATOM     27  C   UNL     1       3.685   3.704  19.582  0.00  0.00    +0.000 C 
BRANCH  27  28
ATOM     28  N   UNL     1       4.888   3.679  18.757  0.00  0.00    +0.000 N 
ATOM     29  C   UNL     1       4.787   3.665  17.401  0.00  0.00    +0.000 C 
ATOM     30  O   UNL     1       3.737   3.404  16.838  0.00  0.00    +0.000 OA
ATOM     31  H   UNL     1       5.726   4.124  19.110  0.00  0.00    +0.000 HD
BRANCH  29  32
ATOM     32  O   UNL     1       5.979   3.918  16.793  0.00  0.00    +0.000 OA
BRANCH  32  33
ATOM     33  C   UNL     1       6.212   5.247  16.233  0.00  0.00    +0.000 C 
ATOM     34  C   UNL     1       4.935   6.098  16.238  0.00  0.00    +0.000 C 
ATOM     35  C   UNL     1       7.250   5.959  17.123  0.00  0.00    +0.000 C 
ATOM     36  C   UNL     1       6.823   5.141  14.827  0.00  0.00    +0.000 C 
ENDBRANCH  32  33
ENDBRANCH  29  32
ENDBRANCH  27  28
ENDBRANCH  24  27
ENDBRANCH   9  23
TORSDOF 6
ENDMDL
MODEL 5
REMARK VINA RESULT:      -7.8      0.806      1.049
REMARK  Name = 
REMARK  10 active torsions:
REMARK  status: ('A' for Active; 'I' for Inactive)
REMARK    1  A    between atoms: C_1  and  C_2
REMARK    2  A    between atoms: C_4  and  C_5
REMARK    3  A    between atoms: C_13  and  N_14
REMARK    4  A    between atoms: C_15  and  C_17
REMARK    5  A    between atoms: C_17  and  N_18
REMARK    6  A    between atoms: C_19  and  O_21
REMARK    7  A    between atoms: O_21  and  C_22
REMARK    8  A    between atoms: C_22  and  C_23
REMARK    9  A    between atoms: C_22  and  C_24
REMARK   10  A    between atoms: C_22  and  C_25
REMARK                            x       y       z     vdW  Elec       q    Type
REMARK                         _______ _______ _______ _____ _____    ______ ____
ROOT
ATOM      1  C   UNL     1      -1.548  12.847  22.491  0.00  0.00    +0.000 C 
ATOM      2  O   UNL     1      -1.196  12.297  23.529  0.00  0.00    +0.000 OA
ATOM      3  N   UNL     1      -1.209  12.402  21.224  0.00  0.00    +0.000 N 
ATOM      4  C   UNL     1      -0.453  11.287  20.864  0.00  0.00    +0.000 A 
ATOM      5  N   UNL     1      -0.066  11.098  19.622  0.00  0.00    +0.000 NA
ATOM      6  C   UNL     1       0.690   9.928  19.506  0.00  0.00    +0.000 A 
ATOM      7  C   UNL     1       1.305   9.436  18.337  0.00  0.00    +0.000 A 
ATOM      8  C   UNL     1       2.057   8.239  18.353  0.00  0.00    +0.000 A 
ATOM      9  C   UNL     1       2.213   7.479  19.515  0.00  0.00    +0.000 A 
ATOM     10  C   UNL     1       1.580   7.953  20.691  0.00  0.00    +0.000 A 
ATOM     11  C   UNL     1       0.841   9.181  20.675  0.00  0.00    +0.000 A 
ATOM     12  S   UNL     1       0.010  10.041  21.946  0.00  0.00    +0.000 S 
ATOM     13  H   UNL     1      -1.466  12.975  20.431  0.00  0.00    +0.000 HD
ENDROOT
BRANCH   1  17
ATOM     14  C   UNL     1      -5.069  16.139  21.062  0.00  0.00    +0.000 C 
ATOM     15  C   UNL     1      -3.964  15.574  21.894  0.00  0.00    +0.000 A 
ATOM     16  N   UNL     1      -3.338  14.373  21.629  0.00  0.00    +0.000 N 
ATOM     17  C   UNL     1      -2.350  14.084  22.576  0.00  0.00    +0.000 A 
ATOM     18  C   UNL     1      -2.361  15.166  23.448  0.00  0.00    +0.000 A 
ATOM     19 CL   UNL     1      -1.358  15.411  24.807  0.00  0.00    +0.000 Cl
ATOM     20  C   UNL     1      -3.363  16.086  23.023  0.00  0.00    +0.000 A 
ATOM     21 CL   UNL     1      -3.759  17.570  23.769  0.00  0.00    +0.000 Cl
ATOM     22  H   UNL     1      -3.548  13.760  20.849  0.00  0.00    +0.000 HD
ENDBRANCH   1  17
BRANCH   9  23
ATOM     23  N   UNL     1       2.984   6.261  19.569  0.00  0.00    +0.000 N 
ATOM     24  C   UNL     1       2.520   4.972  19.827  0.00  0.00    +0.000 C 
ATOM     25  O   UNL     1       1.360   4.702  20.149  0.00  0.00    +0.000 OA
ATOM     26  H   UNL     1       3.992   6.349  19.453  0.00  0.00    +0.000 HD
BRANCH  24  27
ATOM     27  C   UNL     1       3.567   3.808  19.873  0.00  0.00    +0.000 C 
BRANCH  27  28
ATOM     28  N   UNL     1       4.880   3.920  19.247  0.00  0.00    +0.000 N 
ATOM     29  C   UNL     1       4.998   3.876  17.894  0.00  0.00    +0.000 C 
ATOM     30  O   UNL     1       4.089   3.481  17.182  0.00  0.00    +0.000 OA
ATOM     31  H   UNL     1       5.592   4.468  19.712  0.00  0.00    +0.000 HD
BRANCH  29  32
ATOM     32  O   UNL     1       6.233   4.264  17.471  0.00  0.00    +0.000 OA
BRANCH  32  33
ATOM     33  C   UNL     1       6.342   5.437  16.606  0.00  0.00    +0.000 C 
ATOM     34  C   UNL     1       6.732   5.052  15.173  0.00  0.00    +0.000 C 
ATOM     35  C   UNL     1       4.955   6.109  16.547  0.00  0.00    +0.000 C 
ATOM     36  C   UNL     1       7.314   6.463  17.208  0.00  0.00    +0.000 C 
ENDBRANCH  32  33
ENDBRANCH  29  32
ENDBRANCH  27  28
ENDBRANCH  24  27
ENDBRANCH   9  23
TORSDOF 6
ENDMDL
MODEL 6
REMARK VINA RESULT:      -7.8      1.798      2.495
REMARK  Name = 
REMARK  10 active torsions:
REMARK  status: ('A' for Active; 'I' for Inactive)
REMARK    1  A    between atoms: C_1  and  C_2
REMARK    2  A    between atoms: C_4  and  C_5
REMARK    3  A    between atoms: C_13  and  N_14
REMARK    4  A    between atoms: C_15  and  C_17
REMARK    5  A    between atoms: C_17  and  N_18
REMARK    6  A    between atoms: C_19  and  O_21
REMARK    7  A    between atoms: O_21  and  C_22
REMARK    8  A    between atoms: C_22  and  C_23
REMARK    9  A    between atoms: C_22  and  C_24
REMARK   10  A    between atoms: C_22  and  C_25
REMARK                            x       y       z     vdW  Elec       q    Type
REMARK                         _______ _______ _______ _____ _____    ______ ____
ROOT
ATOM      1  C   UNL     1      -0.761  10.845  22.701  0.00  0.00    +0.000 C 
ATOM      2  O   UNL     1      -0.247  10.134  23.558  0.00  0.00    +0.000 OA
ATOM      3  N   UNL     1      -0.493  10.744  21.346  0.00  0.00    +0.000 N 
ATOM      4  C   UNL     1       0.356   9.855  20.689  0.00  0.00    +0.000 A 
ATOM      5  N   UNL     1       0.644  10.002  19.414  0.00  0.00    +0.000 NA
ATOM      6  C   UNL     1       1.523   9.005  18.981  0.00  0.00    +0.000 A 
ATOM      7  C   UNL     1       2.080   8.876  17.692  0.00  0.00    +0.000 A 
ATOM      8  C   UNL     1       2.971   7.823  17.382  0.00  0.00    +0.000 A 
ATOM      9  C   UNL     1       3.328   6.855  18.322  0.00  0.00    +0.000 A 
ATOM     10  C   UNL     1       2.756   6.962  19.615  0.00  0.00    +0.000 A 
ATOM     11  C   UNL     1       1.875   8.047  19.933  0.00  0.00    +0.000 A 
ATOM     12  S   UNL     1       1.070   8.477  21.420  0.00  0.00    +0.000 S 
ATOM     13  H   UNL     1      -0.892  11.436  20.726  0.00  0.00    +0.000 HD
ENDROOT
BRANCH   1  17
ATOM     14  C   UNL     1      -5.075  12.720  24.476  0.00  0.00    +0.000 C 
ATOM     15  C   UNL     1      -3.684  12.735  23.932  0.00  0.00    +0.000 A 
ATOM     16  N   UNL     1      -2.977  11.599  23.594  0.00  0.00    +0.000 N 
ATOM     17  C   UNL     1      -1.697  11.907  23.122  0.00  0.00    +0.000 A 
ATOM     18  C   UNL     1      -1.625  13.295  23.157  0.00  0.00    +0.000 A 
ATOM     19 CL   UNL     1      -0.314  14.276  22.678  0.00  0.00    +0.000 Cl
ATOM     20  C   UNL     1      -2.857  13.804  23.660  0.00  0.00    +0.000 A 
ATOM     21 CL   UNL     1      -3.258  15.448  23.889  0.00  0.00    +0.000 Cl
ATOM     22  H   UNL     1      -3.323  10.648  23.666  0.00  0.00    +0.000 HD
ENDBRANCH   1  17
BRANCH   9  23
ATOM     23  N   UNL     1       4.244   5.776  18.043  0.00  0.00    +0.000 N 
ATOM     24  C   UNL     1       3.970   4.576  17.389  0.00  0.00    +0.000 C 
ATOM     25  O   UNL     1       2.843   4.220  17.032  0.00  0.00    +0.000 OA
ATOM     26  H   UNL     1       5.193   5.873  18.402  0.00  0.00    +0.000 HD
BRANCH  24  27
ATOM     27  C   UNL     1       5.132   3.536  17.240  0.00  0.00    +0.000 C 
BRANCH  27  28
ATOM     28  N   UNL     1       5.676   3.161  15.939  0.00  0.00    +0.000 N 
ATOM     29  C   UNL     1       6.186   4.112  15.112  0.00  0.00    +0.000 C 
ATOM     30  O   UNL     1       5.972   5.300  15.290  0.00  0.00    +0.000 OA
ATOM     31  H   UNL     1       6.096   2.246  15.837  0.00  0.00    +0.000 HD
BRANCH  29  32
ATOM     32  O   UNL     1       6.888   3.571  14.078  0.00  0.00    +0.000 OA
BRANCH  32  33
ATOM     33  C   UNL     1       6.343   3.681  12.727  0.00  0.00    +0.000 C 
ATOM     34  C   UNL     1       4.870   4.110  12.742  0.00  0.00    +0.000 C 
ATOM     35  C   UNL     1       7.139   4.773  11.984  0.00  0.00    +0.000 C 
ATOM     36  C   UNL     1       6.549   2.369  11.954  0.00  0.00    +0.000 C 
ENDBRANCH  32  33
ENDBRANCH  29  32
ENDBRANCH  27  28
ENDBRANCH  24  27
ENDBRANCH   9  23
TORSDOF 6
ENDMDL
MODEL 7
REMARK VINA RESULT:      -7.7      2.589      3.665
REMARK  Name = 
REMARK  10 active torsions:
REMARK  status: ('A' for Active; 'I' for Inactive)
REMARK    1  A    between atoms: C_1  and  C_2
REMARK    2  A    between atoms: C_4  and  C_5
REMARK    3  A    between atoms: C_13  and  N_14
REMARK    4  A    between atoms: C_15  and  C_17
REMARK    5  A    between atoms: C_17  and  N_18
REMARK    6  A    between atoms: C_19  and  O_21
REMARK    7  A    between atoms: O_21  and  C_22
REMARK    8  A    between atoms: C_22  and  C_23
REMARK    9  A    between atoms: C_22  and  C_24
REMARK   10  A    between atoms: C_22  and  C_25
REMARK                            x       y       z     vdW  Elec       q    Type
REMARK                         _______ _______ _______ _____ _____    ______ ____
ROOT
ATOM      1  C   UNL     1      -0.686  11.194  19.750  0.00  0.00    +0.000 C 
ATOM      2  O   UNL     1      -0.507  11.541  18.587  0.00  0.00    +0.000 OA
ATOM      3  N   UNL     1      -0.055  10.113  20.343  0.00  0.00    +0.000 N 
ATOM      4  C   UNL     1       0.882   9.241  19.792  0.00  0.00    +0.000 A 
ATOM      5  N   UNL     1       1.256   8.151  20.427  0.00  0.00    +0.000 NA
ATOM      6  C   UNL     1       2.187   7.428  19.675  0.00  0.00    +0.000 A 
ATOM      7  C   UNL     1       2.769   6.192  20.022  0.00  0.00    +0.000 A 
ATOM      8  C   UNL     1       3.695   5.553  19.165  0.00  0.00    +0.000 A 
ATOM      9  C   UNL     1       4.092   6.119  17.952  0.00  0.00    +0.000 A 
ATOM     10  C   UNL     1       3.530   7.373  17.605  0.00  0.00    +0.000 A 
ATOM     11  C   UNL     1       2.571   8.004  18.464  0.00  0.00    +0.000 A 
ATOM     12  S   UNL     1       1.676   9.491  18.293  0.00  0.00    +0.000 S 
ATOM     13  H   UNL     1      -0.338   9.847  21.277  0.00  0.00    +0.000 HD
ENDROOT
BRANCH   1  17
ATOM     14  C   UNL     1      -4.452  14.409  20.616  0.00  0.00    +0.000 C 
ATOM     15  C   UNL     1      -3.382  13.418  20.939  0.00  0.00    +0.000 A 
ATOM     16  N   UNL     1      -2.564  12.835  19.993  0.00  0.00    +0.000 N 
ATOM     17  C   UNL     1      -1.662  11.937  20.573  0.00  0.00    +0.000 A 
ATOM     18  C   UNL     1      -1.929  11.987  21.936  0.00  0.00    +0.000 A 
ATOM     19 CL   UNL     1      -1.137  11.129  23.180  0.00  0.00    +0.000 Cl
ATOM     20  C   UNL     1      -2.997  12.905  22.159  0.00  0.00    +0.000 A 
ATOM     21 CL   UNL     1      -3.686  13.313  23.666  0.00  0.00    +0.000 Cl
ATOM     22  H   UNL     1      -2.592  13.020  18.997  0.00  0.00    +0.000 HD
ENDBRANCH   1  17
BRANCH   9  23
ATOM     23  N   UNL     1       5.024   5.489  17.049  0.00  0.00    +0.000 N 
ATOM     24  C   UNL     1       6.413   5.599  17.048  0.00  0.00    +0.000 C 
ATOM     25  O   UNL     1       7.052   6.354  17.787  0.00  0.00    +0.000 OA
ATOM     26  H   UNL     1       4.628   4.934  16.292  0.00  0.00    +0.000 HD
BRANCH  24  27
ATOM     27  C   UNL     1       7.211   4.844  15.932  0.00  0.00    +0.000 C 
BRANCH  27  28
ATOM     28  N   UNL     1       6.638   3.727  15.189  0.00  0.00    +0.000 N 
ATOM     29  C   UNL     1       5.774   3.958  14.165  0.00  0.00    +0.000 C 
ATOM     30  O   UNL     1       5.246   5.046  14.003  0.00  0.00    +0.000 OA
ATOM     31  H   UNL     1       7.182   2.879  15.096  0.00  0.00    +0.000 HD
BRANCH  29  32
ATOM     32  O   UNL     1       5.553   2.842  13.416  0.00  0.00    +0.000 OA
BRANCH  32  33
ATOM     33  C   UNL     1       5.733   2.923  11.968  0.00  0.00    +0.000 C 
ATOM     34  C   UNL     1       4.492   3.501  11.274  0.00  0.00    +0.000 C 
ATOM     35  C   UNL     1       6.910   3.880  11.691  0.00  0.00    +0.000 C 
ATOM     36  C   UNL     1       6.123   1.552  11.395  0.00  0.00    +0.000 C 
ENDBRANCH  32  33
ENDBRANCH  29  32
ENDBRANCH  27  28
ENDBRANCH  24  27
ENDBRANCH   9  23
TORSDOF 6
ENDMDL
MODEL 8
REMARK VINA RESULT:      -7.7      4.344     12.132
REMARK  Name = 
REMARK  10 active torsions:
REMARK  status: ('A' for Active; 'I' for Inactive)
REMARK    1  A    between atoms: C_1  and  C_2
REMARK    2  A    between atoms: C_4  and  C_5
REMARK    3  A    between atoms: C_13  and  N_14
REMARK    4  A    between atoms: C_15  and  C_17
REMARK    5  A    between atoms: C_17  and  N_18
REMARK    6  A    between atoms: C_19  and  O_21
REMARK    7  A    between atoms: O_21  and  C_22
REMARK    8  A    between atoms: C_22  and  C_23
REMARK    9  A    between atoms: C_22  and  C_24
REMARK   10  A    between atoms: C_22  and  C_25
REMARK                            x       y       z     vdW  Elec       q    Type
REMARK                         _______ _______ _______ _____ _____    ______ ____
ROOT
ATOM      1  C   UNL     1       2.724   7.279  18.197  0.00  0.00    +0.000 C 
ATOM      2  O   UNL     1       2.796   8.253  17.454  0.00  0.00    +0.000 OA
ATOM      3  N   UNL     1       2.061   7.279  19.413  0.00  0.00    +0.000 N 
ATOM      4  C   UNL     1       1.353   8.315  20.021  0.00  0.00    +0.000 A 
ATOM      5  N   UNL     1       0.930   8.215  21.262  0.00  0.00    +0.000 NA
ATOM      6  C   UNL     1       0.263   9.379  21.658  0.00  0.00    +0.000 A 
ATOM      7  C   UNL     1      -0.281   9.643  22.932  0.00  0.00    +0.000 A 
ATOM      8  C   UNL     1      -0.926  10.871  23.211  0.00  0.00    +0.000 A 
ATOM      9  C   UNL     1      -1.070  11.867  22.243  0.00  0.00    +0.000 A 
ATOM     10  C   UNL     1      -0.546  11.601  20.954  0.00  0.00    +0.000 A 
ATOM     11  C   UNL     1       0.130  10.367  20.683  0.00  0.00    +0.000 A 
ATOM     12  S   UNL     1       0.917   9.778  19.241  0.00  0.00    +0.000 S 
ATOM     13  H   UNL     1       2.137   6.458  19.999  0.00  0.00    +0.000 HD
ENDROOT
BRANCH   1  17
ATOM     14  C   UNL     1       3.710   2.351  18.319  0.00  0.00    +0.000 C 
ATOM     15  C   UNL     1       3.847   3.776  17.891  0.00  0.00    +0.000 A 
ATOM     16  N   UNL     1       3.083   4.808  18.396  0.00  0.00    +0.000 N 
ATOM     17  C   UNL     1       3.415   6.033  17.809  0.00  0.00    +0.000 A 
ATOM     18  C   UNL     1       4.441   5.739  16.918  0.00  0.00    +0.000 A 
ATOM     19 CL   UNL     1       5.287   6.830  15.916  0.00  0.00    +0.000 Cl
ATOM     20  C   UNL     1       4.705   4.339  16.971  0.00  0.00    +0.000 A 
ATOM     21 CL   UNL     1       5.877   3.493  16.064  0.00  0.00    +0.000 Cl
ATOM     22  H   UNL     1       2.365   4.715  19.107  0.00  0.00    +0.000 HD
ENDBRANCH   1  17
BRANCH   9  23
ATOM     23  N   UNL     1      -1.709  13.135  22.499  0.00  0.00    +0.000 N 
ATOM     24  C   UNL     1      -1.096  14.366  22.722  0.00  0.00    +0.000 C 
ATOM     25  O   UNL     1       0.122  14.527  22.830  0.00  0.00    +0.000 OA
ATOM     26  H   UNL     1      -2.726  13.131  22.572  0.00  0.00    +0.000 HD
BRANCH  24  27
ATOM     27  C   UNL     1      -2.012  15.602  23.019  0.00  0.00    +0.000 C 
BRANCH  27  28
ATOM     28  N   UNL     1      -3.467  15.500  23.048  0.00  0.00    +0.000 N 
ATOM     29  C   UNL     1      -4.095  14.994  24.142  0.00  0.00    +0.000 C 
ATOM     30  O   UNL     1      -3.490  14.373  25.000  0.00  0.00    +0.000 OA
ATOM     31  H   UNL     1      -4.009  16.179  22.529  0.00  0.00    +0.000 HD
BRANCH  29  32
ATOM     32  O   UNL     1      -5.438  15.221  24.116  0.00  0.00    +0.000 OA
BRANCH  32  33
ATOM     33  C   UNL     1      -6.311  14.195  23.551  0.00  0.00    +0.000 C 
ATOM     34  C   UNL     1      -6.349  14.261  22.018  0.00  0.00    +0.000 C 
ATOM     35  C   UNL     1      -5.738  12.818  23.944  0.00  0.00    +0.000 C 
ATOM     36  C   UNL     1      -7.718  14.288  24.162  0.00  0.00    +0.000 C 
ENDBRANCH  32  33
ENDBRANCH  29  32
ENDBRANCH  27  28
ENDBRANCH  24  27
ENDBRANCH   9  23
TORSDOF 6
ENDMDL
MODEL 9
REMARK VINA RESULT:      -7.6      1.866      3.275
REMARK  Name = 
REMARK  10 active torsions:
REMARK  status: ('A' for Active; 'I' for Inactive)
REMARK    1  A    between atoms: C_1  and  C_2
REMARK    2  A    between atoms: C_4  and  C_5
REMARK    3  A    between atoms: C_13  and  N_14
REMARK    4  A    between atoms: C_15  and  C_17
REMARK    5  A    between atoms: C_17  and  N_18
REMARK    6  A    between atoms: C_19  and  O_21
REMARK    7  A    between atoms: O_21  and  C_22
REMARK    8  A    between atoms: C_22  and  C_23
REMARK    9  A    between atoms: C_22  and  C_24
REMARK   10  A    between atoms: C_22  and  C_25
REMARK                            x       y       z     vdW  Elec       q    Type
REMARK                         _______ _______ _______ _____ _____    ______ ____
ROOT
ATOM      1  C   UNL     1      -1.111  11.851  22.757  0.00  0.00    +0.000 C 
ATOM      2  O   UNL     1      -0.821  10.977  23.568  0.00  0.00    +0.000 OA
ATOM      3  N   UNL     1      -0.727  11.835  21.427  0.00  0.00    +0.000 N 
ATOM      4  C   UNL     1       0.014  10.870  20.746  0.00  0.00    +0.000 A 
ATOM      5  N   UNL     1       0.452  11.084  19.525  0.00  0.00    +0.000 NA
ATOM      6  C   UNL     1       1.181   9.987  19.055  0.00  0.00    +0.000 A 
ATOM      7  C   UNL     1       1.835   9.882  17.810  0.00  0.00    +0.000 A 
ATOM      8  C   UNL     1       2.553   8.716  17.457  0.00  0.00    +0.000 A 
ATOM      9  C   UNL     1       2.635   7.612  18.307  0.00  0.00    +0.000 A 
ATOM     10  C   UNL     1       1.962   7.698  19.551  0.00  0.00    +0.000 A 
ATOM     11  C   UNL     1       1.258   8.892  19.917  0.00  0.00    +0.000 A 
ATOM     12  S   UNL     1       0.394   9.319  21.371  0.00  0.00    +0.000 S 
ATOM     13  H   UNL     1      -0.932  12.646  20.859  0.00  0.00    +0.000 HD
ENDROOT
BRANCH   1  17
ATOM     14  C   UNL     1      -1.821  16.246  25.094  0.00  0.00    +0.000 C 
ATOM     15  C   UNL     1      -2.177  15.031  24.301  0.00  0.00    +0.000 A 
ATOM     16  N   UNL     1      -1.281  14.033  23.977  0.00  0.00    +0.000 N 
ATOM     17  C   UNL     1      -1.882  13.024  23.218  0.00  0.00    +0.000 A 
ATOM     18  C   UNL     1      -3.210  13.414  23.088  0.00  0.00    +0.000 A 
ATOM     19 CL   UNL     1      -4.462  12.577  22.285  0.00  0.00    +0.000 Cl
ATOM     20  C   UNL     1      -3.389  14.658  23.760  0.00  0.00    +0.000 A 
ATOM     21 CL   UNL     1      -4.843  15.544  23.885  0.00  0.00    +0.000 Cl
ATOM     22  H   UNL     1      -0.303  14.011  24.246  0.00  0.00    +0.000 HD
ENDBRANCH   1  17
BRANCH   9  23
ATOM     23  N   UNL     1       3.370   6.413  17.984  0.00  0.00    +0.000 N 
ATOM     24  C   UNL     1       4.703   6.314  17.591  0.00  0.00    +0.000 C 
ATOM     25  O   UNL     1       5.436   7.281  17.366  0.00  0.00    +0.000 OA
ATOM     26  H   UNL     1       2.850   5.537  17.996  0.00  0.00    +0.000 HD
BRANCH  24  27
ATOM     27  C   UNL     1       5.267   4.892  17.252  0.00  0.00    +0.000 C 
BRANCH  27  28
ATOM     28  N   UNL     1       4.773   3.686  17.907  0.00  0.00    +0.000 N 
ATOM     29  C   UNL     1       4.573   3.670  19.251  0.00  0.00    +0.000 C 
ATOM     30  O   UNL     1       5.036   4.533  19.980  0.00  0.00    +0.000 OA
ATOM     31  H   UNL     1       4.166   3.067  17.385  0.00  0.00    +0.000 HD
BRANCH  29  32
ATOM     32  O   UNL     1       3.863   2.580  19.654  0.00  0.00    +0.000 OA
BRANCH  32  33
ATOM     33  C   UNL     1       2.501   2.773  20.146  0.00  0.00    +0.000 C 
ATOM     34  C   UNL     1       2.391   2.474  21.647  0.00  0.00    +0.000 C 
ATOM     35  C   UNL     1       2.130   4.256  19.938  0.00  0.00    +0.000 C 
ATOM     36  C   UNL     1       1.506   1.941  19.323  0.00  0.00    +0.000 C 
ENDBRANCH  32  33
ENDBRANCH  29  32
ENDBRANCH  27  28
ENDBRANCH  24  27
ENDBRANCH   9  23
TORSDOF 6
ENDMDL
