MODEL 1
REMARK VINA RESULT:      -7.3      0.000      0.000
REMARK  Name = 
REMARK  4 active torsions:
REMARK  status: ('A' for Active; 'I' for Inactive)
REMARK    1  A    between atoms: C_1  and  C_2
REMARK    2  A    between atoms: C_6  and  C_7
REMARK    3  A    between atoms: N_8  and  N_9
REMARK    4  A    between atoms: C_10  and  C_12
REMARK                            x       y       z     vdW  Elec       q    Type
REMARK                         _______ _______ _______ _____ _____    ______ ____
ROOT
ATOM      1  N   UNL     1       2.719   8.072  17.922  0.00  0.00    +0.000 N 
ATOM      2  C   UNL     1       2.858   6.796  18.457  0.00  0.00    +0.000 C 
ATOM      3  O   UNL     1       2.344   6.406  19.502  0.00  0.00    +0.000 OA
ATOM      4  H   UNL     1       3.242   8.375  17.111  0.00  0.00    +0.000 HD
ENDROOT
BRANCH   2   5
ATOM      5  C   UNL     1       3.729   5.864  17.693  0.00  0.00    +0.000 A 
ATOM      6  C   UNL     1       3.543   4.480  17.870  0.00  0.00    +0.000 A 
ATOM      7  C   UNL     1       4.317   3.543  17.175  0.00  0.00    +0.000 A 
ATOM      8  C   UNL     1       5.271   4.057  16.297  0.00  0.00    +0.000 A 
ATOM      9  N   UNL     1       6.180   3.458  15.462  0.00  0.00    +0.000 N 
ATOM     10  C   UNL     1       6.865   4.446  14.810  0.00  0.00    +0.000 A 
ATOM     11  N   UNL     1       6.459   5.641  15.170  0.00  0.00    +0.000 NA
ATOM     12  C   UNL     1       5.466   5.418  16.091  0.00  0.00    +0.000 A 
ATOM     13  C   UNL     1       4.684   6.346  16.787  0.00  0.00    +0.000 A 
ATOM     14  H   UNL     1       6.314   2.465  15.343  0.00  0.00    +0.000 HD
ENDBRANCH   2   5
BRANCH   1  16
ATOM     15  C   UNL     1       0.901   9.443  17.907  0.00  0.00    +0.000 C 
ATOM     16  N   UNL     1       1.901   8.948  18.561  0.00  0.00    +0.000 NA
BRANCH  15  22
ATOM     17  C   UNL     1      -2.152   9.989  17.241  0.00  0.00    +0.000 C 
ATOM     18  C   UNL     1      -1.330  10.636  18.313  0.00  0.00    +0.000 A 
ATOM     19  C   UNL     1      -1.840  11.630  19.212  0.00  0.00    +0.000 A 
ATOM     20  C   UNL     1      -0.891  12.074  20.105  0.00  0.00    +0.000 A 
ATOM     21  S   UNL     1       0.614  11.302  19.873  0.00  0.00    +0.000 S 
ATOM     22  C   UNL     1       0.008  10.368  18.574  0.00  0.00    +0.000 A 
ENDBRANCH  15  22
ENDBRANCH   1  16
TORSDOF 3
ENDMDL
MODEL 2
REMARK VINA RESULT:      -6.9      2.198      2.357
REMARK  Name = 
REMARK  4 active torsions:
REMARK  status: ('A' for Active; 'I' for Inactive)
REMARK    1  A    between atoms: C_1  and  C_2
REMARK    2  A    between atoms: C_6  and  C_7
REMARK    3  A    between atoms: N_8  and  N_9
REMARK    4  A    between atoms: C_10  and  C_12
REMARK                            x       y       z     vdW  Elec       q    Type
REMARK                         _______ _______ _______ _____ _____    ______ ____
ROOT
ATOM      1  N   UNL     1       2.077   7.682  19.422  0.00  0.00    +0.000 N 
ATOM      2  C   UNL     1       2.628   7.816  18.154  0.00  0.00    +0.000 C 
ATOM      3  O   UNL     1       2.403   8.742  17.379  0.00  0.00    +0.000 OA
ATOM      4  H   UNL     1       2.217   6.851  19.984  0.00  0.00    +0.000 HD
ENDROOT
BRANCH   2   5
ATOM      5  C   UNL     1       3.537   6.722  17.721  0.00  0.00    +0.000 A 
ATOM      6  C   UNL     1       3.166   5.394  18.003  0.00  0.00    +0.000 A 
ATOM      7  C   UNL     1       3.965   4.313  17.614  0.00  0.00    +0.000 A 
ATOM      8  C   UNL     1       5.139   4.625  16.928  0.00  0.00    +0.000 A 
ATOM      9  N   UNL     1       6.137   3.848  16.398  0.00  0.00    +0.000 N 
ATOM     10  C   UNL     1       7.053   4.680  15.816  0.00  0.00    +0.000 A 
ATOM     11  N   UNL     1       6.712   5.942  15.937  0.00  0.00    +0.000 NA
ATOM     12  C   UNL     1       5.523   5.926  16.623  0.00  0.00    +0.000 A 
ATOM     13  C   UNL     1       4.714   7.000  17.012  0.00  0.00    +0.000 A 
ATOM     14  H   UNL     1       6.185   2.840  16.425  0.00  0.00    +0.000 HD
ENDBRANCH   2   5
BRANCH   1  16
ATOM     15  C   UNL     1       1.409   9.059  21.107  0.00  0.00    +0.000 C 
ATOM     16  N   UNL     1       1.273   8.676  19.880  0.00  0.00    +0.000 NA
BRANCH  15  22
ATOM     17  C   UNL     1       1.288  12.059  20.080  0.00  0.00    +0.000 C 
ATOM     18  C   UNL     1       0.489  11.449  21.191  0.00  0.00    +0.000 A 
ATOM     19  C   UNL     1      -0.471  12.177  21.968  0.00  0.00    +0.000 A 
ATOM     20  C   UNL     1      -1.072  11.400  22.931  0.00  0.00    +0.000 A 
ATOM     21  S   UNL     1      -0.491   9.794  22.910  0.00  0.00    +0.000 S 
ATOM     22  C   UNL     1       0.572  10.128  21.611  0.00  0.00    +0.000 A 
ENDBRANCH  15  22
ENDBRANCH   1  16
TORSDOF 3
ENDMDL
MODEL 3
REMARK VINA RESULT:      -6.9      1.918      2.427
REMARK  Name = 
REMARK  4 active torsions:
REMARK  status: ('A' for Active; 'I' for Inactive)
REMARK    1  A    between atoms: C_1  and  C_2
REMARK    2  A    between atoms: C_6  and  C_7
REMARK    3  A    between atoms: N_8  and  N_9
REMARK    4  A    between atoms: C_10  and  C_12
REMARK                            x       y       z     vdW  Elec       q    Type
REMARK                         _______ _______ _______ _____ _____    ______ ____
ROOT
ATOM      1  N   UNL     1       2.113   7.861  19.168  0.00  0.00    +0.000 N 
ATOM      2  C   UNL     1       2.726   7.931  17.922  0.00  0.00    +0.000 C 
ATOM      3  O   UNL     1       2.588   8.848  17.116  0.00  0.00    +0.000 OA
ATOM      4  H   UNL     1       2.182   7.039  19.755  0.00  0.00    +0.000 HD
ENDROOT
BRANCH   2   5
ATOM      5  C   UNL     1       3.588   6.777  17.556  0.00  0.00    +0.000 A 
ATOM      6  C   UNL     1       3.220   5.497  18.011  0.00  0.00    +0.000 A 
ATOM      7  C   UNL     1       3.976   4.363  17.695  0.00  0.00    +0.000 A 
ATOM      8  C   UNL     1       5.105   4.571  16.902  0.00  0.00    +0.000 A 
ATOM      9  N   UNL     1       6.054   3.719  16.398  0.00  0.00    +0.000 N 
ATOM     10  C   UNL     1       6.939   4.462  15.666  0.00  0.00    +0.000 A 
ATOM     11  N   UNL     1       6.624   5.736  15.666  0.00  0.00    +0.000 NA
ATOM     12  C   UNL     1       5.484   5.822  16.426  0.00  0.00    +0.000 A 
ATOM     13  C   UNL     1       4.718   6.949  16.744  0.00  0.00    +0.000 A 
ATOM     14  H   UNL     1       6.090   2.720  16.535  0.00  0.00    +0.000 HD
ENDBRANCH   2   5
BRANCH   1  16
ATOM     15  C   UNL     1       0.916   8.928  20.783  0.00  0.00    +0.000 C 
ATOM     16  N   UNL     1       1.349   8.911  19.565  0.00  0.00    +0.000 NA
BRANCH  15  22
ATOM     17  C   UNL     1      -0.106   9.504  23.731  0.00  0.00    +0.000 C 
ATOM     18  C   UNL     1      -0.356  10.332  22.508  0.00  0.00    +0.000 A 
ATOM     19  C   UNL     1      -1.126  11.542  22.515  0.00  0.00    +0.000 A 
ATOM     20  C   UNL     1      -1.216  12.119  21.269  0.00  0.00    +0.000 A 
ATOM     21  S   UNL     1      -0.379  11.218  20.085  0.00  0.00    +0.000 S 
ATOM     22  C   UNL     1       0.111  10.045  21.232  0.00  0.00    +0.000 A 
ENDBRANCH  15  22
ENDBRANCH   1  16
TORSDOF 3
ENDMDL
MODEL 4
REMARK VINA RESULT:      -6.8      1.251      1.686
REMARK  Name = 
REMARK  4 active torsions:
REMARK  status: ('A' for Active; 'I' for Inactive)
REMARK    1  A    between atoms: C_1  and  C_2
REMARK    2  A    between atoms: C_6  and  C_7
REMARK    3  A    between atoms: N_8  and  N_9
REMARK    4  A    between atoms: C_10  and  C_12
REMARK                            x       y       z     vdW  Elec       q    Type
REMARK                         _______ _______ _______ _____ _____    ______ ____
ROOT
ATOM      1  N   UNL     1       2.228   8.226  17.710  0.00  0.00    +0.000 N 
ATOM      2  C   UNL     1       2.688   7.170  18.489  0.00  0.00    +0.000 C 
ATOM      3  O   UNL     1       2.457   7.020  19.686  0.00  0.00    +0.000 OA
ATOM      4  H   UNL     1       2.527   8.356  16.752  0.00  0.00    +0.000 HD
ENDROOT
BRANCH   2   5
ATOM      5  C   UNL     1       3.547   6.175  17.793  0.00  0.00    +0.000 A 
ATOM      6  C   UNL     1       3.162   4.822  17.824  0.00  0.00    +0.000 A 
ATOM      7  C   UNL     1       3.914   3.833  17.181  0.00  0.00    +0.000 A 
ATOM      8  C   UNL     1       5.056   4.264  16.506  0.00  0.00    +0.000 A 
ATOM      9  N   UNL     1       6.007   3.598  15.774  0.00  0.00    +0.000 N 
ATOM     10  C   UNL     1       6.909   4.521  15.320  0.00  0.00    +0.000 A 
ATOM     11  N   UNL     1       6.603   5.736  15.711  0.00  0.00    +0.000 NA
ATOM     12  C   UNL     1       5.452   5.595  16.446  0.00  0.00    +0.000 A 
ATOM     13  C   UNL     1       4.690   6.577  17.089  0.00  0.00    +0.000 A 
ATOM     14  H   UNL     1       6.033   2.605  15.594  0.00  0.00    +0.000 HD
ENDBRANCH   2   5
BRANCH   1  16
ATOM     15  C   UNL     1       1.706  10.390  18.181  0.00  0.00    +0.000 C 
ATOM     16  N   UNL     1       1.406   9.138  18.289  0.00  0.00    +0.000 NA
BRANCH  15  22
ATOM     17  C   UNL     1       2.145  13.531  18.284  0.00  0.00    +0.000 C 
ATOM     18  C   UNL     1       0.991  12.759  18.846  0.00  0.00    +0.000 A 
ATOM     19  C   UNL     1      -0.109  13.369  19.535  0.00  0.00    +0.000 A 
ATOM     20  C   UNL     1      -1.042  12.452  19.960  0.00  0.00    +0.000 A 
ATOM     21  S   UNL     1      -0.609  10.856  19.535  0.00  0.00    +0.000 S 
ATOM     22  C   UNL     1       0.835  11.380  18.780  0.00  0.00    +0.000 A 
ENDBRANCH  15  22
ENDBRANCH   1  16
TORSDOF 3
ENDMDL
MODEL 5
REMARK VINA RESULT:      -6.8      2.762      3.302
REMARK  Name = 
REMARK  4 active torsions:
REMARK  status: ('A' for Active; 'I' for Inactive)
REMARK    1  A    between atoms: C_1  and  C_2
REMARK    2  A    between atoms: C_6  and  C_7
REMARK    3  A    between atoms: N_8  and  N_9
REMARK    4  A    between atoms: C_10  and  C_12
REMARK                            x       y       z     vdW  Elec       q    Type
REMARK                         _______ _______ _______ _____ _____    ______ ____
ROOT
ATOM      1  N   UNL     1       1.923   7.440  20.649  0.00  0.00    +0.000 N 
ATOM      2  C   UNL     1       2.358   7.156  19.359  0.00  0.00    +0.000 C 
ATOM      3  O   UNL     1       2.265   7.915  18.398  0.00  0.00    +0.000 OA
ATOM      4  H   UNL     1       1.933   6.745  21.384  0.00  0.00    +0.000 HD
ENDROOT
BRANCH   2   5
ATOM      5  C   UNL     1       2.953   5.809  19.156  0.00  0.00    +0.000 A 
ATOM      6  C   UNL     1       4.339   5.655  19.345  0.00  0.00    +0.000 A 
ATOM      7  C   UNL     1       4.966   4.415  19.184  0.00  0.00    +0.000 A 
ATOM      8  C   UNL     1       4.143   3.345  18.835  0.00  0.00    +0.000 A 
ATOM      9  N   UNL     1       4.396   2.016  18.607  0.00  0.00    +0.000 N 
ATOM     10  C   UNL     1       3.208   1.407  18.308  0.00  0.00    +0.000 A 
ATOM     11  N   UNL     1       2.207   2.256  18.327  0.00  0.00    +0.000 NA
ATOM     12  C   UNL     1       2.769   3.464  18.657  0.00  0.00    +0.000 A 
ATOM     13  C   UNL     1       2.151   4.708  18.825  0.00  0.00    +0.000 A 
ATOM     14  H   UNL     1       5.297   1.564  18.659  0.00  0.00    +0.000 HD
ENDBRANCH   2   5
BRANCH   1  16
ATOM     15  C   UNL     1       0.154   8.769  21.183  0.00  0.00    +0.000 C 
ATOM     16  N   UNL     1       1.410   8.673  20.894  0.00  0.00    +0.000 NA
BRANCH  15  22
ATOM     17  C   UNL     1      -0.465  11.084  19.105  0.00  0.00    +0.000 C 
ATOM     18  C   UNL     1      -0.696  11.111  20.585  0.00  0.00    +0.000 A 
ATOM     19  C   UNL     1      -1.247  12.237  21.281  0.00  0.00    +0.000 A 
ATOM     20  C   UNL     1      -1.358  12.020  22.635  0.00  0.00    +0.000 A 
ATOM     21  S   UNL     1      -0.806  10.467  23.081  0.00  0.00    +0.000 S 
ATOM     22  C   UNL     1      -0.411  10.072  21.463  0.00  0.00    +0.000 A 
ENDBRANCH  15  22
ENDBRANCH   1  16
TORSDOF 3
ENDMDL
MODEL 6
REMARK VINA RESULT:      -6.8      3.094      3.648
REMARK  Name = 
REMARK  4 active torsions:
REMARK  status: ('A' for Active; 'I' for Inactive)
REMARK    1  A    between atoms: C_1  and  C_2
REMARK    2  A    between atoms: C_6  and  C_7
REMARK    3  A    between atoms: N_8  and  N_9
REMARK    4  A    between atoms: C_10  and  C_12
REMARK                            x       y       z     vdW  Elec       q    Type
REMARK                         _______ _______ _______ _____ _____    ______ ____
ROOT
ATOM      1  N   UNL     1       1.324   7.449  21.167  0.00  0.00    +0.000 N 
ATOM      2  C   UNL     1       1.939   7.071  19.979  0.00  0.00    +0.000 C 
ATOM      3  O   UNL     1       2.337   7.844  19.111  0.00  0.00    +0.000 OA
ATOM      4  H   UNL     1       0.925   6.771  21.804  0.00  0.00    +0.000 HD
ENDROOT
BRANCH   2   5
ATOM      5  C   UNL     1       2.085   5.608  19.759  0.00  0.00    +0.000 A 
ATOM      6  C   UNL     1       1.291   4.734  20.526  0.00  0.00    +0.000 A 
ATOM      7  C   UNL     1       1.366   3.346  20.365  0.00  0.00    +0.000 A 
ATOM      8  C   UNL     1       2.260   2.882  19.401  0.00  0.00    +0.000 A 
ATOM      9  N   UNL     1       2.587   1.621  18.971  0.00  0.00    +0.000 N 
ATOM     10  C   UNL     1       3.524   1.744  17.982  0.00  0.00    +0.000 A 
ATOM     11  N   UNL     1       3.824   3.000  17.749  0.00  0.00    +0.000 NA
ATOM     12  C   UNL     1       3.045   3.721  18.619  0.00  0.00    +0.000 A 
ATOM     13  C   UNL     1       2.959   5.108  18.784  0.00  0.00    +0.000 A 
ATOM     14  H   UNL     1       2.199   0.755  19.316  0.00  0.00    +0.000 HD
ENDBRANCH   2   5
BRANCH   1  16
ATOM     15  C   UNL     1       0.076   9.352  21.182  0.00  0.00    +0.000 C 
ATOM     16  N   UNL     1       1.205   8.775  21.432  0.00  0.00    +0.000 NA
BRANCH  15  22
ATOM     17  C   UNL     1       1.284  11.793  19.554  0.00  0.00    +0.000 C 
ATOM     18  C   UNL     1       0.434  11.858  20.786  0.00  0.00    +0.000 A 
ATOM     19  C   UNL     1       0.044  13.086  21.415  0.00  0.00    +0.000 A 
ATOM     20  C   UNL     1      -0.733  12.886  22.533  0.00  0.00    +0.000 A 
ATOM     21  S   UNL     1      -1.002  11.227  22.834  0.00  0.00    +0.000 S 
ATOM     22  C   UNL     1      -0.077  10.763  21.471  0.00  0.00    +0.000 A 
ENDBRANCH  15  22
ENDBRANCH   1  16
TORSDOF 3
ENDMDL
MODEL 7
REMARK VINA RESULT:      -6.7      2.141      3.104
REMARK  Name = 
REMARK  4 active torsions:
REMARK  status: ('A' for Active; 'I' for Inactive)
REMARK    1  A    between atoms: C_1  and  C_2
REMARK    2  A    between atoms: C_6  and  C_7
REMARK    3  A    between atoms: N_8  and  N_9
REMARK    4  A    between atoms: C_10  and  C_12
REMARK                            x       y       z     vdW  Elec       q    Type
REMARK                         _______ _______ _______ _____ _____    ______ ____
ROOT
ATOM      1  N   UNL     1       1.719   8.310  19.623  0.00  0.00    +0.000 N 
ATOM      2  C   UNL     1       2.255   8.160  18.349  0.00  0.00    +0.000 C 
ATOM      3  O   UNL     1       2.227   9.012  17.465  0.00  0.00    +0.000 OA
ATOM      4  H   UNL     1       1.681   7.543  20.283  0.00  0.00    +0.000 HD
ENDROOT
BRANCH   2   5
ATOM      5  C   UNL     1       2.881   6.843  18.058  0.00  0.00    +0.000 A 
ATOM      6  C   UNL     1       4.151   6.826  17.453  0.00  0.00    +0.000 A 
ATOM      7  C   UNL     1       4.806   5.624  17.161  0.00  0.00    +0.000 A 
ATOM      8  C   UNL     1       4.135   4.452  17.510  0.00  0.00    +0.000 A 
ATOM      9  N   UNL     1       4.462   3.126  17.389  0.00  0.00    +0.000 N 
ATOM     10  C   UNL     1       3.435   2.390  17.911  0.00  0.00    +0.000 A 
ATOM     11  N   UNL     1       2.467   3.154  18.360  0.00  0.00    +0.000 NA
ATOM     12  C   UNL     1       2.887   4.439  18.122  0.00  0.00    +0.000 A 
ATOM     13  C   UNL     1       2.242   5.647  18.413  0.00  0.00    +0.000 A 
ATOM     14  H   UNL     1       5.314   2.756  16.992  0.00  0.00    +0.000 HD
ENDBRANCH   2   5
BRANCH   1  16
ATOM     15  C   UNL     1      -0.099   9.565  20.169  0.00  0.00    +0.000 C 
ATOM     16  N   UNL     1       1.173   9.509  19.951  0.00  0.00    +0.000 NA
BRANCH  15  22
ATOM     17  C   UNL     1      -0.878  10.558  23.080  0.00  0.00    +0.000 C 
ATOM     18  C   UNL     1      -1.055  11.303  21.792  0.00  0.00    +0.000 A 
ATOM     19  C   UNL     1      -1.627  12.615  21.707  0.00  0.00    +0.000 A 
ATOM     20  C   UNL     1      -1.685  13.085  20.415  0.00  0.00    +0.000 A 
ATOM     21  S   UNL     1      -1.054  11.960  19.297  0.00  0.00    +0.000 S 
ATOM     22  C   UNL     1      -0.699  10.832  20.534  0.00  0.00    +0.000 A 
ENDBRANCH  15  22
ENDBRANCH   1  16
TORSDOF 3
ENDMDL
MODEL 8
REMARK VINA RESULT:      -6.7      1.085      1.508
REMARK  Name = 
REMARK  4 active torsions:
REMARK  status: ('A' for Active; 'I' for Inactive)
REMARK    1  A    between atoms: C_1  and  C_2
REMARK    2  A    between atoms: C_6  and  C_7
REMARK    3  A    between atoms: N_8  and  N_9
REMARK    4  A    between atoms: C_10  and  C_12
REMARK                            x       y       z     vdW  Elec       q    Type
REMARK                         _______ _______ _______ _____ _____    ______ ____
ROOT
ATOM      1  N   UNL     1       2.458   8.628  17.751  0.00  0.00    +0.000 N 
ATOM      2  C   UNL     1       2.720   7.483  18.495  0.00  0.00    +0.000 C 
ATOM      3  O   UNL     1       2.358   7.292  19.653  0.00  0.00    +0.000 OA
ATOM      4  H   UNL     1       2.863   8.777  16.835  0.00  0.00    +0.000 HD
ENDROOT
BRANCH   2   5
ATOM      5  C   UNL     1       3.530   6.437  17.815  0.00  0.00    +0.000 A 
ATOM      6  C   UNL     1       3.068   5.109  17.846  0.00  0.00    +0.000 A 
ATOM      7  C   UNL     1       3.771   4.075  17.218  0.00  0.00    +0.000 A 
ATOM      8  C   UNL     1       4.944   4.436  16.556  0.00  0.00    +0.000 A 
ATOM      9  N   UNL     1       5.865   3.714  15.840  0.00  0.00    +0.000 N 
ATOM     10  C   UNL     1       6.824   4.581  15.394  0.00  0.00    +0.000 A 
ATOM     11  N   UNL     1       6.583   5.813  15.776  0.00  0.00    +0.000 NA
ATOM     12  C   UNL     1       5.417   5.742  16.496  0.00  0.00    +0.000 A 
ATOM     13  C   UNL     1       4.704   6.770  17.124  0.00  0.00    +0.000 A 
ATOM     14  H   UNL     1       5.836   2.720  15.665  0.00  0.00    +0.000 HD
ENDBRANCH   2   5
BRANCH   1  16
ATOM     15  C   UNL     1       0.402   9.472  18.243  0.00  0.00    +0.000 C 
ATOM     16  N   UNL     1       1.687   9.594  18.313  0.00  0.00    +0.000 NA
BRANCH  15  22
ATOM     17  C   UNL     1       0.261  10.277  21.309  0.00  0.00    +0.000 C 
ATOM     18  C   UNL     1      -0.530  10.865  20.181  0.00  0.00    +0.000 A 
ATOM     19  C   UNL     1      -1.497  11.911  20.352  0.00  0.00    +0.000 A 
ATOM     20  C   UNL     1      -2.093  12.280  19.168  0.00  0.00    +0.000 A 
ATOM     21  S   UNL     1      -1.499  11.378  17.845  0.00  0.00    +0.000 S 
ATOM     22  C   UNL     1      -0.438  10.484  18.848  0.00  0.00    +0.000 A 
ENDBRANCH  15  22
ENDBRANCH   1  16
TORSDOF 3
ENDMDL
MODEL 9
REMARK VINA RESULT:      -6.7      2.472      3.347
REMARK  Name = 
REMARK  4 active torsions:
REMARK  status: ('A' for Active; 'I' for Inactive)
REMARK    1  A    between atoms: C_1  and  C_2
REMARK    2  A    between atoms: C_6  and  C_7
REMARK    3  A    between atoms: N_8  and  N_9
REMARK    4  A    between atoms: C_10  and  C_12
REMARK                            x       y       z     vdW  Elec       q    Type
REMARK                         _______ _______ _______ _____ _____    ______ ____
ROOT
ATOM      1  N   UNL     1       1.776   7.564  20.824  0.00  0.00    +0.000 N 
ATOM      2  C   UNL     1       2.236   7.465  19.516  0.00  0.00    +0.000 C 
ATOM      3  O   UNL     1       2.175   8.358  18.675  0.00  0.00    +0.000 OA
ATOM      4  H   UNL     1       1.760   6.768  21.449  0.00  0.00    +0.000 HD
ENDROOT
BRANCH   2   5
ATOM      5  C   UNL     1       2.817   6.152  19.129  0.00  0.00    +0.000 A 
ATOM      6  C   UNL     1       3.392   6.027  17.851  0.00  0.00    +0.000 A 
ATOM      7  C   UNL     1       3.969   4.826  17.423  0.00  0.00    +0.000 A 
ATOM      8  C   UNL     1       3.948   3.770  18.333  0.00  0.00    +0.000 A 
ATOM      9  N   UNL     1       4.414   2.481  18.269  0.00  0.00    +0.000 N 
ATOM     10  C   UNL     1       4.137   1.874  19.463  0.00  0.00    +0.000 A 
ATOM     11  N   UNL     1       3.522   2.685  20.291  0.00  0.00    +0.000 NA
ATOM     12  C   UNL     1       3.400   3.869  19.607  0.00  0.00    +0.000 A 
ATOM     13  C   UNL     1       2.829   5.076  20.026  0.00  0.00    +0.000 A 
ATOM     14  H   UNL     1       4.886   2.057  17.483  0.00  0.00    +0.000 HD
ENDBRANCH   2   5
BRANCH   1  16
ATOM     15  C   UNL     1       0.029   9.012  21.006  0.00  0.00    +0.000 C 
ATOM     16  N   UNL     1       1.275   8.756  21.238  0.00  0.00    +0.000 NA
BRANCH  15  22
ATOM     17  C   UNL     1      -0.735  11.519  19.219  0.00  0.00    +0.000 C 
ATOM     18  C   UNL     1      -0.876  11.390  20.704  0.00  0.00    +0.000 A 
ATOM     19  C   UNL     1      -1.394  12.430  21.545  0.00  0.00    +0.000 A 
ATOM     20  C   UNL     1      -1.422  12.073  22.873  0.00  0.00    +0.000 A 
ATOM     21  S   UNL     1      -0.830  10.491  23.123  0.00  0.00    +0.000 S 
ATOM     22  C   UNL     1      -0.529  10.271  21.452  0.00  0.00    +0.000 A 
ENDBRANCH  15  22
ENDBRANCH   1  16
TORSDOF 3
ENDMDL
