MODEL 1
REMARK VINA RESULT:      -8.6      0.000      0.000
REMARK  Name = 
REMARK  8 active torsions:
REMARK  status: ('A' for Active; 'I' for Inactive)
REMARK    1  A    between atoms: C_1  and  C_2
REMARK    2  A    between atoms: C_2  and  C_3
REMARK    3  A    between atoms: C_2  and  C_4
REMARK    4  A    between atoms: C_4  and  C_5
REMARK    5  A    between atoms: C_7  and  C_8
REMARK    6  A    between atoms: C_8  and  N_9
REMARK    7  A    between atoms: C_12  and  C_13
REMARK    8  A    between atoms: C_19  and  C_20
REMARK                            x       y       z     vdW  Elec       q    Type
REMARK                         _______ _______ _______ _____ _____    ______ ____
ROOT
ATOM      1  N   UNL     1       4.416   5.684  17.617  0.00  0.00    +0.000 N 
ATOM      2  C   UNL     1       4.872   6.859  17.073  0.00  0.00    +0.000 A 
ATOM      3  N   UNL     1       4.124   7.875  17.420  0.00  0.00    +0.000 NA
ATOM      4  C   UNL     1       3.135   7.352  18.216  0.00  0.00    +0.000 A 
ATOM      5  C   UNL     1       3.250   5.959  18.324  0.00  0.00    +0.000 A 
ENDROOT
BRANCH   4   6
ATOM      6  C   UNL     1       2.079   8.211  18.741  0.00  0.00    +0.000 A 
ATOM      7  C   UNL     1       1.415   9.097  17.881  0.00  0.00    +0.000 A 
ATOM      8  C   UNL     1       0.362   9.889  18.347  0.00  0.00    +0.000 A 
ATOM      9  C   UNL     1      -0.039   9.806  19.677  0.00  0.00    +0.000 A 
ATOM     10  C   UNL     1       0.642   8.967  20.553  0.00  0.00    +0.000 A 
ATOM     11  C   UNL     1       1.713   8.202  20.090  0.00  0.00    +0.000 A 
ENDBRANCH   4   6
BRANCH   5  12
ATOM     12  C   UNL     1       2.293   4.975  18.955  0.00  0.00    +0.000 C 
ATOM     13  C   UNL     1       1.633   3.938  18.072  0.00  0.00    +0.000 C 
ATOM     14  C   UNL     1       1.047   2.972  19.077  0.00  0.00    +0.000 C 
ATOM     15  O   UNL     1       1.916   2.997  20.217  0.00  0.00    +0.000 OA
ATOM     16  C   UNL     1       2.852   4.079  20.053  0.00  0.00    +0.000 C 
ENDBRANCH   5  12
BRANCH   1  17
ATOM     17  C   UNL     1       5.152   4.439  17.434  0.00  0.00    +0.000 C 
BRANCH  17  20
ATOM     18  C   UNL     1       6.371   4.016  13.988  0.00  0.00    +0.000 A 
ATOM     19  C   UNL     1       5.307   3.911  14.851  0.00  0.00    +0.000 A 
ATOM     20  C   UNL     1       5.819   4.342  16.100  0.00  0.00    +0.000 A 
ATOM     21  N   UNL     1       7.105   4.711  15.983  0.00  0.00    +0.000 NA
ATOM     22  O   UNL     1       7.447   4.500  14.662  0.00  0.00    +0.000 OA
BRANCH  18  23
ATOM     23  C   UNL     1       6.554   3.734  12.540  0.00  0.00    +0.000 C 
BRANCH  23  25
ATOM     24  C   UNL     1       4.399   3.232  11.270  0.00  0.00    +0.000 C 
ATOM     25  C   UNL     1       5.608   2.643  12.002  0.00  0.00    +0.000 C 
ATOM     26  C   UNL     1       6.373   1.711  11.057  0.00  0.00    +0.000 C 
ENDBRANCH  23  25
ENDBRANCH  18  23
ENDBRANCH  17  20
ENDBRANCH   1  17
TORSDOF 6
ENDMDL
MODEL 2
REMARK VINA RESULT:      -8.1      1.811      3.866
REMARK  Name = 
REMARK  8 active torsions:
REMARK  status: ('A' for Active; 'I' for Inactive)
REMARK    1  A    between atoms: C_1  and  C_2
REMARK    2  A    between atoms: C_2  and  C_3
REMARK    3  A    between atoms: C_2  and  C_4
REMARK    4  A    between atoms: C_4  and  C_5
REMARK    5  A    between atoms: C_7  and  C_8
REMARK    6  A    between atoms: C_8  and  N_9
REMARK    7  A    between atoms: C_12  and  C_13
REMARK    8  A    between atoms: C_19  and  C_20
REMARK                            x       y       z     vdW  Elec       q    Type
REMARK                         _______ _______ _______ _____ _____    ______ ____
ROOT
ATOM      1  N   UNL     1       5.366   5.557  17.625  0.00  0.00    +0.000 N 
ATOM      2  C   UNL     1       6.048   4.478  18.131  0.00  0.00    +0.000 A 
ATOM      3  N   UNL     1       5.287   3.741  18.898  0.00  0.00    +0.000 NA
ATOM      4  C   UNL     1       4.059   4.358  18.904  0.00  0.00    +0.000 A 
ATOM      5  C   UNL     1       4.079   5.542  18.154  0.00  0.00    +0.000 A 
ENDROOT
BRANCH   4   6
ATOM      6  C   UNL     1       2.970   3.825  19.715  0.00  0.00    +0.000 A 
ATOM      7  C   UNL     1       1.763   3.460  19.101  0.00  0.00    +0.000 A 
ATOM      8  C   UNL     1       0.725   2.894  19.848  0.00  0.00    +0.000 A 
ATOM      9  C   UNL     1       0.882   2.687  21.215  0.00  0.00    +0.000 A 
ATOM     10  C   UNL     1       2.054   3.088  21.846  0.00  0.00    +0.000 A 
ATOM     11  C   UNL     1       3.075   3.682  21.101  0.00  0.00    +0.000 A 
ENDBRANCH   4   6
BRANCH   5  12
ATOM     12  C   UNL     1       3.013   6.603  18.030  0.00  0.00    +0.000 C 
ATOM     13  C   UNL     1       2.497   7.264  19.290  0.00  0.00    +0.000 C 
ATOM     14  C   UNL     1       1.731   8.451  18.752  0.00  0.00    +0.000 C 
ATOM     15  O   UNL     1       2.391   8.845  17.542  0.00  0.00    +0.000 OA
ATOM     16  C   UNL     1       3.359   7.834  17.201  0.00  0.00    +0.000 C 
ENDBRANCH   5  12
BRANCH   1  17
ATOM     17  C   UNL     1       5.997   6.462  16.673  0.00  0.00    +0.000 C 
BRANCH  17  20
ATOM     18  C   UNL     1       6.676   4.675  13.528  0.00  0.00    +0.000 A 
ATOM     19  C   UNL     1       5.723   5.148  14.398  0.00  0.00    +0.000 A 
ATOM     20  C   UNL     1       6.464   5.775  15.430  0.00  0.00    +0.000 A 
ATOM     21  N   UNL     1       7.781   5.706  15.177  0.00  0.00    +0.000 NA
ATOM     22  O   UNL     1       7.909   5.013  13.989  0.00  0.00    +0.000 OA
BRANCH  18  23
ATOM     23  C   UNL     1       6.618   3.925  12.247  0.00  0.00    +0.000 C 
BRANCH  23  25
ATOM     24  C   UNL     1       4.242   3.413  11.472  0.00  0.00    +0.000 C 
ATOM     25  C   UNL     1       5.484   2.883  12.194  0.00  0.00    +0.000 C 
ATOM     26  C   UNL     1       5.977   1.611  11.498  0.00  0.00    +0.000 C 
ENDBRANCH  23  25
ENDBRANCH  18  23
ENDBRANCH  17  20
ENDBRANCH   1  17
TORSDOF 6
ENDMDL
MODEL 3
REMARK VINA RESULT:      -7.7      0.507      1.268
REMARK  Name = 
REMARK  8 active torsions:
REMARK  status: ('A' for Active; 'I' for Inactive)
REMARK    1  A    between atoms: C_1  and  C_2
REMARK    2  A    between atoms: C_2  and  C_3
REMARK    3  A    between atoms: C_2  and  C_4
REMARK    4  A    between atoms: C_4  and  C_5
REMARK    5  A    between atoms: C_7  and  C_8
REMARK    6  A    between atoms: C_8  and  N_9
REMARK    7  A    between atoms: C_12  and  C_13
REMARK    8  A    between atoms: C_19  and  C_20
REMARK                            x       y       z     vdW  Elec       q    Type
REMARK                         _______ _______ _______ _____ _____    ______ ____
ROOT
ATOM      1  N   UNL     1       4.417   5.392  17.242  0.00  0.00    +0.000 N 
ATOM      2  C   UNL     1       4.864   6.588  16.734  0.00  0.00    +0.000 A 
ATOM      3  N   UNL     1       4.179   7.598  17.203  0.00  0.00    +0.000 NA
ATOM      4  C   UNL     1       3.242   7.051  18.046  0.00  0.00    +0.000 A 
ATOM      5  C   UNL     1       3.322   5.652  18.058  0.00  0.00    +0.000 A 
ENDROOT
BRANCH   4   6
ATOM      6  C   UNL     1       2.259   7.903  18.708  0.00  0.00    +0.000 A 
ATOM      7  C   UNL     1       1.973   7.703  20.067  0.00  0.00    +0.000 A 
ATOM      8  C   UNL     1       1.079   8.541  20.738  0.00  0.00    +0.000 A 
ATOM      9  C   UNL     1       0.460   9.588  20.060  0.00  0.00    +0.000 A 
ATOM     10  C   UNL     1       0.696   9.767  18.702  0.00  0.00    +0.000 A 
ATOM     11  C   UNL     1       1.566   8.908  18.029  0.00  0.00    +0.000 A 
ENDBRANCH   4   6
BRANCH   5  12
ATOM     12  C   UNL     1       2.390   4.655  18.705  0.00  0.00    +0.000 C 
ATOM     13  C   UNL     1       1.596   3.723  17.816  0.00  0.00    +0.000 C 
ATOM     14  C   UNL     1       1.071   2.698  18.796  0.00  0.00    +0.000 C 
ATOM     15  O   UNL     1       2.052   2.592  19.836  0.00  0.00    +0.000 OA
ATOM     16  C   UNL     1       3.016   3.649  19.663  0.00  0.00    +0.000 C 
ENDBRANCH   5  12
BRANCH   1  17
ATOM     17  C   UNL     1       5.097   4.144  16.922  0.00  0.00    +0.000 C 
BRANCH  17  20
ATOM     18  C   UNL     1       6.593   4.097  13.560  0.00  0.00    +0.000 A 
ATOM     19  C   UNL     1       5.478   3.852  14.325  0.00  0.00    +0.000 A 
ATOM     20  C   UNL     1       5.866   4.204  15.641  0.00  0.00    +0.000 A 
ATOM     21  N   UNL     1       7.129   4.660  15.657  0.00  0.00    +0.000 NA
ATOM     22  O   UNL     1       7.581   4.586  14.355  0.00  0.00    +0.000 OA
BRANCH  18  23
ATOM     23  C   UNL     1       6.901   3.954  12.113  0.00  0.00    +0.000 C 
BRANCH  23  25
ATOM     24  C   UNL     1       6.113   1.573  11.649  0.00  0.00    +0.000 C 
ATOM     25  C   UNL     1       5.900   3.060  11.357  0.00  0.00    +0.000 C 
ATOM     26  C   UNL     1       4.467   3.454  11.728  0.00  0.00    +0.000 C 
ENDBRANCH  23  25
ENDBRANCH  18  23
ENDBRANCH  17  20
ENDBRANCH   1  17
TORSDOF 6
ENDMDL
MODEL 4
REMARK VINA RESULT:      -7.7      3.422      6.301
REMARK  Name = 
REMARK  8 active torsions:
REMARK  status: ('A' for Active; 'I' for Inactive)
REMARK    1  A    between atoms: C_1  and  C_2
REMARK    2  A    between atoms: C_2  and  C_3
REMARK    3  A    between atoms: C_2  and  C_4
REMARK    4  A    between atoms: C_4  and  C_5
REMARK    5  A    between atoms: C_7  and  C_8
REMARK    6  A    between atoms: C_8  and  N_9
REMARK    7  A    between atoms: C_12  and  C_13
REMARK    8  A    between atoms: C_19  and  C_20
REMARK                            x       y       z     vdW  Elec       q    Type
REMARK                         _______ _______ _______ _____ _____    ______ ____
ROOT
ATOM      1  N   UNL     1       5.479   5.714  16.997  0.00  0.00    +0.000 N 
ATOM      2  C   UNL     1       5.858   4.401  16.851  0.00  0.00    +0.000 A 
ATOM      3  N   UNL     1       5.004   3.586  17.414  0.00  0.00    +0.000 NA
ATOM      4  C   UNL     1       4.030   4.388  17.958  0.00  0.00    +0.000 A 
ATOM      5  C   UNL     1       4.320   5.746  17.764  0.00  0.00    +0.000 A 
ENDROOT
BRANCH   4   6
ATOM      6  C   UNL     1       2.932   3.802  18.720  0.00  0.00    +0.000 A 
ATOM      7  C   UNL     1       3.132   3.451  20.063  0.00  0.00    +0.000 A 
ATOM      8  C   UNL     1       2.081   2.941  20.831  0.00  0.00    +0.000 A 
ATOM      9  C   UNL     1       0.819   2.776  20.265  0.00  0.00    +0.000 A 
ATOM     10  C   UNL     1       0.619   3.075  18.922  0.00  0.00    +0.000 A 
ATOM     11  C   UNL     1       1.680   3.554  18.152  0.00  0.00    +0.000 A 
ENDBRANCH   4   6
BRANCH   5  12
ATOM     12  C   UNL     1       3.617   6.955  18.332  0.00  0.00    +0.000 C 
ATOM     13  C   UNL     1       2.681   7.737  17.436  0.00  0.00    +0.000 C 
ATOM     14  C   UNL     1       1.945   8.622  18.417  0.00  0.00    +0.000 C 
ATOM     15  O   UNL     1       1.870   7.888  19.646  0.00  0.00    +0.000 OA
ATOM     16  C   UNL     1       2.709   6.723  19.534  0.00  0.00    +0.000 C 
ENDBRANCH   5  12
BRANCH   1  17
ATOM     17  C   UNL     1       6.240   6.785  16.367  0.00  0.00    +0.000 C 
BRANCH  17  20
ATOM     18  C   UNL     1       8.430   8.890  18.444  0.00  0.00    +0.000 A 
ATOM     19  C   UNL     1       7.510   8.845  17.425  0.00  0.00    +0.000 A 
ATOM     20  C   UNL     1       7.175   7.474  17.308  0.00  0.00    +0.000 A 
ATOM     21  N   UNL     1       7.834   6.746  18.224  0.00  0.00    +0.000 NA
ATOM     22  O   UNL     1       8.622   7.635  18.928  0.00  0.00    +0.000 OA
BRANCH  18  23
ATOM     23  C   UNL     1       9.198   9.986  19.091  0.00  0.00    +0.000 C 
BRANCH  23  25
ATOM     24  C   UNL     1       8.822  12.209  17.899  0.00  0.00    +0.000 C 
ATOM     25  C   UNL     1       9.761  11.016  18.093  0.00  0.00    +0.000 C 
ATOM     26  C   UNL     1      11.128  11.512  18.573  0.00  0.00    +0.000 C 
ENDBRANCH  23  25
ENDBRANCH  18  23
ENDBRANCH  17  20
ENDBRANCH   1  17
TORSDOF 6
ENDMDL
MODEL 5
REMARK VINA RESULT:      -7.5      3.646      6.448
REMARK  Name = 
REMARK  8 active torsions:
REMARK  status: ('A' for Active; 'I' for Inactive)
REMARK    1  A    between atoms: C_1  and  C_2
REMARK    2  A    between atoms: C_2  and  C_3
REMARK    3  A    between atoms: C_2  and  C_4
REMARK    4  A    between atoms: C_4  and  C_5
REMARK    5  A    between atoms: C_7  and  C_8
REMARK    6  A    between atoms: C_8  and  N_9
REMARK    7  A    between atoms: C_12  and  C_13
REMARK    8  A    between atoms: C_19  and  C_20
REMARK                            x       y       z     vdW  Elec       q    Type
REMARK                         _______ _______ _______ _____ _____    ______ ____
ROOT
ATOM      1  N   UNL     1       5.619   5.726  17.666  0.00  0.00    +0.000 N 
ATOM      2  C   UNL     1       6.256   4.622  18.180  0.00  0.00    +0.000 A 
ATOM      3  N   UNL     1       5.425   3.835  18.812  0.00  0.00    +0.000 NA
ATOM      4  C   UNL     1       4.196   4.442  18.718  0.00  0.00    +0.000 A 
ATOM      5  C   UNL     1       4.283   5.670  18.047  0.00  0.00    +0.000 A 
ENDROOT
BRANCH   4   6
ATOM      6  C   UNL     1       3.031   3.854  19.371  0.00  0.00    +0.000 A 
ATOM      7  C   UNL     1       2.919   3.905  20.768  0.00  0.00    +0.000 A 
ATOM      8  C   UNL     1       1.786   3.399  21.412  0.00  0.00    +0.000 A 
ATOM      9  C   UNL     1       0.753   2.836  20.668  0.00  0.00    +0.000 A 
ATOM     10  C   UNL     1       0.872   2.735  19.286  0.00  0.00    +0.000 A 
ATOM     11  C   UNL     1       2.019   3.213  18.651  0.00  0.00    +0.000 A 
ENDBRANCH   4   6
BRANCH   5  12
ATOM     12  C   UNL     1       3.222   6.729  17.869  0.00  0.00    +0.000 C 
ATOM     13  C   UNL     1       2.516   7.263  19.097  0.00  0.00    +0.000 C 
ATOM     14  C   UNL     1       1.810   8.490  18.566  0.00  0.00    +0.000 C 
ATOM     15  O   UNL     1       2.629   9.002  17.508  0.00  0.00    +0.000 OA
ATOM     16  C   UNL     1       3.658   8.037  17.218  0.00  0.00    +0.000 C 
ENDBRANCH   5  12
BRANCH   1  17
ATOM     17  C   UNL     1       6.340   6.691  16.846  0.00  0.00    +0.000 C 
BRANCH  17  20
ATOM     18  C   UNL     1       8.541   9.132  18.502  0.00  0.00    +0.000 A 
ATOM     19  C   UNL     1       7.554   8.922  17.568  0.00  0.00    +0.000 A 
ATOM     20  C   UNL     1       7.296   7.531  17.630  0.00  0.00    +0.000 A 
ATOM     21  N   UNL     1       8.062   6.948  18.566  0.00  0.00    +0.000 NA
ATOM     22  O   UNL     1       8.843   7.952  19.105  0.00  0.00    +0.000 OA
BRANCH  18  23
ATOM     23  C   UNL     1       9.284  10.333  18.963  0.00  0.00    +0.000 C 
BRANCH  23  25
ATOM     24  C   UNL     1       8.748  12.592  17.906  0.00  0.00    +0.000 C 
ATOM     25  C   UNL     1       9.608  11.328  17.832  0.00  0.00    +0.000 C 
ATOM     26  C   UNL     1      11.090  11.713  17.885  0.00  0.00    +0.000 C 
ENDBRANCH  23  25
ENDBRANCH  18  23
ENDBRANCH  17  20
ENDBRANCH   1  17
TORSDOF 6
ENDMDL
MODEL 6
REMARK VINA RESULT:      -7.5      2.073      3.323
REMARK  Name = 
REMARK  8 active torsions:
REMARK  status: ('A' for Active; 'I' for Inactive)
REMARK    1  A    between atoms: C_1  and  C_2
REMARK    2  A    between atoms: C_2  and  C_3
REMARK    3  A    between atoms: C_2  and  C_4
REMARK    4  A    between atoms: C_4  and  C_5
REMARK    5  A    between atoms: C_7  and  C_8
REMARK    6  A    between atoms: C_8  and  N_9
REMARK    7  A    between atoms: C_12  and  C_13
REMARK    8  A    between atoms: C_19  and  C_20
REMARK                            x       y       z     vdW  Elec       q    Type
REMARK                         _______ _______ _______ _____ _____    ______ ____
ROOT
ATOM      1  N   UNL     1       4.774   4.470  17.819  0.00  0.00    +0.000 N 
ATOM      2  C   UNL     1       3.544   3.890  18.015  0.00  0.00    +0.000 A 
ATOM      3  N   UNL     1       2.634   4.778  18.319  0.00  0.00    +0.000 NA
ATOM      4  C   UNL     1       3.285   5.988  18.332  0.00  0.00    +0.000 A 
ATOM      5  C   UNL     1       4.654   5.832  18.074  0.00  0.00    +0.000 A 
ENDROOT
BRANCH   4   6
ATOM      6  C   UNL     1       2.570   7.207  18.693  0.00  0.00    +0.000 A 
ATOM      7  C   UNL     1       2.072   7.358  19.996  0.00  0.00    +0.000 A 
ATOM      8  C   UNL     1       1.434   8.540  20.382  0.00  0.00    +0.000 A 
ATOM      9  C   UNL     1       1.285   9.583  19.473  0.00  0.00    +0.000 A 
ATOM     10  C   UNL     1       1.730   9.429  18.164  0.00  0.00    +0.000 A 
ATOM     11  C   UNL     1       2.339   8.235  17.775  0.00  0.00    +0.000 A 
ENDBRANCH   4   6
BRANCH   5  12
ATOM     12  C   UNL     1       5.756   6.861  18.155  0.00  0.00    +0.000 C 
ATOM     13  C   UNL     1       7.132   6.416  18.600  0.00  0.00    +0.000 C 
ATOM     14  C   UNL     1       7.998   7.602  18.239  0.00  0.00    +0.000 C 
ATOM     15  O   UNL     1       7.399   8.202  17.082  0.00  0.00    +0.000 OA
ATOM     16  C   UNL     1       6.112   7.593  16.867  0.00  0.00    +0.000 C 
ENDBRANCH   5  12
BRANCH   1  17
ATOM     17  C   UNL     1       5.915   3.676  17.383  0.00  0.00    +0.000 C 
BRANCH  17  20
ATOM     18  C   UNL     1       6.351   3.844  13.732  0.00  0.00    +0.000 A 
ATOM     19  C   UNL     1       5.602   3.363  14.779  0.00  0.00    +0.000 A 
ATOM     20  C   UNL     1       6.244   3.866  15.937  0.00  0.00    +0.000 A 
ATOM     21  N   UNL     1       7.298   4.628  15.601  0.00  0.00    +0.000 NA
ATOM     22  O   UNL     1       7.364   4.607  14.222  0.00  0.00    +0.000 OA
BRANCH  18  23
ATOM     23  C   UNL     1       6.261   3.713  12.255  0.00  0.00    +0.000 C 
BRANCH  23  25
ATOM     24  C   UNL     1       4.149   3.142  10.943  0.00  0.00    +0.000 C 
ATOM     25  C   UNL     1       5.300   2.600  11.794  0.00  0.00    +0.000 C 
ATOM     26  C   UNL     1       6.071   1.543  10.997  0.00  0.00    +0.000 C 
ENDBRANCH  23  25
ENDBRANCH  18  23
ENDBRANCH  17  20
ENDBRANCH   1  17
TORSDOF 6
ENDMDL
MODEL 7
REMARK VINA RESULT:      -7.4      2.042      7.681
REMARK  Name = 
REMARK  8 active torsions:
REMARK  status: ('A' for Active; 'I' for Inactive)
REMARK    1  A    between atoms: C_1  and  C_2
REMARK    2  A    between atoms: C_2  and  C_3
REMARK    3  A    between atoms: C_2  and  C_4
REMARK    4  A    between atoms: C_4  and  C_5
REMARK    5  A    between atoms: C_7  and  C_8
REMARK    6  A    between atoms: C_8  and  N_9
REMARK    7  A    between atoms: C_12  and  C_13
REMARK    8  A    between atoms: C_19  and  C_20
REMARK                            x       y       z     vdW  Elec       q    Type
REMARK                         _______ _______ _______ _____ _____    ______ ____
ROOT
ATOM      1  N   UNL     1       4.734   4.459  17.865  0.00  0.00    +0.000 N 
ATOM      2  C   UNL     1       3.839   3.691  17.160  0.00  0.00    +0.000 A 
ATOM      3  N   UNL     1       4.224   3.514  15.923  0.00  0.00    +0.000 NA
ATOM      4  C   UNL     1       5.412   4.194  15.803  0.00  0.00    +0.000 A 
ATOM      5  C   UNL     1       5.745   4.852  16.995  0.00  0.00    +0.000 A 
ENDROOT
BRANCH   4   6
ATOM      6  C   UNL     1       6.101   4.253  14.519  0.00  0.00    +0.000 A 
ATOM      7  C   UNL     1       5.650   3.462  13.452  0.00  0.00    +0.000 A 
ATOM      8  C   UNL     1       6.258   3.543  12.196  0.00  0.00    +0.000 A 
ATOM      9  C   UNL     1       7.323   4.415  11.992  0.00  0.00    +0.000 A 
ATOM     10  C   UNL     1       7.813   5.170  13.052  0.00  0.00    +0.000 A 
ATOM     11  C   UNL     1       7.223   5.061  14.312  0.00  0.00    +0.000 A 
ENDBRANCH   4   6
BRANCH   5  12
ATOM     12  C   UNL     1       6.861   5.836  17.254  0.00  0.00    +0.000 C 
ATOM     13  C   UNL     1       6.540   7.315  17.250  0.00  0.00    +0.000 C 
ATOM     14  C   UNL     1       7.782   7.925  17.858  0.00  0.00    +0.000 C 
ATOM     15  O   UNL     1       8.301   6.955  18.778  0.00  0.00    +0.000 OA
ATOM     16  C   UNL     1       7.585   5.720  18.590  0.00  0.00    +0.000 C 
ENDBRANCH   5  12
BRANCH   1  17
ATOM     17  C   UNL     1       4.548   4.706  19.289  0.00  0.00    +0.000 C 
BRANCH  17  20
ATOM     18  C   UNL     1       2.145   7.467  19.677  0.00  0.00    +0.000 A 
ATOM     19  C   UNL     1       3.260   6.997  19.026  0.00  0.00    +0.000 A 
ATOM     20  C   UNL     1       3.478   5.710  19.576  0.00  0.00    +0.000 A 
ATOM     21  N   UNL     1       2.532   5.416  20.482  0.00  0.00    +0.000 NA
ATOM     22  O   UNL     1       1.704   6.520  20.546  0.00  0.00    +0.000 OA
BRANCH  18  23
ATOM     23  C   UNL     1       1.367   8.731  19.605  0.00  0.00    +0.000 C 
BRANCH  23  25
ATOM     24  C   UNL     1      -0.238   9.704  17.878  0.00  0.00    +0.000 C 
ATOM     25  C   UNL     1       1.201   9.271  18.172  0.00  0.00    +0.000 C 
ATOM     26  C   UNL     1       2.148  10.454  17.949  0.00  0.00    +0.000 C 
ENDBRANCH  23  25
ENDBRANCH  18  23
ENDBRANCH  17  20
ENDBRANCH   1  17
TORSDOF 6
ENDMDL
MODEL 8
REMARK VINA RESULT:      -7.4      1.767      3.824
REMARK  Name = 
REMARK  8 active torsions:
REMARK  status: ('A' for Active; 'I' for Inactive)
REMARK    1  A    between atoms: C_1  and  C_2
REMARK    2  A    between atoms: C_2  and  C_3
REMARK    3  A    between atoms: C_2  and  C_4
REMARK    4  A    between atoms: C_4  and  C_5
REMARK    5  A    between atoms: C_7  and  C_8
REMARK    6  A    between atoms: C_8  and  N_9
REMARK    7  A    between atoms: C_12  and  C_13
REMARK    8  A    between atoms: C_19  and  C_20
REMARK                            x       y       z     vdW  Elec       q    Type
REMARK                         _______ _______ _______ _____ _____    ______ ____
ROOT
ATOM      1  N   UNL     1       5.536   5.169  17.369  0.00  0.00    +0.000 N 
ATOM      2  C   UNL     1       5.938   3.862  17.507  0.00  0.00    +0.000 A 
ATOM      3  N   UNL     1       5.094   3.170  18.227  0.00  0.00    +0.000 NA
ATOM      4  C   UNL     1       4.102   4.051  18.584  0.00  0.00    +0.000 A 
ATOM      5  C   UNL     1       4.369   5.341  18.107  0.00  0.00    +0.000 A 
ENDROOT
BRANCH   4   6
ATOM      6  C   UNL     1       3.009   3.620  19.449  0.00  0.00    +0.000 A 
ATOM      7  C   UNL     1       3.278   3.252  20.775  0.00  0.00    +0.000 A 
ATOM      8  C   UNL     1       2.241   2.890  21.640  0.00  0.00    +0.000 A 
ATOM      9  C   UNL     1       0.924   2.892  21.190  0.00  0.00    +0.000 A 
ATOM     10  C   UNL     1       0.647   3.208  19.864  0.00  0.00    +0.000 A 
ATOM     11  C   UNL     1       1.689   3.537  18.996  0.00  0.00    +0.000 A 
ENDBRANCH   4   6
BRANCH   5  12
ATOM     12  C   UNL     1       3.641   6.631  18.402  0.00  0.00    +0.000 C 
ATOM     13  C   UNL     1       2.592   7.112  17.423  0.00  0.00    +0.000 C 
ATOM     14  C   UNL     1       1.883   8.196  18.203  0.00  0.00    +0.000 C 
ATOM     15  O   UNL     1       1.950   7.812  19.583  0.00  0.00    +0.000 OA
ATOM     16  C   UNL     1       2.847   6.691  19.701  0.00  0.00    +0.000 C 
ENDBRANCH   5  12
BRANCH   1  17
ATOM     17  C   UNL     1       6.282   6.096  16.529  0.00  0.00    +0.000 C 
BRANCH  17  20
ATOM     18  C   UNL     1       6.792   4.445  13.280  0.00  0.00    +0.000 A 
ATOM     19  C   UNL     1       5.932   4.685  14.324  0.00  0.00    +0.000 A 
ATOM     20  C   UNL     1       6.667   5.513  15.208  0.00  0.00    +0.000 A 
ATOM     21  N   UNL     1       7.885   5.777  14.706  0.00  0.00    +0.000 NA
ATOM     22  O   UNL     1       7.960   5.102  13.504  0.00  0.00    +0.000 OA
BRANCH  18  23
ATOM     23  C   UNL     1       6.689   3.664  12.020  0.00  0.00    +0.000 C 
BRANCH  23  25
ATOM     24  C   UNL     1       4.260   3.312  11.325  0.00  0.00    +0.000 C 
ATOM     25  C   UNL     1       5.492   2.695  11.993  0.00  0.00    +0.000 C 
ATOM     26  C   UNL     1       5.881   1.408  11.259  0.00  0.00    +0.000 C 
ENDBRANCH  23  25
ENDBRANCH  18  23
ENDBRANCH  17  20
ENDBRANCH   1  17
TORSDOF 6
ENDMDL
MODEL 9
REMARK VINA RESULT:      -7.4      2.016      7.469
REMARK  Name = 
REMARK  8 active torsions:
REMARK  status: ('A' for Active; 'I' for Inactive)
REMARK    1  A    between atoms: C_1  and  C_2
REMARK    2  A    between atoms: C_2  and  C_3
REMARK    3  A    between atoms: C_2  and  C_4
REMARK    4  A    between atoms: C_4  and  C_5
REMARK    5  A    between atoms: C_7  and  C_8
REMARK    6  A    between atoms: C_8  and  N_9
REMARK    7  A    between atoms: C_12  and  C_13
REMARK    8  A    between atoms: C_19  and  C_20
REMARK                            x       y       z     vdW  Elec       q    Type
REMARK                         _______ _______ _______ _____ _____    ______ ____
ROOT
ATOM      1  N   UNL     1       4.563   5.999  17.866  0.00  0.00    +0.000 N 
ATOM      2  C   UNL     1       5.402   7.004  17.449  0.00  0.00    +0.000 A 
ATOM      3  N   UNL     1       5.936   6.736  16.286  0.00  0.00    +0.000 NA
ATOM      4  C   UNL     1       5.438   5.508  15.923  0.00  0.00    +0.000 A 
ATOM      5  C   UNL     1       4.607   4.980  16.920  0.00  0.00    +0.000 A 
ENDROOT
BRANCH   4   6
ATOM      6  C   UNL     1       5.875   4.871  14.685  0.00  0.00    +0.000 A 
ATOM      7  C   UNL     1       5.003   4.008  14.006  0.00  0.00    +0.000 A 
ATOM      8  C   UNL     1       5.376   3.430  12.789  0.00  0.00    +0.000 A 
ATOM      9  C   UNL     1       6.624   3.709  12.237  0.00  0.00    +0.000 A 
ATOM     10  C   UNL     1       7.517   4.525  12.923  0.00  0.00    +0.000 A 
ATOM     11  C   UNL     1       7.151   5.073  14.154  0.00  0.00    +0.000 A 
ENDBRANCH   4   6
BRANCH   5  12
ATOM     12  C   UNL     1       3.990   3.605  17.010  0.00  0.00    +0.000 C 
ATOM     13  C   UNL     1       4.312   2.743  18.212  0.00  0.00    +0.000 C 
ATOM     14  C   UNL     1       3.286   1.637  18.112  0.00  0.00    +0.000 C 
ATOM     15  O   UNL     1       2.124   2.217  17.503  0.00  0.00    +0.000 OA
ATOM     16  C   UNL     1       2.468   3.532  17.025  0.00  0.00    +0.000 C 
ENDBRANCH   5  12
BRANCH   1  17
ATOM     17  C   UNL     1       3.792   6.131  19.095  0.00  0.00    +0.000 C 
BRANCH  17  20
ATOM     18  C   UNL     1       1.464   8.919  18.504  0.00  0.00    +0.000 A 
ATOM     19  C   UNL     1       2.410   8.080  17.968  0.00  0.00    +0.000 A 
ATOM     20  C   UNL     1       2.788   7.238  19.043  0.00  0.00    +0.000 A 
ATOM     21  N   UNL     1       2.088   7.538  20.149  0.00  0.00    +0.000 NA
ATOM     22  O   UNL     1       1.265   8.594  19.809  0.00  0.00    +0.000 OA
BRANCH  18  23
ATOM     23  C   UNL     1       0.652  10.038  17.958  0.00  0.00    +0.000 C 
BRANCH  23  25
ATOM     24  C   UNL     1      -0.963  11.343  19.440  0.00  0.00    +0.000 C 
ATOM     25  C   UNL     1      -0.768  10.113  18.549  0.00  0.00    +0.000 C 
ATOM     26  C   UNL     1      -1.803  10.132  17.419  0.00  0.00    +0.000 C 
ENDBRANCH  23  25
ENDBRANCH  18  23
ENDBRANCH  17  20
ENDBRANCH   1  17
TORSDOF 6
ENDMDL
