MODEL 1
REMARK VINA RESULT:      -9.5      0.000      0.000
REMARK  Name = 
REMARK  4 active torsions:
REMARK  status: ('A' for Active; 'I' for Inactive)
REMARK    1  A    between atoms: C_1  and  N_2
REMARK    2  A    between atoms: C_5  and  C_6
REMARK    3  A    between atoms: C_9  and  N_10
REMARK    4  A    between atoms: C_15  and  C_16
REMARK                            x       y       z     vdW  Elec       q    Type
REMARK                         _______ _______ _______ _____ _____    ______ ____
ROOT
ATOM      1  C   UNL     1       1.870  11.229  18.204  0.00  0.00    +0.000 C 
ATOM      2  N   UNL     1       1.041  10.509  19.186  0.00  0.00    +0.000 N 
ATOM      3  C   UNL     1       1.492   9.239  19.664  0.00  0.00    +0.000 A 
ATOM      4  N   UNL     1       2.280   8.530  18.814  0.00  0.00    +0.000 NA
ATOM      5  C   UNL     1       2.463   7.195  19.074  0.00  0.00    +0.000 A 
ATOM      6  C   UNL     1       1.809   6.567  20.166  0.00  0.00    +0.000 A 
ATOM      7  N   UNL     1       1.060   7.292  21.044  0.00  0.00    +0.000 NA
ATOM      8  C   UNL     1       0.894   8.608  20.746  0.00  0.00    +0.000 A 
ATOM      9  C   UNL     1      -0.093   9.334  21.598  0.00  0.00    +0.000 C 
ATOM     10  N   UNL     1      -0.751   8.619  22.574  0.00  0.00    +0.000 N 
ATOM     11  N   UNL     1      -0.355  10.601  21.489  0.00  0.00    +0.000 NA
ATOM     12  S   UNL     1       0.476  11.505  20.444  0.00  0.00    +0.000 S 
ATOM     13  O   UNL     1       1.654  11.980  21.135  0.00  0.00    +0.000 OA
ATOM     14  O   UNL     1      -0.426  12.460  19.828  0.00  0.00    +0.000 OA
ATOM     15  H   UNL     1      -0.309   7.747  22.855  0.00  0.00    +0.000 HD
ATOM     16  H   UNL     1      -1.130   9.174  23.332  0.00  0.00    +0.000 HD
ENDROOT
BRANCH   5  17
ATOM     17  C   UNL     1       3.310   6.491  18.075  0.00  0.00    +0.000 A 
ATOM     18  C   UNL     1       4.232   7.176  17.258  0.00  0.00    +0.000 A 
ATOM     19  C   UNL     1       5.205   6.492  16.520  0.00  0.00    +0.000 A 
ATOM     20  C   UNL     1       5.209   5.095  16.516  0.00  0.00    +0.000 A 
ATOM     21  C   UNL     1       4.225   4.386  17.211  0.00  0.00    +0.000 A 
ATOM     22  C   UNL     1       3.287   5.085  17.984  0.00  0.00    +0.000 A 
BRANCH  20  23
ATOM     23  N   UNL     1       6.273   4.373  15.806  0.00  0.00    +0.000 N 
ATOM     24  O   UNL     1       5.933   3.565  14.930  0.00  0.00    +0.000 OA
ATOM     25  O   UNL     1       7.447   4.627  16.113  0.00  0.00    +0.000 OA
ENDBRANCH  20  23
ENDBRANCH   5  17
BRANCH   6  26
ATOM     26  C   UNL     1       1.772   5.107  20.437  0.00  0.00    +0.000 A 
ATOM     27  C   UNL     1       0.911   4.265  19.708  0.00  0.00    +0.000 A 
ATOM     28  C   UNL     1       0.832   2.894  19.979  0.00  0.00    +0.000 A 
ATOM     29  C   UNL     1       1.598   2.337  20.999  0.00  0.00    +0.000 A 
ATOM     30  C   UNL     1       2.479   3.139  21.714  0.00  0.00    +0.000 A 
ATOM     31  C   UNL     1       2.593   4.497  21.405  0.00  0.00    +0.000 A 
ENDBRANCH   6  26
TORSDOF 3
ENDMDL
MODEL 2
REMARK VINA RESULT:      -9.5      0.106      1.064
REMARK  Name = 
REMARK  4 active torsions:
REMARK  status: ('A' for Active; 'I' for Inactive)
REMARK    1  A    between atoms: C_1  and  N_2
REMARK    2  A    between atoms: C_5  and  C_6
REMARK    3  A    between atoms: C_9  and  N_10
REMARK    4  A    between atoms: C_15  and  C_16
REMARK                            x       y       z     vdW  Elec       q    Type
REMARK                         _______ _______ _______ _____ _____    ______ ____
ROOT
ATOM      1  C   UNL     1       1.849  11.184  18.253  0.00  0.00    +0.000 C 
ATOM      2  N   UNL     1       1.018  10.459  19.232  0.00  0.00    +0.000 N 
ATOM      3  C   UNL     1       1.469   9.187  19.703  0.00  0.00    +0.000 A 
ATOM      4  N   UNL     1       2.257   8.482  18.851  0.00  0.00    +0.000 NA
ATOM      5  C   UNL     1       2.440   7.145  19.106  0.00  0.00    +0.000 A 
ATOM      6  C   UNL     1       1.786   6.512  20.193  0.00  0.00    +0.000 A 
ATOM      7  N   UNL     1       1.035   7.234  21.075  0.00  0.00    +0.000 NA
ATOM      8  C   UNL     1       0.870   8.551  20.782  0.00  0.00    +0.000 A 
ATOM      9  C   UNL     1      -0.117   9.274  21.637  0.00  0.00    +0.000 C 
ATOM     10  N   UNL     1      -0.776   8.554  22.609  0.00  0.00    +0.000 N 
ATOM     11  N   UNL     1      -0.379  10.541  21.534  0.00  0.00    +0.000 NA
ATOM     12  S   UNL     1       0.454  11.449  20.493  0.00  0.00    +0.000 S 
ATOM     13  O   UNL     1       1.631  11.921  21.187  0.00  0.00    +0.000 OA
ATOM     14  O   UNL     1      -0.448  12.407  19.881  0.00  0.00    +0.000 OA
ATOM     15  H   UNL     1      -0.334   7.681  22.886  0.00  0.00    +0.000 HD
ATOM     16  H   UNL     1      -1.155   9.106  23.370  0.00  0.00    +0.000 HD
ENDROOT
BRANCH   5  17
ATOM     17  C   UNL     1       3.287   6.446  18.103  0.00  0.00    +0.000 A 
ATOM     18  C   UNL     1       4.220   7.132  17.299  0.00  0.00    +0.000 A 
ATOM     19  C   UNL     1       5.192   6.448  16.560  0.00  0.00    +0.000 A 
ATOM     20  C   UNL     1       5.185   5.052  16.541  0.00  0.00    +0.000 A 
ATOM     21  C   UNL     1       4.191   4.343  17.221  0.00  0.00    +0.000 A 
ATOM     22  C   UNL     1       3.254   5.041  17.997  0.00  0.00    +0.000 A 
BRANCH  20  23
ATOM     23  N   UNL     1       6.247   4.328  15.829  0.00  0.00    +0.000 N 
ATOM     24  O   UNL     1       7.394   4.389  16.293  0.00  0.00    +0.000 OA
ATOM     25  O   UNL     1       5.930   3.687  14.817  0.00  0.00    +0.000 OA
ENDBRANCH  20  23
ENDBRANCH   5  17
BRANCH   6  26
ATOM     26  C   UNL     1       1.748   5.052  20.458  0.00  0.00    +0.000 A 
ATOM     27  C   UNL     1       2.607   4.474  21.411  0.00  0.00    +0.000 A 
ATOM     28  C   UNL     1       2.615   3.093  21.644  0.00  0.00    +0.000 A 
ATOM     29  C   UNL     1       1.776   2.257  20.914  0.00  0.00    +0.000 A 
ATOM     30  C   UNL     1       0.895   2.802  19.989  0.00  0.00    +0.000 A 
ATOM     31  C   UNL     1       0.854   4.187  19.798  0.00  0.00    +0.000 A 
ENDBRANCH   6  26
TORSDOF 3
ENDMDL
MODEL 3
REMARK VINA RESULT:      -8.9      0.508      1.016
REMARK  Name = 
REMARK  4 active torsions:
REMARK  status: ('A' for Active; 'I' for Inactive)
REMARK    1  A    between atoms: C_1  and  N_2
REMARK    2  A    between atoms: C_5  and  C_6
REMARK    3  A    between atoms: C_9  and  N_10
REMARK    4  A    between atoms: C_15  and  C_16
REMARK                            x       y       z     vdW  Elec       q    Type
REMARK                         _______ _______ _______ _____ _____    ______ ____
ROOT
ATOM      1  C   UNL     1       2.174  11.080  17.951  0.00  0.00    +0.000 C 
ATOM      2  N   UNL     1       1.261  10.396  18.884  0.00  0.00    +0.000 N 
ATOM      3  C   UNL     1       1.665   9.142  19.441  0.00  0.00    +0.000 A 
ATOM      4  N   UNL     1       2.517   8.403  18.684  0.00  0.00    +0.000 NA
ATOM      5  C   UNL     1       2.671   7.077  19.004  0.00  0.00    +0.000 A 
ATOM      6  C   UNL     1       1.926   6.488  20.058  0.00  0.00    +0.000 A 
ATOM      7  N   UNL     1       1.110   7.245  20.846  0.00  0.00    +0.000 NA
ATOM      8  C   UNL     1       0.976   8.550  20.490  0.00  0.00    +0.000 A 
ATOM      9  C   UNL     1      -0.075   9.307  21.232  0.00  0.00    +0.000 C 
ATOM     10  N   UNL     1      -0.815   8.627  22.173  0.00  0.00    +0.000 N 
ATOM     11  N   UNL     1      -0.320  10.571  21.059  0.00  0.00    +0.000 NA
ATOM     12  S   UNL     1       0.600  11.436  20.056  0.00  0.00    +0.000 S 
ATOM     13  O   UNL     1       1.718  11.932  20.826  0.00  0.00    +0.000 OA
ATOM     14  O   UNL     1      -0.243  12.371  19.335  0.00  0.00    +0.000 OA
ATOM     15  H   UNL     1      -0.402   7.765  22.519  0.00  0.00    +0.000 HD
ATOM     16  H   UNL     1      -1.253   9.209  22.878  0.00  0.00    +0.000 HD
ENDROOT
BRANCH   5  17
ATOM     17  C   UNL     1       3.594   6.337  18.103  0.00  0.00    +0.000 A 
ATOM     18  C   UNL     1       3.357   5.002  17.717  0.00  0.00    +0.000 A 
ATOM     19  C   UNL     1       4.071   4.404  16.672  0.00  0.00    +0.000 A 
ATOM     20  C   UNL     1       5.106   5.110  16.055  0.00  0.00    +0.000 A 
ATOM     21  C   UNL     1       5.453   6.387  16.503  0.00  0.00    +0.000 A 
ATOM     22  C   UNL     1       4.697   6.991  17.518  0.00  0.00    +0.000 A 
BRANCH  20  23
ATOM     23  N   UNL     1       5.808   4.517  14.908  0.00  0.00    +0.000 N 
ATOM     24  O   UNL     1       5.125   4.174  13.932  0.00  0.00    +0.000 OA
ATOM     25  O   UNL     1       7.041   4.412  14.978  0.00  0.00    +0.000 OA
ENDBRANCH  20  23
ENDBRANCH   5  17
BRANCH   6  26
ATOM     26  C   UNL     1       1.859   5.039  20.375  0.00  0.00    +0.000 A 
ATOM     27  C   UNL     1       0.973   4.194  19.679  0.00  0.00    +0.000 A 
ATOM     28  C   UNL     1       0.866   2.834  19.993  0.00  0.00    +0.000 A 
ATOM     29  C   UNL     1       1.628   2.292  21.023  0.00  0.00    +0.000 A 
ATOM     30  C   UNL     1       2.533   3.095  21.706  0.00  0.00    +0.000 A 
ATOM     31  C   UNL     1       2.675   4.440  21.354  0.00  0.00    +0.000 A 
ENDBRANCH   6  26
TORSDOF 3
ENDMDL
MODEL 4
REMARK VINA RESULT:      -8.9      0.492      1.455
REMARK  Name = 
REMARK  4 active torsions:
REMARK  status: ('A' for Active; 'I' for Inactive)
REMARK    1  A    between atoms: C_1  and  N_2
REMARK    2  A    between atoms: C_5  and  C_6
REMARK    3  A    between atoms: C_9  and  N_10
REMARK    4  A    between atoms: C_15  and  C_16
REMARK                            x       y       z     vdW  Elec       q    Type
REMARK                         _______ _______ _______ _____ _____    ______ ____
ROOT
ATOM      1  C   UNL     1       2.164  11.088  18.000  0.00  0.00    +0.000 C 
ATOM      2  N   UNL     1       1.246  10.405  18.929  0.00  0.00    +0.000 N 
ATOM      3  C   UNL     1       1.642   9.146  19.481  0.00  0.00    +0.000 A 
ATOM      4  N   UNL     1       2.491   8.406  18.723  0.00  0.00    +0.000 NA
ATOM      5  C   UNL     1       2.637   7.078  19.037  0.00  0.00    +0.000 A 
ATOM      6  C   UNL     1       1.887   6.488  20.087  0.00  0.00    +0.000 A 
ATOM      7  N   UNL     1       1.073   7.246  20.877  0.00  0.00    +0.000 NA
ATOM      8  C   UNL     1       0.947   8.554  20.526  0.00  0.00    +0.000 A 
ATOM      9  C   UNL     1      -0.101   9.314  21.269  0.00  0.00    +0.000 C 
ATOM     10  N   UNL     1      -0.847   8.634  22.206  0.00  0.00    +0.000 N 
ATOM     11  N   UNL     1      -0.339  10.579  21.101  0.00  0.00    +0.000 NA
ATOM     12  S   UNL     1       0.588  11.443  20.104  0.00  0.00    +0.000 S 
ATOM     13  O   UNL     1       1.708  11.930  20.878  0.00  0.00    +0.000 OA
ATOM     14  O   UNL     1      -0.248  12.386  19.385  0.00  0.00    +0.000 OA
ATOM     15  H   UNL     1      -0.440   7.768  22.550  0.00  0.00    +0.000 HD
ATOM     16  H   UNL     1      -1.283   9.215  22.913  0.00  0.00    +0.000 HD
ENDROOT
BRANCH   5  17
ATOM     17  C   UNL     1       3.558   6.337  18.135  0.00  0.00    +0.000 A 
ATOM     18  C   UNL     1       3.344   4.987  17.788  0.00  0.00    +0.000 A 
ATOM     19  C   UNL     1       4.050   4.379  16.743  0.00  0.00    +0.000 A 
ATOM     20  C   UNL     1       5.054   5.092  16.086  0.00  0.00    +0.000 A 
ATOM     21  C   UNL     1       5.381   6.388  16.495  0.00  0.00    +0.000 A 
ATOM     22  C   UNL     1       4.633   7.001  17.510  0.00  0.00    +0.000 A 
BRANCH  20  23
ATOM     23  N   UNL     1       5.745   4.487  14.939  0.00  0.00    +0.000 N 
ATOM     24  O   UNL     1       6.968   4.308  15.034  0.00  0.00    +0.000 OA
ATOM     25  O   UNL     1       5.062   4.175  13.953  0.00  0.00    +0.000 OA
ENDBRANCH  20  23
ENDBRANCH   5  17
BRANCH   6  26
ATOM     26  C   UNL     1       1.811   5.038  20.398  0.00  0.00    +0.000 A 
ATOM     27  C   UNL     1       2.641   4.472  21.383  0.00  0.00    +0.000 A 
ATOM     28  C   UNL     1       2.613   3.100  21.660  0.00  0.00    +0.000 A 
ATOM     29  C   UNL     1       1.767   2.260  20.943  0.00  0.00    +0.000 A 
ATOM     30  C   UNL     1       0.914   2.795  19.985  0.00  0.00    +0.000 A 
ATOM     31  C   UNL     1       0.908   4.173  19.750  0.00  0.00    +0.000 A 
ENDBRANCH   6  26
TORSDOF 3
ENDMDL
MODEL 5
REMARK VINA RESULT:      -8.2      4.194      6.664
REMARK  Name = 
REMARK  4 active torsions:
REMARK  status: ('A' for Active; 'I' for Inactive)
REMARK    1  A    between atoms: C_1  and  N_2
REMARK    2  A    between atoms: C_5  and  C_6
REMARK    3  A    between atoms: C_9  and  N_10
REMARK    4  A    between atoms: C_15  and  C_16
REMARK                            x       y       z     vdW  Elec       q    Type
REMARK                         _______ _______ _______ _____ _____    ______ ____
ROOT
ATOM      1  C   UNL     1       4.260  14.379  19.103  0.00  0.00    +0.000 C 
ATOM      2  N   UNL     1       2.952  14.916  18.686  0.00  0.00    +0.000 N 
ATOM      3  C   UNL     1       1.779  14.141  18.947  0.00  0.00    +0.000 A 
ATOM      4  N   UNL     1       1.956  12.796  19.005  0.00  0.00    +0.000 NA
ATOM      5  C   UNL     1       0.841  12.000  18.920  0.00  0.00    +0.000 A 
ATOM      6  C   UNL     1      -0.447  12.563  18.728  0.00  0.00    +0.000 A 
ATOM      7  N   UNL     1      -0.626  13.915  18.720  0.00  0.00    +0.000 NA
ATOM      8  C   UNL     1       0.504  14.669  18.796  0.00  0.00    +0.000 A 
ATOM      9  C   UNL     1       0.307  16.132  18.578  0.00  0.00    +0.000 C 
ATOM     10  N   UNL     1      -0.966  16.577  18.303  0.00  0.00    +0.000 N 
ATOM     11  N   UNL     1       1.259  17.012  18.651  0.00  0.00    +0.000 NA
ATOM     12  S   UNL     1       2.742  16.555  19.089  0.00  0.00    +0.000 S 
ATOM     13  O   UNL     1       2.800  16.621  20.532  0.00  0.00    +0.000 OA
ATOM     14  O   UNL     1       3.712  17.291  18.299  0.00  0.00    +0.000 OA
ATOM     15  H   UNL     1      -1.720  15.949  18.570  0.00  0.00    +0.000 HD
ATOM     16  H   UNL     1      -1.132  17.557  18.501  0.00  0.00    +0.000 HD
ENDROOT
BRANCH   5  17
ATOM     17  C   UNL     1       1.131  10.541  18.957  0.00  0.00    +0.000 A 
ATOM     18  C   UNL     1       1.775   9.878  17.892  0.00  0.00    +0.000 A 
ATOM     19  C   UNL     1       2.282   8.580  18.038  0.00  0.00    +0.000 A 
ATOM     20  C   UNL     1       2.066   7.889  19.232  0.00  0.00    +0.000 A 
ATOM     21  C   UNL     1       1.316   8.471  20.258  0.00  0.00    +0.000 A 
ATOM     22  C   UNL     1       0.857   9.788  20.116  0.00  0.00    +0.000 A 
BRANCH  20  23
ATOM     23  N   UNL     1       2.660   6.558  19.418  0.00  0.00    +0.000 N 
ATOM     24  O   UNL     1       2.170   5.828  20.292  0.00  0.00    +0.000 OA
ATOM     25  O   UNL     1       3.603   6.239  18.680  0.00  0.00    +0.000 OA
ENDBRANCH  20  23
ENDBRANCH   5  17
BRANCH   6  26
ATOM     26  C   UNL     1      -1.692  11.811  18.431  0.00  0.00    +0.000 A 
ATOM     27  C   UNL     1      -1.680  10.734  17.524  0.00  0.00    +0.000 A 
ATOM     28  C   UNL     1      -2.852  10.040  17.200  0.00  0.00    +0.000 A 
ATOM     29  C   UNL     1      -4.067  10.421  17.761  0.00  0.00    +0.000 A 
ATOM     30  C   UNL     1      -4.105  11.461  18.682  0.00  0.00    +0.000 A 
ATOM     31  C   UNL     1      -2.924  12.116  19.043  0.00  0.00    +0.000 A 
ENDBRANCH   6  26
TORSDOF 3
ENDMDL
MODEL 6
REMARK VINA RESULT:      -8.1      6.255      8.614
REMARK  Name = 
REMARK  4 active torsions:
REMARK  status: ('A' for Active; 'I' for Inactive)
REMARK    1  A    between atoms: C_1  and  N_2
REMARK    2  A    between atoms: C_5  and  C_6
REMARK    3  A    between atoms: C_9  and  N_10
REMARK    4  A    between atoms: C_15  and  C_16
REMARK                            x       y       z     vdW  Elec       q    Type
REMARK                         _______ _______ _______ _____ _____    ______ ____
ROOT
ATOM      1  C   UNL     1      -0.299  16.883  18.103  0.00  0.00    +0.000 C 
ATOM      2  N   UNL     1       0.610  16.289  19.099  0.00  0.00    +0.000 N 
ATOM      3  C   UNL     1       0.553  14.878  19.323  0.00  0.00    +0.000 A 
ATOM      4  N   UNL     1      -0.645  14.286  19.082  0.00  0.00    +0.000 NA
ATOM      5  C   UNL     1      -0.849  13.026  19.587  0.00  0.00    +0.000 A 
ATOM      6  C   UNL     1       0.141  12.385  20.376  0.00  0.00    +0.000 A 
ATOM      7  N   UNL     1       1.360  12.963  20.573  0.00  0.00    +0.000 NA
ATOM      8  C   UNL     1       1.519  14.215  20.067  0.00  0.00    +0.000 A 
ATOM      9  C   UNL     1       2.778  14.909  20.469  0.00  0.00    +0.000 C 
ATOM     10  N   UNL     1       3.637  14.245  21.316  0.00  0.00    +0.000 N 
ATOM     11  N   UNL     1       3.122  16.090  20.054  0.00  0.00    +0.000 NA
ATOM     12  S   UNL     1       2.208  16.856  18.968  0.00  0.00    +0.000 S 
ATOM     13  O   UNL     1       2.669  16.447  17.660  0.00  0.00    +0.000 OA
ATOM     14  O   UNL     1       2.164  18.267  19.303  0.00  0.00    +0.000 OA
ATOM     15  H   UNL     1       3.520  13.236  21.360  0.00  0.00    +0.000 HD
ATOM     16  H   UNL     1       4.598  14.567  21.294  0.00  0.00    +0.000 HD
ENDROOT
BRANCH   5  17
ATOM     17  C   UNL     1      -2.199  12.469  19.305  0.00  0.00    +0.000 A 
ATOM     18  C   UNL     1      -3.311  12.749  20.125  0.00  0.00    +0.000 A 
ATOM     19  C   UNL     1      -4.616  12.449  19.715  0.00  0.00    +0.000 A 
ATOM     20  C   UNL     1      -4.821  11.775  18.510  0.00  0.00    +0.000 A 
ATOM     21  C   UNL     1      -3.729  11.367  17.737  0.00  0.00    +0.000 A 
ATOM     22  C   UNL     1      -2.432  11.717  18.136  0.00  0.00    +0.000 A 
BRANCH  20  23
ATOM     23  N   UNL     1      -6.189  11.526  18.038  0.00  0.00    +0.000 N 
ATOM     24  O   UNL     1      -6.772  10.521  18.470  0.00  0.00    +0.000 OA
ATOM     25  O   UNL     1      -6.686  12.345  17.251  0.00  0.00    +0.000 OA
ENDBRANCH  20  23
ENDBRANCH   5  17
BRANCH   6  26
ATOM     26  C   UNL     1      -0.031  11.119  21.131  0.00  0.00    +0.000 A 
ATOM     27  C   UNL     1      -0.566  11.128  22.434  0.00  0.00    +0.000 A 
ATOM     28  C   UNL     1      -0.696   9.949  23.177  0.00  0.00    +0.000 A 
ATOM     29  C   UNL     1      -0.275   8.736  22.641  0.00  0.00    +0.000 A 
ATOM     30  C   UNL     1       0.228   8.691  21.347  0.00  0.00    +0.000 A 
ATOM     31  C   UNL     1       0.307   9.863  20.589  0.00  0.00    +0.000 A 
ENDBRANCH   6  26
TORSDOF 3
ENDMDL
MODEL 7
REMARK VINA RESULT:      -8.0      6.265      8.536
REMARK  Name = 
REMARK  4 active torsions:
REMARK  status: ('A' for Active; 'I' for Inactive)
REMARK    1  A    between atoms: C_1  and  N_2
REMARK    2  A    between atoms: C_5  and  C_6
REMARK    3  A    between atoms: C_9  and  N_10
REMARK    4  A    between atoms: C_15  and  C_16
REMARK                            x       y       z     vdW  Elec       q    Type
REMARK                         _______ _______ _______ _____ _____    ______ ____
ROOT
ATOM      1  C   UNL     1      -0.075  16.965  18.327  0.00  0.00    +0.000 C 
ATOM      2  N   UNL     1       0.805  16.360  19.343  0.00  0.00    +0.000 N 
ATOM      3  C   UNL     1       0.750  14.945  19.540  0.00  0.00    +0.000 A 
ATOM      4  N   UNL     1      -0.435  14.349  19.248  0.00  0.00    +0.000 NA
ATOM      5  C   UNL     1      -0.647  13.079  19.723  0.00  0.00    +0.000 A 
ATOM      6  C   UNL     1       0.319  12.431  20.535  0.00  0.00    +0.000 A 
ATOM      7  N   UNL     1       1.527  13.013  20.783  0.00  0.00    +0.000 NA
ATOM      8  C   UNL     1       1.695  14.274  20.305  0.00  0.00    +0.000 A 
ATOM      9  C   UNL     1       2.934  14.969  20.761  0.00  0.00    +0.000 C 
ATOM     10  N   UNL     1       3.769  14.296  21.626  0.00  0.00    +0.000 N 
ATOM     11  N   UNL     1       3.284  16.159  20.379  0.00  0.00    +0.000 NA
ATOM     12  S   UNL     1       2.402  16.938  19.276  0.00  0.00    +0.000 S 
ATOM     13  O   UNL     1       2.910  16.556  17.978  0.00  0.00    +0.000 OA
ATOM     14  O   UNL     1       2.338  18.343  19.634  0.00  0.00    +0.000 OA
ATOM     15  H   UNL     1       3.657  13.285  21.648  0.00  0.00    +0.000 HD
ATOM     16  H   UNL     1       4.728  14.624  21.641  0.00  0.00    +0.000 HD
ENDROOT
BRANCH   5  17
ATOM     17  C   UNL     1      -1.983  12.519  19.387  0.00  0.00    +0.000 A 
ATOM     18  C   UNL     1      -3.121  12.762  20.183  0.00  0.00    +0.000 A 
ATOM     19  C   UNL     1      -4.411  12.464  19.727  0.00  0.00    +0.000 A 
ATOM     20  C   UNL     1      -4.574  11.826  18.496  0.00  0.00    +0.000 A 
ATOM     21  C   UNL     1      -3.458  11.452  17.742  0.00  0.00    +0.000 A 
ATOM     22  C   UNL     1      -2.175  11.801  18.189  0.00  0.00    +0.000 A 
BRANCH  20  23
ATOM     23  N   UNL     1      -5.927  11.579  17.978  0.00  0.00    +0.000 N 
ATOM     24  O   UNL     1      -6.355  12.344  17.102  0.00  0.00    +0.000 OA
ATOM     25  O   UNL     1      -6.552  10.612  18.436  0.00  0.00    +0.000 OA
ENDBRANCH  20  23
ENDBRANCH   5  17
BRANCH   6  26
ATOM     26  C   UNL     1       0.131  11.150  21.262  0.00  0.00    +0.000 A 
ATOM     27  C   UNL     1       0.578   9.937  20.704  0.00  0.00    +0.000 A 
ATOM     28  C   UNL     1       0.371   8.716  21.356  0.00  0.00    +0.000 A 
ATOM     29  C   UNL     1      -0.305   8.678  22.571  0.00  0.00    +0.000 A 
ATOM     30  C   UNL     1      -0.732   9.861  23.160  0.00  0.00    +0.000 A 
ATOM     31  C   UNL     1      -0.476  11.084  22.531  0.00  0.00    +0.000 A 
ENDBRANCH   6  26
TORSDOF 3
ENDMDL
MODEL 8
REMARK VINA RESULT:      -8.0      3.885      6.134
REMARK  Name = 
REMARK  4 active torsions:
REMARK  status: ('A' for Active; 'I' for Inactive)
REMARK    1  A    between atoms: C_1  and  N_2
REMARK    2  A    between atoms: C_5  and  C_6
REMARK    3  A    between atoms: C_9  and  N_10
REMARK    4  A    between atoms: C_15  and  C_16
REMARK                            x       y       z     vdW  Elec       q    Type
REMARK                         _______ _______ _______ _____ _____    ______ ____
ROOT
ATOM      1  C   UNL     1       3.424  13.879  21.332  0.00  0.00    +0.000 C 
ATOM      2  N   UNL     1       2.240  14.442  20.658  0.00  0.00    +0.000 N 
ATOM      3  C   UNL     1       1.172  13.562  20.300  0.00  0.00    +0.000 A 
ATOM      4  N   UNL     1       1.521  12.271  20.061  0.00  0.00    +0.000 NA
ATOM      5  C   UNL     1       0.616  11.475  19.404  0.00  0.00    +0.000 A 
ATOM      6  C   UNL     1      -0.621  11.998  18.946  0.00  0.00    +0.000 A 
ATOM      7  N   UNL     1      -0.987  13.280  19.233  0.00  0.00    +0.000 NA
ATOM      8  C   UNL     1      -0.060  14.039  19.875  0.00  0.00    +0.000 A 
ATOM      9  C   UNL     1      -0.396  15.488  19.994  0.00  0.00    +0.000 C 
ATOM     10  N   UNL     1      -1.577  15.923  19.436  0.00  0.00    +0.000 N 
ATOM     11  N   UNL     1       0.346  16.359  20.608  0.00  0.00    +0.000 NA
ATOM     12  S   UNL     1       1.677  15.875  21.381  0.00  0.00    +0.000 S 
ATOM     13  O   UNL     1       1.282  15.515  22.724  0.00  0.00    +0.000 OA
ATOM     14  O   UNL     1       2.721  16.864  21.182  0.00  0.00    +0.000 OA
ATOM     15  H   UNL     1      -2.274  15.204  19.262  0.00  0.00    +0.000 HD
ATOM     16  H   UNL     1      -1.938  16.791  19.816  0.00  0.00    +0.000 HD
ENDROOT
BRANCH   5  17
ATOM     17  C   UNL     1       1.095  10.089  19.153  0.00  0.00    +0.000 A 
ATOM     18  C   UNL     1       1.643   9.697  17.914  0.00  0.00    +0.000 A 
ATOM     19  C   UNL     1       2.330   8.486  17.768  0.00  0.00    +0.000 A 
ATOM     20  C   UNL     1       2.398   7.600  18.845  0.00  0.00    +0.000 A 
ATOM     21  C   UNL     1       1.750   7.902  20.047  0.00  0.00    +0.000 A 
ATOM     22  C   UNL     1       1.108   9.139  20.194  0.00  0.00    +0.000 A 
BRANCH  20  23
ATOM     23  N   UNL     1       3.181   6.363  18.722  0.00  0.00    +0.000 N 
ATOM     24  O   UNL     1       3.921   6.248  17.735  0.00  0.00    +0.000 OA
ATOM     25  O   UNL     1       3.067   5.517  19.620  0.00  0.00    +0.000 OA
ENDBRANCH  20  23
ENDBRANCH   5  17
BRANCH   6  26
ATOM     26  C   UNL     1      -1.590  11.299  18.065  0.00  0.00    +0.000 A 
ATOM     27  C   UNL     1      -2.302  10.177  18.530  0.00  0.00    +0.000 A 
ATOM     28  C   UNL     1      -3.188   9.481  17.700  0.00  0.00    +0.000 A 
ATOM     29  C   UNL     1      -3.369   9.880  16.379  0.00  0.00    +0.000 A 
ATOM     30  C   UNL     1      -2.704  11.003  15.902  0.00  0.00    +0.000 A 
ATOM     31  C   UNL     1      -1.860  11.726  16.750  0.00  0.00    +0.000 A 
ENDBRANCH   6  26
TORSDOF 3
ENDMDL
MODEL 9
REMARK VINA RESULT:      -7.9      6.704      8.728
REMARK  Name = 
REMARK  4 active torsions:
REMARK  status: ('A' for Active; 'I' for Inactive)
REMARK    1  A    between atoms: C_1  and  N_2
REMARK    2  A    between atoms: C_5  and  C_6
REMARK    3  A    between atoms: C_9  and  N_10
REMARK    4  A    between atoms: C_15  and  C_16
REMARK                            x       y       z     vdW  Elec       q    Type
REMARK                         _______ _______ _______ _____ _____    ______ ____
ROOT
ATOM      1  C   UNL     1      -4.495  14.437  23.583  0.00  0.00    +0.000 C 
ATOM      2  N   UNL     1      -5.376  13.870  22.546  0.00  0.00    +0.000 N 
ATOM      3  C   UNL     1      -4.819  12.955  21.598  0.00  0.00    +0.000 A 
ATOM      4  N   UNL     1      -3.495  13.107  21.334  0.00  0.00    +0.000 NA
ATOM      5  C   UNL     1      -2.992  12.494  20.214  0.00  0.00    +0.000 A 
ATOM      6  C   UNL     1      -3.837  11.768  19.335  0.00  0.00    +0.000 A 
ATOM      7  N   UNL     1      -5.155  11.577  19.631  0.00  0.00    +0.000 NA
ATOM      8  C   UNL     1      -5.617  12.209  20.743  0.00  0.00    +0.000 A 
ATOM      9  C   UNL     1      -7.096  12.160  20.934  0.00  0.00    +0.000 C 
ATOM     10  N   UNL     1      -7.848  11.513  19.978  0.00  0.00    +0.000 N 
ATOM     11  N   UNL     1      -7.716  12.670  21.955  0.00  0.00    +0.000 NA
ATOM     12  S   UNL     1      -6.868  13.331  23.158  0.00  0.00    +0.000 S 
ATOM     13  O   UNL     1      -6.558  12.272  24.091  0.00  0.00    +0.000 OA
ATOM     14  O   UNL     1      -7.564  14.516  23.625  0.00  0.00    +0.000 OA
ATOM     15  H   UNL     1      -7.341  10.858  19.388  0.00  0.00    +0.000 HD
ATOM     16  H   UNL     1      -8.760  11.197  20.289  0.00  0.00    +0.000 HD
ENDROOT
BRANCH   5  17
ATOM     17  C   UNL     1      -1.544  12.742  19.983  0.00  0.00    +0.000 A 
ATOM     18  C   UNL     1      -0.544  11.912  20.532  0.00  0.00    +0.000 A 
ATOM     19  C   UNL     1       0.786  11.986  20.101  0.00  0.00    +0.000 A 
ATOM     20  C   UNL     1       1.155  12.963  19.173  0.00  0.00    +0.000 A 
ATOM     21  C   UNL     1       0.213  13.886  18.710  0.00  0.00    +0.000 A 
ATOM     22  C   UNL     1      -1.125  13.769  19.114  0.00  0.00    +0.000 A 
BRANCH  20  23
ATOM     23  N   UNL     1       2.531  12.996  18.660  0.00  0.00    +0.000 N 
ATOM     24  O   UNL     1       3.267  13.915  19.049  0.00  0.00    +0.000 OA
ATOM     25  O   UNL     1       2.879  12.095  17.884  0.00  0.00    +0.000 OA
ENDBRANCH  20  23
ENDBRANCH   5  17
BRANCH   6  26
ATOM     26  C   UNL     1      -3.456  11.228  18.006  0.00  0.00    +0.000 A 
ATOM     27  C   UNL     1      -4.193  11.570  16.856  0.00  0.00    +0.000 A 
ATOM     28  C   UNL     1      -3.874  11.037  15.601  0.00  0.00    +0.000 A 
ATOM     29  C   UNL     1      -2.823  10.135  15.472  0.00  0.00    +0.000 A 
ATOM     30  C   UNL     1      -2.059   9.802  16.584  0.00  0.00    +0.000 A 
ATOM     31  C   UNL     1      -2.348  10.378  17.825  0.00  0.00    +0.000 A 
ENDBRANCH   6  26
TORSDOF 3
ENDMDL
