MODEL 1
REMARK VINA RESULT:      -6.7      0.000      0.000
REMARK  Name = 
REMARK  6 active torsions:
REMARK  status: ('A' for Active; 'I' for Inactive)
REMARK    1  A    between atoms: C_2  and  OXT_3
REMARK    2  A    between atoms: C_2  and  CA_4
REMARK    3  A    between atoms: CA_4  and  N_5
REMARK    4  A    between atoms: C_6  and  CA_8
REMARK    5  A    between atoms: CA_8  and  N_9
REMARK    6  A    between atoms: C_10  and  CA_12
REMARK                            x       y       z     vdW  Elec       q    Type
REMARK                         _______ _______ _______ _____ _____    ______ ____
ROOT
ATOM      1  CA  PRO A   1       6.748   4.395  16.350  0.00  0.00    +0.000 C 
ENDROOT
BRANCH   1   3
ATOM      2  N   PRO A   1       6.195   3.652  14.069  0.00  0.00    +0.000 N 
ATOM      3  C   PRO A   1       6.922   4.551  14.837  0.00  0.00    +0.000 C 
ATOM      4  O   PRO A   1       7.607   5.442  14.344  0.00  0.00    +0.000 OA
ATOM      5  H   PRO A   1       5.832   2.840  14.559  0.00  0.00    +0.000 HD
BRANCH   2   6
ATOM      6  CA  PRO A   1       6.455   3.601  12.634  0.00  0.00    +0.000 C 
BRANCH   6   8
ATOM      7  O   PRO A   1       4.366   3.147  11.483  0.00  0.00    +0.000 OA
ATOM      8  C   PRO A   1       5.479   2.762  11.819  0.00  0.00    +0.000 C 
BRANCH   8   9
ATOM      9  OXT PRO A   1       5.907   1.504  11.575  0.00  0.00    +0.000 OA
ATOM     10  HXT PRO A   1       6.358   1.110  12.346  0.00  0.00    +0.000 HD
ENDBRANCH   8   9
ENDBRANCH   6   8
ENDBRANCH   2   6
ENDBRANCH   1   3
BRANCH   1  11
ATOM     11  N   PRO A   1       5.547   3.659  16.664  0.00  0.00    +0.000 N 
ATOM     12  C   PRO A   1       4.378   4.280  17.027  0.00  0.00    +0.000 C 
ATOM     13  O   PRO A   1       4.291   5.501  17.151  0.00  0.00    +0.000 OA
ATOM     14  H   PRO A   1       5.552   2.641  16.709  0.00  0.00    +0.000 HD
BRANCH  12  15
ATOM     15  CA  PRO A   1       3.220   3.323  17.346  0.00  0.00    +0.000 C 
ATOM     16  CB  PRO A   1       1.976   4.079  17.770  0.00  0.00    +0.000 C 
ATOM     17  CG  PRO A   1       1.166   3.022  18.494  0.00  0.00    +0.000 C 
ATOM     18  CD  PRO A   1       2.199   2.061  19.066  0.00  0.00    +0.000 C 
ATOM     19  N   PRO A   1       3.503   2.489  18.543  0.00  0.00    +0.000 NA
ATOM     20  H   PRO A   1       4.055   1.674  18.269  0.00  0.00    +0.000 HD
ENDBRANCH  12  15
ENDBRANCH   1  11
TORSDOF 6
ENDMDL
MODEL 2
REMARK VINA RESULT:      -6.5      3.018      4.743
REMARK  Name = 
REMARK  6 active torsions:
REMARK  status: ('A' for Active; 'I' for Inactive)
REMARK    1  A    between atoms: C_2  and  OXT_3
REMARK    2  A    between atoms: C_2  and  CA_4
REMARK    3  A    between atoms: CA_4  and  N_5
REMARK    4  A    between atoms: C_6  and  CA_8
REMARK    5  A    between atoms: CA_8  and  N_9
REMARK    6  A    between atoms: C_10  and  CA_12
REMARK                            x       y       z     vdW  Elec       q    Type
REMARK                         _______ _______ _______ _____ _____    ______ ____
ROOT
ATOM      1  CA  PRO A   1       4.440   4.273  16.579  0.00  0.00    +0.000 C 
ENDROOT
BRANCH   1   3
ATOM      2  N   PRO A   1       6.545   4.150  17.850  0.00  0.00    +0.000 N 
ATOM      3  C   PRO A   1       5.915   4.660  16.725  0.00  0.00    +0.000 C 
ATOM      4  O   PRO A   1       6.505   5.322  15.876  0.00  0.00    +0.000 OA
ATOM      5  H   PRO A   1       5.935   3.797  18.581  0.00  0.00    +0.000 HD
BRANCH   2   6
ATOM      6  CA  PRO A   1       7.886   4.631  18.168  0.00  0.00    +0.000 C 
BRANCH   6   8
ATOM      7  O   PRO A   1       8.153   6.967  18.778  0.00  0.00    +0.000 OA
ATOM      8  C   PRO A   1       7.949   5.811  19.130  0.00  0.00    +0.000 C 
BRANCH   8   9
ATOM      9  OXT PRO A   1       7.855   5.463  20.432  0.00  0.00    +0.000 OA
ATOM     10  HXT PRO A   1       8.679   5.642  20.924  0.00  0.00    +0.000 HD
ENDBRANCH   8   9
ENDBRANCH   6   8
ENDBRANCH   2   6
ENDBRANCH   1   3
BRANCH   1  11
ATOM     11  N   PRO A   1       3.939   3.668  17.790  0.00  0.00    +0.000 N 
ATOM     12  C   PRO A   1       2.720   3.039  17.847  0.00  0.00    +0.000 C 
ATOM     13  O   PRO A   1       1.958   2.988  16.882  0.00  0.00    +0.000 OA
ATOM     14  H   PRO A   1       4.441   3.764  18.671  0.00  0.00    +0.000 HD
BRANCH  12  15
ATOM     15  CA  PRO A   1       2.354   2.482  19.230  0.00  0.00    +0.000 C 
ATOM     16  CB  PRO A   1       1.158   3.202  19.821  0.00  0.00    +0.000 C 
ATOM     17  CG  PRO A   1       1.268   2.890  21.300  0.00  0.00    +0.000 C 
ATOM     18  CD  PRO A   1       2.759   2.704  21.550  0.00  0.00    +0.000 C 
ATOM     19  N   PRO A   1       3.413   2.756  20.237  0.00  0.00    +0.000 NA
ATOM     20  H   PRO A   1       4.137   2.037  20.178  0.00  0.00    +0.000 HD
ENDBRANCH  12  15
ENDBRANCH   1  11
TORSDOF 6
ENDMDL
MODEL 3
REMARK VINA RESULT:      -6.5      1.160      1.373
REMARK  Name = 
REMARK  6 active torsions:
REMARK  status: ('A' for Active; 'I' for Inactive)
REMARK    1  A    between atoms: C_2  and  OXT_3
REMARK    2  A    between atoms: C_2  and  CA_4
REMARK    3  A    between atoms: CA_4  and  N_5
REMARK    4  A    between atoms: C_6  and  CA_8
REMARK    5  A    between atoms: CA_8  and  N_9
REMARK    6  A    between atoms: C_10  and  CA_12
REMARK                            x       y       z     vdW  Elec       q    Type
REMARK                         _______ _______ _______ _____ _____    ______ ____
ROOT
ATOM      1  CA  PRO A   1       6.919   4.249  16.340  0.00  0.00    +0.000 C 
ENDROOT
BRANCH   1   3
ATOM      2  N   PRO A   1       6.308   3.511  14.073  0.00  0.00    +0.000 N 
ATOM      3  C   PRO A   1       6.831   4.541  14.839  0.00  0.00    +0.000 C 
ATOM      4  O   PRO A   1       7.146   5.628  14.364  0.00  0.00    +0.000 OA
ATOM      5  H   PRO A   1       6.273   2.598  14.517  0.00  0.00    +0.000 HD
BRANCH   2   6
ATOM      6  CA  PRO A   1       6.374   3.629  12.619  0.00  0.00    +0.000 C 
BRANCH   6   8
ATOM      7  O   PRO A   1       4.262   3.140  11.524  0.00  0.00    +0.000 OA
ATOM      8  C   PRO A   1       5.384   2.767  11.845  0.00  0.00    +0.000 C 
BRANCH   8   9
ATOM      9  OXT PRO A   1       5.814   1.506  11.619  0.00  0.00    +0.000 OA
ATOM     10  HXT PRO A   1       5.399   0.859  12.222  0.00  0.00    +0.000 HD
ENDBRANCH   8   9
ENDBRANCH   6   8
ENDBRANCH   2   6
ENDBRANCH   1   3
BRANCH   1  11
ATOM     11  N   PRO A   1       5.616   3.970  16.894  0.00  0.00    +0.000 N 
ATOM     12  C   PRO A   1       5.335   4.126  18.229  0.00  0.00    +0.000 C 
ATOM     13  O   PRO A   1       6.188   4.471  19.046  0.00  0.00    +0.000 OA
ATOM     14  H   PRO A   1       4.878   3.564  16.320  0.00  0.00    +0.000 HD
BRANCH  12  15
ATOM     15  CA  PRO A   1       3.900   3.754  18.626  0.00  0.00    +0.000 C 
ATOM     16  CB  PRO A   1       3.478   2.435  18.012  0.00  0.00    +0.000 C 
ATOM     17  CG  PRO A   1       1.964   2.493  18.086  0.00  0.00    +0.000 C 
ATOM     18  CD  PRO A   1       1.627   3.976  18.012  0.00  0.00    +0.000 C 
ATOM     19  N   PRO A   1       2.904   4.699  18.056  0.00  0.00    +0.000 NA
ATOM     20  H   PRO A   1       2.822   5.517  18.661  0.00  0.00    +0.000 HD
ENDBRANCH  12  15
ENDBRANCH   1  11
TORSDOF 6
ENDMDL
MODEL 4
REMARK VINA RESULT:      -6.2      3.174      7.009
REMARK  Name = 
REMARK  6 active torsions:
REMARK  status: ('A' for Active; 'I' for Inactive)
REMARK    1  A    between atoms: C_2  and  OXT_3
REMARK    2  A    between atoms: C_2  and  CA_4
REMARK    3  A    between atoms: CA_4  and  N_5
REMARK    4  A    between atoms: C_6  and  CA_8
REMARK    5  A    between atoms: CA_8  and  N_9
REMARK    6  A    between atoms: C_10  and  CA_12
REMARK                            x       y       z     vdW  Elec       q    Type
REMARK                         _______ _______ _______ _____ _____    ______ ____
ROOT
ATOM      1  CA  PRO A   1       3.758   4.012  17.223  0.00  0.00    +0.000 C 
ENDROOT
BRANCH   1   3
ATOM      2  N   PRO A   1       3.116   4.722  19.490  0.00  0.00    +0.000 N 
ATOM      3  C   PRO A   1       2.662   4.383  18.224  0.00  0.00    +0.000 C 
ATOM      4  O   PRO A   1       1.476   4.433  17.909  0.00  0.00    +0.000 OA
ATOM      5  H   PRO A   1       4.071   4.455  19.707  0.00  0.00    +0.000 HD
BRANCH   2   6
ATOM      6  CA  PRO A   1       2.132   4.894  20.555  0.00  0.00    +0.000 C 
BRANCH   6   8
ATOM      7  O   PRO A   1       2.243   3.107  22.196  0.00  0.00    +0.000 OA
ATOM      8  C   PRO A   1       1.672   3.611  21.236  0.00  0.00    +0.000 C 
BRANCH   8   9
ATOM      9  OXT PRO A   1       0.623   3.014  20.630  0.00  0.00    +0.000 OA
ATOM     10  HXT PRO A   1       0.802   2.814  19.691  0.00  0.00    +0.000 HD
ENDBRANCH   8   9
ENDBRANCH   6   8
ENDBRANCH   2   6
ENDBRANCH   1   3
BRANCH   1  11
ATOM     11  N   PRO A   1       4.903   4.882  17.357  0.00  0.00    +0.000 N 
ATOM     12  C   PRO A   1       6.042   4.718  16.609  0.00  0.00    +0.000 C 
ATOM     13  O   PRO A   1       6.178   3.794  15.808  0.00  0.00    +0.000 OA
ATOM     14  H   PRO A   1       4.934   5.600  18.079  0.00  0.00    +0.000 HD
BRANCH  12  15
ATOM     15  CA  PRO A   1       7.157   5.728  16.916  0.00  0.00    +0.000 C 
ATOM     16  CB  PRO A   1       7.500   5.744  18.392  0.00  0.00    +0.000 C 
ATOM     17  CG  PRO A   1       8.200   7.078  18.565  0.00  0.00    +0.000 C 
ATOM     18  CD  PRO A   1       7.592   7.979  17.499  0.00  0.00    +0.000 C 
ATOM     19  N   PRO A   1       6.717   7.129  16.682  0.00  0.00    +0.000 NA
ATOM     20  H   PRO A   1       6.827   7.361  15.693  0.00  0.00    +0.000 HD
ENDBRANCH  12  15
ENDBRANCH   1  11
TORSDOF 6
ENDMDL
MODEL 5
REMARK VINA RESULT:      -6.2      2.962      6.329
REMARK  Name = 
REMARK  6 active torsions:
REMARK  status: ('A' for Active; 'I' for Inactive)
REMARK    1  A    between atoms: C_2  and  OXT_3
REMARK    2  A    between atoms: C_2  and  CA_4
REMARK    3  A    between atoms: CA_4  and  N_5
REMARK    4  A    between atoms: C_6  and  CA_8
REMARK    5  A    between atoms: CA_8  and  N_9
REMARK    6  A    between atoms: C_10  and  CA_12
REMARK                            x       y       z     vdW  Elec       q    Type
REMARK                         _______ _______ _______ _____ _____    ______ ____
ROOT
ATOM      1  CA  PRO A   1       5.425   4.498  18.806  0.00  0.00    +0.000 C 
ENDROOT
BRANCH   1   3
ATOM      2  N   PRO A   1       3.612   2.924  18.264  0.00  0.00    +0.000 N 
ATOM      3  C   PRO A   1       4.642   3.226  19.143  0.00  0.00    +0.000 C 
ATOM      4  O   PRO A   1       4.944   2.501  20.086  0.00  0.00    +0.000 OA
ATOM      5  H   PRO A   1       3.314   3.676  17.651  0.00  0.00    +0.000 HD
BRANCH   2   6
ATOM      6  CA  PRO A   1       2.694   1.846  18.621  0.00  0.00    +0.000 C 
BRANCH   6   8
ATOM      7  O   PRO A   1       0.313   2.305  18.491  0.00  0.00    +0.000 OA
ATOM      8  C   PRO A   1       1.339   2.290  19.160  0.00  0.00    +0.000 C 
BRANCH   8   9
ATOM      9  OXT PRO A   1       1.380   2.760  20.425  0.00  0.00    +0.000 OA
ATOM     10  HXT PRO A   1       1.998   3.511  20.522  0.00  0.00    +0.000 HD
ENDBRANCH   8   9
ENDBRANCH   6   8
ENDBRANCH   2   6
ENDBRANCH   1   3
BRANCH   1  11
ATOM     11  N   PRO A   1       5.469   4.721  17.381  0.00  0.00    +0.000 N 
ATOM     12  C   PRO A   1       6.643   4.703  16.669  0.00  0.00    +0.000 C 
ATOM     13  O   PRO A   1       7.738   4.540  17.207  0.00  0.00    +0.000 OA
ATOM     14  H   PRO A   1       4.631   4.985  16.866  0.00  0.00    +0.000 HD
BRANCH  12  15
ATOM     15  CA  PRO A   1       6.484   4.987  15.169  0.00  0.00    +0.000 C 
ATOM     16  CB  PRO A   1       6.107   3.734  14.404  0.00  0.00    +0.000 C 
ATOM     17  CG  PRO A   1       6.482   4.081  12.976  0.00  0.00    +0.000 C 
ATOM     18  CD  PRO A   1       7.635   5.067  13.104  0.00  0.00    +0.000 C 
ATOM     19  N   PRO A   1       7.775   5.365  14.535  0.00  0.00    +0.000 NA
ATOM     20  H   PRO A   1       7.944   6.363  14.670  0.00  0.00    +0.000 HD
ENDBRANCH  12  15
ENDBRANCH   1  11
TORSDOF 6
ENDMDL
MODEL 6
REMARK VINA RESULT:      -6.2      3.118      4.686
REMARK  Name = 
REMARK  6 active torsions:
REMARK  status: ('A' for Active; 'I' for Inactive)
REMARK    1  A    between atoms: C_2  and  OXT_3
REMARK    2  A    between atoms: C_2  and  CA_4
REMARK    3  A    between atoms: CA_4  and  N_5
REMARK    4  A    between atoms: C_6  and  CA_8
REMARK    5  A    between atoms: CA_8  and  N_9
REMARK    6  A    between atoms: C_10  and  CA_12
REMARK                            x       y       z     vdW  Elec       q    Type
REMARK                         _______ _______ _______ _____ _____    ______ ____
ROOT
ATOM      1  CA  PRO A   1       5.862   4.158  16.294  0.00  0.00    +0.000 C 
ENDROOT
BRANCH   1   3
ATOM      2  N   PRO A   1       6.722   5.771  17.943  0.00  0.00    +0.000 N 
ATOM      3  C   PRO A   1       7.025   4.679  17.143  0.00  0.00    +0.000 C 
ATOM      4  O   PRO A   1       8.123   4.131  17.155  0.00  0.00    +0.000 OA
ATOM      5  H   PRO A   1       5.868   6.269  17.712  0.00  0.00    +0.000 HD
BRANCH   2   6
ATOM      6  CA  PRO A   1       7.818   6.450  18.628  0.00  0.00    +0.000 C 
BRANCH   6   8
ATOM      7  O   PRO A   1       7.724   8.333  17.096  0.00  0.00    +0.000 OA
ATOM      8  C   PRO A   1       8.092   7.879  18.173  0.00  0.00    +0.000 C 
BRANCH   8   9
ATOM      9  OXT PRO A   1       8.865   8.587  19.024  0.00  0.00    +0.000 OA
ATOM     10  HXT PRO A   1       9.082   8.085  19.833  0.00  0.00    +0.000 HD
ENDBRANCH   8   9
ENDBRANCH   6   8
ENDBRANCH   2   6
ENDBRANCH   1   3
BRANCH   1  11
ATOM     11  N   PRO A   1       4.913   3.430  17.102  0.00  0.00    +0.000 N 
ATOM     12  C   PRO A   1       3.818   4.032  17.672  0.00  0.00    +0.000 C 
ATOM     13  O   PRO A   1       3.599   5.238  17.567  0.00  0.00    +0.000 OA
ATOM     14  H   PRO A   1       5.072   2.454  17.347  0.00  0.00    +0.000 HD
BRANCH  12  15
ATOM     15  CA  PRO A   1       2.942   3.094  18.515  0.00  0.00    +0.000 C 
ATOM     16  CB  PRO A   1       1.469   3.294  18.218  0.00  0.00    +0.000 C 
ATOM     17  CG  PRO A   1       0.792   2.697  19.436  0.00  0.00    +0.000 C 
ATOM     18  CD  PRO A   1       1.790   2.886  20.570  0.00  0.00    +0.000 C 
ATOM     19  N   PRO A   1       3.017   3.419  19.964  0.00  0.00    +0.000 NA
ATOM     20  H   PRO A   1       3.835   2.966  20.374  0.00  0.00    +0.000 HD
ENDBRANCH  12  15
ENDBRANCH   1  11
TORSDOF 6
ENDMDL
MODEL 7
REMARK VINA RESULT:      -6.2      2.714      5.863
REMARK  Name = 
REMARK  6 active torsions:
REMARK  status: ('A' for Active; 'I' for Inactive)
REMARK    1  A    between atoms: C_2  and  OXT_3
REMARK    2  A    between atoms: C_2  and  CA_4
REMARK    3  A    between atoms: CA_4  and  N_5
REMARK    4  A    between atoms: C_6  and  CA_8
REMARK    5  A    between atoms: CA_8  and  N_9
REMARK    6  A    between atoms: C_10  and  CA_12
REMARK                            x       y       z     vdW  Elec       q    Type
REMARK                         _______ _______ _______ _____ _____    ______ ____
ROOT
ATOM      1  CA  PRO A   1       6.753   4.971  18.295  0.00  0.00    +0.000 C 
ENDROOT
BRANCH   1   3
ATOM      2  N   PRO A   1       5.394   3.166  19.271  0.00  0.00    +0.000 N 
ATOM      3  C   PRO A   1       5.471   4.524  19.003  0.00  0.00    +0.000 C 
ATOM      4  O   PRO A   1       4.606   5.321  19.357  0.00  0.00    +0.000 OA
ATOM      5  H   PRO A   1       6.046   2.574  18.766  0.00  0.00    +0.000 HD
BRANCH   2   6
ATOM      6  CA  PRO A   1       4.127   2.629  19.761  0.00  0.00    +0.000 C 
BRANCH   6   8
ATOM      7  O   PRO A   1       2.170   1.995  18.469  0.00  0.00    +0.000 OA
ATOM      8  C   PRO A   1       3.342   1.788  18.762  0.00  0.00    +0.000 C 
BRANCH   8   9
ATOM      9  OXT PRO A   1       4.022   0.721  18.288  0.00  0.00    +0.000 OA
ATOM     10  HXT PRO A   1       4.432   0.195  19.001  0.00  0.00    +0.000 HD
ENDBRANCH   8   9
ENDBRANCH   6   8
ENDBRANCH   2   6
ENDBRANCH   1   3
BRANCH   1  11
ATOM     11  N   PRO A   1       6.875   4.350  16.998  0.00  0.00    +0.000 N 
ATOM     12  C   PRO A   1       6.710   5.051  15.829  0.00  0.00    +0.000 C 
ATOM     13  O   PRO A   1       6.405   6.243  15.812  0.00  0.00    +0.000 OA
ATOM     14  H   PRO A   1       7.004   3.344  16.908  0.00  0.00    +0.000 HD
BRANCH  12  15
ATOM     15  CA  PRO A   1       6.855   4.208  14.554  0.00  0.00    +0.000 C 
ATOM     16  CB  PRO A   1       7.495   5.002  13.433  0.00  0.00    +0.000 C 
ATOM     17  CG  PRO A   1       7.101   4.221  12.194  0.00  0.00    +0.000 C 
ATOM     18  CD  PRO A   1       5.772   3.568  12.551  0.00  0.00    +0.000 C 
ATOM     19  N   PRO A   1       5.534   3.852  13.971  0.00  0.00    +0.000 NA
ATOM     20  H   PRO A   1       5.167   3.020  14.438  0.00  0.00    +0.000 HD
ENDBRANCH  12  15
ENDBRANCH   1  11
TORSDOF 6
ENDMDL
MODEL 8
REMARK VINA RESULT:      -6.2      3.166      4.710
REMARK  Name = 
REMARK  6 active torsions:
REMARK  status: ('A' for Active; 'I' for Inactive)
REMARK    1  A    between atoms: C_2  and  OXT_3
REMARK    2  A    between atoms: C_2  and  CA_4
REMARK    3  A    between atoms: CA_4  and  N_5
REMARK    4  A    between atoms: C_6  and  CA_8
REMARK    5  A    between atoms: CA_8  and  N_9
REMARK    6  A    between atoms: C_10  and  CA_12
REMARK                            x       y       z     vdW  Elec       q    Type
REMARK                         _______ _______ _______ _____ _____    ______ ____
ROOT
ATOM      1  CA  PRO A   1       4.389   4.704  16.331  0.00  0.00    +0.000 C 
ENDROOT
BRANCH   1   3
ATOM      2  N   PRO A   1       6.503   4.237  17.502  0.00  0.00    +0.000 N 
ATOM      3  C   PRO A   1       5.850   5.068  16.603  0.00  0.00    +0.000 C 
ATOM      4  O   PRO A   1       6.415   5.990  16.021  0.00  0.00    +0.000 OA
ATOM      5  H   PRO A   1       5.908   3.646  18.074  0.00  0.00    +0.000 HD
BRANCH   2   6
ATOM      6  CA  PRO A   1       7.830   4.629  17.967  0.00  0.00    +0.000 C 
BRANCH   6   8
ATOM      7  O   PRO A   1       7.632   5.480  20.234  0.00  0.00    +0.000 OA
ATOM      8  C   PRO A   1       7.856   5.702  19.050  0.00  0.00    +0.000 C 
BRANCH   8   9
ATOM      9  OXT PRO A   1       8.055   6.952  18.578  0.00  0.00    +0.000 OA
ATOM     10  HXT PRO A   1       7.808   7.637  19.228  0.00  0.00    +0.000 HD
ENDBRANCH   8   9
ENDBRANCH   6   8
ENDBRANCH   2   6
ENDBRANCH   1   3
BRANCH   1  11
ATOM     11  N   PRO A   1       3.621   4.684  17.553  0.00  0.00    +0.000 N 
ATOM     12  C   PRO A   1       2.567   3.825  17.745  0.00  0.00    +0.000 C 
ATOM     13  O   PRO A   1       2.182   3.048  16.873  0.00  0.00    +0.000 OA
ATOM     14  H   PRO A   1       3.785   5.371  18.286  0.00  0.00    +0.000 HD
BRANCH  12  15
ATOM     15  CA  PRO A   1       1.862   3.974  19.101  0.00  0.00    +0.000 C 
ATOM     16  CB  PRO A   1       2.830   4.398  20.187  0.00  0.00    +0.000 C 
ATOM     17  CG  PRO A   1       2.106   4.011  21.461  0.00  0.00    +0.000 C 
ATOM     18  CD  PRO A   1       1.238   2.822  21.070  0.00  0.00    +0.000 C 
ATOM     19  N   PRO A   1       1.366   2.671  19.616  0.00  0.00    +0.000 NA
ATOM     20  H   PRO A   1       0.454   2.465  19.204  0.00  0.00    +0.000 HD
ENDBRANCH  12  15
ENDBRANCH   1  11
TORSDOF 6
ENDMDL
MODEL 9
REMARK VINA RESULT:      -6.2      3.178      6.927
REMARK  Name = 
REMARK  6 active torsions:
REMARK  status: ('A' for Active; 'I' for Inactive)
REMARK    1  A    between atoms: C_2  and  OXT_3
REMARK    2  A    between atoms: C_2  and  CA_4
REMARK    3  A    between atoms: CA_4  and  N_5
REMARK    4  A    between atoms: C_6  and  CA_8
REMARK    5  A    between atoms: CA_8  and  N_9
REMARK    6  A    between atoms: C_10  and  CA_12
REMARK                            x       y       z     vdW  Elec       q    Type
REMARK                         _______ _______ _______ _____ _____    ______ ____
ROOT
ATOM      1  CA  PRO A   1       3.485   4.014  17.017  0.00  0.00    +0.000 C 
ENDROOT
BRANCH   1   3
ATOM      2  N   PRO A   1       2.907   3.681  19.386  0.00  0.00    +0.000 N 
ATOM      3  C   PRO A   1       3.250   3.063  18.193  0.00  0.00    +0.000 C 
ATOM      4  O   PRO A   1       3.304   1.843  18.070  0.00  0.00    +0.000 OA
ATOM      5  H   PRO A   1       3.088   4.679  19.439  0.00  0.00    +0.000 HD
BRANCH   2   6
ATOM      6  CA  PRO A   1       2.862   2.868  20.598  0.00  0.00    +0.000 C 
BRANCH   6   8
ATOM      7  O   PRO A   1       1.351   2.372  22.434  0.00  0.00    +0.000 OA
ATOM      8  C   PRO A   1       1.512   2.817  21.304  0.00  0.00    +0.000 C 
BRANCH   8   9
ATOM      9  OXT PRO A   1       0.476   3.222  20.537  0.00  0.00    +0.000 OA
ATOM     10  HXT PRO A   1       0.280   4.172  20.649  0.00  0.00    +0.000 HD
ENDBRANCH   8   9
ENDBRANCH   6   8
ENDBRANCH   2   6
ENDBRANCH   1   3
BRANCH   1  11
ATOM     11  N   PRO A   1       4.679   4.800  17.213  0.00  0.00    +0.000 N 
ATOM     12  C   PRO A   1       5.845   4.549  16.532  0.00  0.00    +0.000 C 
ATOM     13  O   PRO A   1       5.960   3.611  15.744  0.00  0.00    +0.000 OA
ATOM     14  H   PRO A   1       4.721   5.520  17.932  0.00  0.00    +0.000 HD
BRANCH  12  15
ATOM     15  CA  PRO A   1       7.010   5.479  16.899  0.00  0.00    +0.000 C 
ATOM     16  CB  PRO A   1       7.304   5.442  18.385  0.00  0.00    +0.000 C 
ATOM     17  CG  PRO A   1       8.080   6.724  18.611  0.00  0.00    +0.000 C 
ATOM     18  CD  PRO A   1       7.566   7.685  17.547  0.00  0.00    +0.000 C 
ATOM     19  N   PRO A   1       6.668   6.909  16.682  0.00  0.00    +0.000 NA
ATOM     20  H   PRO A   1       6.825   7.155  15.704  0.00  0.00    +0.000 HD
ENDBRANCH  12  15
ENDBRANCH   1  11
TORSDOF 6
ENDMDL
