MODEL 1
REMARK VINA RESULT:      -9.9      0.000      0.000
REMARK  Name = 
REMARK  6 active torsions:
REMARK  status: ('A' for Active; 'I' for Inactive)
REMARK    1  A    between atoms: C_1  and  O_2
REMARK    2  A    between atoms: O_2  and  C_3
REMARK    3  A    between atoms: C_7  and  C_8
REMARK    4  A    between atoms: C_12  and  C_13
REMARK    5  A    between atoms: C_13  and  C_14
REMARK    6  A    between atoms: N_23  and  C_24
REMARK                            x       y       z     vdW  Elec       q    Type
REMARK                         _______ _______ _______ _____ _____    ______ ____
ROOT
ATOM      1  C   UNL     1       3.252   5.752  19.167  0.00  0.00    +0.000 C 
ATOM      2  N   UNL     1       4.505   5.803  19.920  0.00  0.00    +0.000 N 
ATOM      3  C   UNL     1       5.548   5.425  19.170  0.00  0.00    +0.000 C 
ATOM      4  N   UNL     1       6.785   5.446  19.539  0.00  0.00    +0.000 NA
ATOM      5  N   UNL     1       5.162   5.022  17.941  0.00  0.00    +0.000 N 
ATOM      6  C   UNL     1       3.803   5.234  17.799  0.00  0.00    +0.000 C 
ATOM      7  O   UNL     1       3.167   5.085  16.753  0.00  0.00    +0.000 OA
ATOM      8  H   UNL     1       4.593   6.341  20.764  0.00  0.00    +0.000 HD
ATOM      9  H   UNL     1       6.852   5.772  20.501  0.00  0.00    +0.000 HD
ENDROOT
BRANCH   1  14
ATOM     10  C   UNL     1       1.236   8.963  19.947  0.00  0.00    +0.000 A 
ATOM     11  C   UNL     1       1.332   9.657  18.735  0.00  0.00    +0.000 A 
ATOM     12  C   UNL     1       2.050   9.128  17.679  0.00  0.00    +0.000 A 
ATOM     13  C   UNL     1       2.693   7.902  17.830  0.00  0.00    +0.000 A 
ATOM     14  C   UNL     1       2.624   7.154  19.028  0.00  0.00    +0.000 A 
ATOM     15  C   UNL     1       1.884   7.718  20.070  0.00  0.00    +0.000 A 
BRANCH  10  20
ATOM     16  C   UNL     1      -1.158  11.109  21.917  0.00  0.00    +0.000 A 
ATOM     17  C   UNL     1      -0.980  10.578  23.196  0.00  0.00    +0.000 A 
ATOM     18  C   UNL     1      -0.121   9.502  23.409  0.00  0.00    +0.000 A 
ATOM     19  C   UNL     1       0.575   8.961  22.338  0.00  0.00    +0.000 A 
ATOM     20  C   UNL     1       0.422   9.484  21.044  0.00  0.00    +0.000 A 
ATOM     21  C   UNL     1      -0.469  10.552  20.847  0.00  0.00    +0.000 A 
BRANCH  16  23
ATOM     22  C   UNL     1      -2.823  12.437  22.969  0.00  0.00    +0.000 C 
ATOM     23  O   UNL     1      -1.993  12.189  21.840  0.00  0.00    +0.000 OA
ENDBRANCH  16  23
ENDBRANCH  10  20
ENDBRANCH   1  14
BRANCH   1  24
ATOM     24  C   UNL     1       2.282   4.784  19.873  0.00  0.00    +0.000 A 
ATOM     25  C   UNL     1       2.460   4.419  21.216  0.00  0.00    +0.000 A 
ATOM     26  C   UNL     1       1.856   3.268  21.724  0.00  0.00    +0.000 A 
ATOM     27  C   UNL     1       1.049   2.481  20.908  0.00  0.00    +0.000 A 
ATOM     28  C   UNL     1       0.770   2.886  19.606  0.00  0.00    +0.000 A 
ATOM     29  C   UNL     1       1.354   4.045  19.100  0.00  0.00    +0.000 A 
ENDBRANCH   1  24
BRANCH   5  30
ATOM     30  C   UNL     1       6.013   4.580  16.833  0.00  0.00    +0.000 C 
ATOM     31  C   UNL     1       6.818   5.721  16.205  0.00  0.00    +0.000 C 
ATOM     32  C   UNL     1       7.654   5.195  15.046  0.00  0.00    +0.000 C 
ATOM     33  O   UNL     1       6.838   4.526  14.086  0.00  0.00    +0.000 OA
ATOM     34  C   UNL     1       6.163   3.395  14.635  0.00  0.00    +0.000 C 
ATOM     35  C   UNL     1       5.231   3.811  15.763  0.00  0.00    +0.000 C 
ENDBRANCH   5  30
TORSDOF 5
ENDMDL
MODEL 2
REMARK VINA RESULT:      -9.8      3.700      8.921
REMARK  Name = 
REMARK  6 active torsions:
REMARK  status: ('A' for Active; 'I' for Inactive)
REMARK    1  A    between atoms: C_1  and  O_2
REMARK    2  A    between atoms: O_2  and  C_3
REMARK    3  A    between atoms: C_7  and  C_8
REMARK    4  A    between atoms: C_12  and  C_13
REMARK    5  A    between atoms: C_13  and  C_14
REMARK    6  A    between atoms: N_23  and  C_24
REMARK                            x       y       z     vdW  Elec       q    Type
REMARK                         _______ _______ _______ _____ _____    ______ ____
ROOT
ATOM      1  C   UNL     1       0.547  10.799  19.166  0.00  0.00    +0.000 C 
ATOM      2  N   UNL     1       1.316  11.329  18.040  0.00  0.00    +0.000 N 
ATOM      3  C   UNL     1       1.938  12.472  18.361  0.00  0.00    +0.000 C 
ATOM      4  N   UNL     1       2.749  13.124  17.598  0.00  0.00    +0.000 NA
ATOM      5  N   UNL     1       1.632  12.876  19.612  0.00  0.00    +0.000 N 
ATOM      6  C   UNL     1       0.849  11.913  20.221  0.00  0.00    +0.000 C 
ATOM      7  O   UNL     1       0.505  11.923  21.405  0.00  0.00    +0.000 OA
ATOM      8  H   UNL     1       1.580  10.752  17.262  0.00  0.00    +0.000 HD
ATOM      9  H   UNL     1       2.831  12.654  16.699  0.00  0.00    +0.000 HD
ENDROOT
BRANCH   1  14
ATOM     10  C   UNL     1       2.348   7.372  19.133  0.00  0.00    +0.000 A 
ATOM     11  C   UNL     1       1.971   6.845  20.374  0.00  0.00    +0.000 A 
ATOM     12  C   UNL     1       1.171   7.575  21.233  0.00  0.00    +0.000 A 
ATOM     13  C   UNL     1       0.750   8.849  20.864  0.00  0.00    +0.000 A 
ATOM     14  C   UNL     1       1.092   9.429  19.621  0.00  0.00    +0.000 A 
ATOM     15  C   UNL     1       1.897   8.659  18.778  0.00  0.00    +0.000 A 
BRANCH  10  20
ATOM     16  C   UNL     1       3.876   4.428  17.342  0.00  0.00    +0.000 A 
ATOM     17  C   UNL     1       4.791   5.082  16.515  0.00  0.00    +0.000 A 
ATOM     18  C   UNL     1       4.880   6.472  16.507  0.00  0.00    +0.000 A 
ATOM     19  C   UNL     1       4.057   7.214  17.343  0.00  0.00    +0.000 A 
ATOM     20  C   UNL     1       3.137   6.579  18.192  0.00  0.00    +0.000 A 
ATOM     21  C   UNL     1       3.045   5.178  18.165  0.00  0.00    +0.000 A 
BRANCH  16  23
ATOM     22  C   UNL     1       2.738   2.377  17.718  0.00  0.00    +0.000 C 
ATOM     23  O   UNL     1       3.910   3.062  17.292  0.00  0.00    +0.000 OA
ENDBRANCH  16  23
ENDBRANCH  10  20
ENDBRANCH   1  14
BRANCH   1  24
ATOM     24  C   UNL     1      -0.934  10.692  18.756  0.00  0.00    +0.000 A 
ATOM     25  C   UNL     1      -1.337   9.909  17.664  0.00  0.00    +0.000 A 
ATOM     26  C   UNL     1      -2.572  10.126  17.052  0.00  0.00    +0.000 A 
ATOM     27  C   UNL     1      -3.431  11.108  17.536  0.00  0.00    +0.000 A 
ATOM     28  C   UNL     1      -3.099  11.819  18.686  0.00  0.00    +0.000 A 
ATOM     29  C   UNL     1      -1.875  11.592  19.313  0.00  0.00    +0.000 A 
ENDBRANCH   1  24
BRANCH   5  30
ATOM     30  C   UNL     1       2.145  14.046  20.327  0.00  0.00    +0.000 C 
ATOM     31  C   UNL     1       3.334  13.719  21.235  0.00  0.00    +0.000 C 
ATOM     32  C   UNL     1       3.794  14.973  21.966  0.00  0.00    +0.000 C 
ATOM     33  O   UNL     1       2.718  15.571  22.689  0.00  0.00    +0.000 OA
ATOM     34  C   UNL     1       1.647  15.977  21.839  0.00  0.00    +0.000 C 
ATOM     35  C   UNL     1       1.051  14.784  21.106  0.00  0.00    +0.000 C 
ENDBRANCH   5  30
TORSDOF 5
ENDMDL
MODEL 3
REMARK VINA RESULT:      -9.6      3.891      8.864
REMARK  Name = 
REMARK  6 active torsions:
REMARK  status: ('A' for Active; 'I' for Inactive)
REMARK    1  A    between atoms: C_1  and  O_2
REMARK    2  A    between atoms: O_2  and  C_3
REMARK    3  A    between atoms: C_7  and  C_8
REMARK    4  A    between atoms: C_12  and  C_13
REMARK    5  A    between atoms: C_13  and  C_14
REMARK    6  A    between atoms: N_23  and  C_24
REMARK                            x       y       z     vdW  Elec       q    Type
REMARK                         _______ _______ _______ _____ _____    ______ ____
ROOT
ATOM      1  C   UNL     1       0.585  10.780  19.109  0.00  0.00    +0.000 C 
ATOM      2  N   UNL     1       1.365  11.327  17.999  0.00  0.00    +0.000 N 
ATOM      3  C   UNL     1       1.970  12.474  18.338  0.00  0.00    +0.000 C 
ATOM      4  N   UNL     1       2.786  13.141  17.593  0.00  0.00    +0.000 NA
ATOM      5  N   UNL     1       1.641  12.864  19.588  0.00  0.00    +0.000 N 
ATOM      6  C   UNL     1       0.860  11.888  20.178  0.00  0.00    +0.000 C 
ATOM      7  O   UNL     1       0.498  11.884  21.357  0.00  0.00    +0.000 OA
ATOM      8  H   UNL     1       1.646  10.759  17.220  0.00  0.00    +0.000 HD
ATOM      9  H   UNL     1       2.885  12.678  16.691  0.00  0.00    +0.000 HD
ENDROOT
BRANCH   1  14
ATOM     10  C   UNL     1       2.406   7.364  19.068  0.00  0.00    +0.000 A 
ATOM     11  C   UNL     1       2.030   6.831  20.306  0.00  0.00    +0.000 A 
ATOM     12  C   UNL     1       1.224   7.552  21.166  0.00  0.00    +0.000 A 
ATOM     13  C   UNL     1       0.795   8.825  20.800  0.00  0.00    +0.000 A 
ATOM     14  C   UNL     1       1.137   9.411  19.560  0.00  0.00    +0.000 A 
ATOM     15  C   UNL     1       1.948   8.649  18.716  0.00  0.00    +0.000 A 
BRANCH  10  20
ATOM     16  C   UNL     1       3.944   4.436  17.260  0.00  0.00    +0.000 A 
ATOM     17  C   UNL     1       4.869   5.097  16.448  0.00  0.00    +0.000 A 
ATOM     18  C   UNL     1       4.961   6.487  16.456  0.00  0.00    +0.000 A 
ATOM     19  C   UNL     1       4.132   7.221  17.293  0.00  0.00    +0.000 A 
ATOM     20  C   UNL     1       3.202   6.579  18.126  0.00  0.00    +0.000 A 
ATOM     21  C   UNL     1       3.107   5.179  18.083  0.00  0.00    +0.000 A 
BRANCH  16  23
ATOM     22  C   UNL     1       3.650   2.367  18.388  0.00  0.00    +0.000 C 
ATOM     23  O   UNL     1       3.977   3.070  17.195  0.00  0.00    +0.000 OA
ENDBRANCH  16  23
ENDBRANCH  10  20
ENDBRANCH   1  14
BRANCH   1  24
ATOM     24  C   UNL     1      -0.889  10.662  18.676  0.00  0.00    +0.000 A 
ATOM     25  C   UNL     1      -1.267   9.893  17.565  0.00  0.00    +0.000 A 
ATOM     26  C   UNL     1      -2.496  10.105  16.940  0.00  0.00    +0.000 A 
ATOM     27  C   UNL     1      -3.374  11.068  17.429  0.00  0.00    +0.000 A 
ATOM     28  C   UNL     1      -3.067  11.762  18.595  0.00  0.00    +0.000 A 
ATOM     29  C   UNL     1      -1.850  11.540  19.235  0.00  0.00    +0.000 A 
ENDBRANCH   1  24
BRANCH   5  30
ATOM     30  C   UNL     1       2.132  14.033  20.320  0.00  0.00    +0.000 C 
ATOM     31  C   UNL     1       1.697  15.360  19.692  0.00  0.00    +0.000 C 
ATOM     32  C   UNL     1       2.266  16.527  20.487  0.00  0.00    +0.000 C 
ATOM     33  O   UNL     1       3.686  16.429  20.599  0.00  0.00    +0.000 OA
ATOM     34  C   UNL     1       4.101  15.245  21.278  0.00  0.00    +0.000 C 
ATOM     35  C   UNL     1       3.650  14.000  20.528  0.00  0.00    +0.000 C 
ENDBRANCH   5  30
TORSDOF 5
ENDMDL
MODEL 4
REMARK VINA RESULT:      -9.6      3.641      8.877
REMARK  Name = 
REMARK  6 active torsions:
REMARK  status: ('A' for Active; 'I' for Inactive)
REMARK    1  A    between atoms: C_1  and  O_2
REMARK    2  A    between atoms: O_2  and  C_3
REMARK    3  A    between atoms: C_7  and  C_8
REMARK    4  A    between atoms: C_12  and  C_13
REMARK    5  A    between atoms: C_13  and  C_14
REMARK    6  A    between atoms: N_23  and  C_24
REMARK                            x       y       z     vdW  Elec       q    Type
REMARK                         _______ _______ _______ _____ _____    ______ ____
ROOT
ATOM      1  C   UNL     1       0.613  10.677  19.130  0.00  0.00    +0.000 C 
ATOM      2  N   UNL     1       1.446  11.149  18.024  0.00  0.00    +0.000 N 
ATOM      3  C   UNL     1       2.072  12.293  18.330  0.00  0.00    +0.000 C 
ATOM      4  N   UNL     1       2.932  12.901  17.583  0.00  0.00    +0.000 NA
ATOM      5  N   UNL     1       1.713  12.752  19.548  0.00  0.00    +0.000 N 
ATOM      6  C   UNL     1       0.884  11.827  20.155  0.00  0.00    +0.000 C 
ATOM      7  O   UNL     1       0.483  11.889  21.320  0.00  0.00    +0.000 OA
ATOM      8  H   UNL     1       1.736  10.537  17.282  0.00  0.00    +0.000 HD
ATOM      9  H   UNL     1       3.048  12.394  16.708  0.00  0.00    +0.000 HD
ENDROOT
BRANCH   1  14
ATOM     10  C   UNL     1       2.299   7.196  19.300  0.00  0.00    +0.000 A 
ATOM     11  C   UNL     1       1.899   6.752  20.565  0.00  0.00    +0.000 A 
ATOM     12  C   UNL     1       1.118   7.553  21.376  0.00  0.00    +0.000 A 
ATOM     13  C   UNL     1       0.741   8.818  20.934  0.00  0.00    +0.000 A 
ATOM     14  C   UNL     1       1.110   9.317  19.664  0.00  0.00    +0.000 A 
ATOM     15  C   UNL     1       1.893   8.476  18.871  0.00  0.00    +0.000 A 
BRANCH  10  20
ATOM     16  C   UNL     1       4.774   6.021  16.711  0.00  0.00    +0.000 A 
ATOM     17  C   UNL     1       4.392   4.683  16.584  0.00  0.00    +0.000 A 
ATOM     18  C   UNL     1       3.367   4.157  17.367  0.00  0.00    +0.000 A 
ATOM     19  C   UNL     1       2.709   4.976  18.272  0.00  0.00    +0.000 A 
ATOM     20  C   UNL     1       3.067   6.327  18.410  0.00  0.00    +0.000 A 
ATOM     21  C   UNL     1       4.121   6.831  17.631  0.00  0.00    +0.000 A 
BRANCH  16  23
ATOM     22  C   UNL     1       6.671   5.435  15.407  0.00  0.00    +0.000 C 
ATOM     23  O   UNL     1       5.763   6.432  15.861  0.00  0.00    +0.000 OA
ENDBRANCH  16  23
ENDBRANCH  10  20
ENDBRANCH   1  14
BRANCH   1  24
ATOM     24  C   UNL     1      -0.848  10.579  18.652  0.00  0.00    +0.000 A 
ATOM     25  C   UNL     1      -1.202   9.813  17.531  0.00  0.00    +0.000 A 
ATOM     26  C   UNL     1      -2.408  10.042  16.868  0.00  0.00    +0.000 A 
ATOM     27  C   UNL     1      -3.287  11.018  17.328  0.00  0.00    +0.000 A 
ATOM     28  C   UNL     1      -3.007  11.710  18.502  0.00  0.00    +0.000 A 
ATOM     29  C   UNL     1      -1.813  11.471  19.180  0.00  0.00    +0.000 A 
ENDBRANCH   1  24
BRANCH   5  30
ATOM     30  C   UNL     1       2.213  13.941  20.242  0.00  0.00    +0.000 C 
ATOM     31  C   UNL     1       3.285  13.618  21.286  0.00  0.00    +0.000 C 
ATOM     32  C   UNL     1       3.734  14.894  21.986  0.00  0.00    +0.000 C 
ATOM     33  O   UNL     1       2.624  15.586  22.555  0.00  0.00    +0.000 OA
ATOM     34  C   UNL     1       1.668  15.987  21.576  0.00  0.00    +0.000 C 
ATOM     35  C   UNL     1       1.086  14.778  20.857  0.00  0.00    +0.000 C 
ENDBRANCH   5  30
TORSDOF 5
ENDMDL
MODEL 5
REMARK VINA RESULT:      -9.5      3.865      8.835
REMARK  Name = 
REMARK  6 active torsions:
REMARK  status: ('A' for Active; 'I' for Inactive)
REMARK    1  A    between atoms: C_1  and  O_2
REMARK    2  A    between atoms: O_2  and  C_3
REMARK    3  A    between atoms: C_7  and  C_8
REMARK    4  A    between atoms: C_12  and  C_13
REMARK    5  A    between atoms: C_13  and  C_14
REMARK    6  A    between atoms: N_23  and  C_24
REMARK                            x       y       z     vdW  Elec       q    Type
REMARK                         _______ _______ _______ _____ _____    ______ ____
ROOT
ATOM      1  C   UNL     1       0.518  10.732  19.072  0.00  0.00    +0.000 C 
ATOM      2  N   UNL     1       1.367  11.204  17.978  0.00  0.00    +0.000 N 
ATOM      3  C   UNL     1       1.960  12.367  18.278  0.00  0.00    +0.000 C 
ATOM      4  N   UNL     1       2.824  12.982  17.541  0.00  0.00    +0.000 NA
ATOM      5  N   UNL     1       1.560  12.840  19.477  0.00  0.00    +0.000 N 
ATOM      6  C   UNL     1       0.737  11.907  20.081  0.00  0.00    +0.000 C 
ATOM      7  O   UNL     1       0.306  11.982  21.234  0.00  0.00    +0.000 OA
ATOM      8  H   UNL     1       1.691  10.585  17.256  0.00  0.00    +0.000 HD
ATOM      9  H   UNL     1       2.973  12.461  16.679  0.00  0.00    +0.000 HD
ENDROOT
BRANCH   1  14
ATOM     10  C   UNL     1       2.240   7.275  19.336  0.00  0.00    +0.000 A 
ATOM     11  C   UNL     1       1.853   6.866  20.618  0.00  0.00    +0.000 A 
ATOM     12  C   UNL     1       1.072   7.685  21.410  0.00  0.00    +0.000 A 
ATOM     13  C   UNL     1       0.679   8.932  20.932  0.00  0.00    +0.000 A 
ATOM     14  C   UNL     1       1.032   9.394  19.644  0.00  0.00    +0.000 A 
ATOM     15  C   UNL     1       1.818   8.536  18.871  0.00  0.00    +0.000 A 
BRANCH  10  20
ATOM     16  C   UNL     1       4.695   6.044  16.754  0.00  0.00    +0.000 A 
ATOM     17  C   UNL     1       4.334   4.696  16.683  0.00  0.00    +0.000 A 
ATOM     18  C   UNL     1       3.329   4.183  17.501  0.00  0.00    +0.000 A 
ATOM     19  C   UNL     1       2.671   5.025  18.386  0.00  0.00    +0.000 A 
ATOM     20  C   UNL     1       3.009   6.385  18.467  0.00  0.00    +0.000 A 
ATOM     21  C   UNL     1       4.042   6.877  17.653  0.00  0.00    +0.000 A 
BRANCH  16  23
ATOM     22  C   UNL     1       6.409   5.407  15.238  0.00  0.00    +0.000 C 
ATOM     23  O   UNL     1       5.664   6.439  15.873  0.00  0.00    +0.000 OA
ENDBRANCH  16  23
ENDBRANCH  10  20
ENDBRANCH   1  14
BRANCH   1  24
ATOM     24  C   UNL     1      -0.928  10.591  18.560  0.00  0.00    +0.000 A 
ATOM     25  C   UNL     1      -1.236   9.796  17.446  0.00  0.00    +0.000 A 
ATOM     26  C   UNL     1      -2.430   9.983  16.749  0.00  0.00    +0.000 A 
ATOM     27  C   UNL     1      -3.342  10.948  17.167  0.00  0.00    +0.000 A 
ATOM     28  C   UNL     1      -3.107  11.669  18.334  0.00  0.00    +0.000 A 
ATOM     29  C   UNL     1      -1.925  11.472  19.046  0.00  0.00    +0.000 A 
ENDBRANCH   1  24
BRANCH   5  30
ATOM     30  C   UNL     1       2.015  14.053  20.161  0.00  0.00    +0.000 C 
ATOM     31  C   UNL     1       1.551  15.338  19.470  0.00  0.00    +0.000 C 
ATOM     32  C   UNL     1       2.084  16.554  20.217  0.00  0.00    +0.000 C 
ATOM     33  O   UNL     1       3.504  16.497  20.343  0.00  0.00    +0.000 OA
ATOM     34  C   UNL     1       3.944  15.356  21.078  0.00  0.00    +0.000 C 
ATOM     35  C   UNL     1       3.531  14.068  20.381  0.00  0.00    +0.000 C 
ENDBRANCH   5  30
TORSDOF 5
ENDMDL
MODEL 6
REMARK VINA RESULT:      -9.3      3.811      8.922
REMARK  Name = 
REMARK  6 active torsions:
REMARK  status: ('A' for Active; 'I' for Inactive)
REMARK    1  A    between atoms: C_1  and  O_2
REMARK    2  A    between atoms: O_2  and  C_3
REMARK    3  A    between atoms: C_7  and  C_8
REMARK    4  A    between atoms: C_12  and  C_13
REMARK    5  A    between atoms: C_13  and  C_14
REMARK    6  A    between atoms: N_23  and  C_24
REMARK                            x       y       z     vdW  Elec       q    Type
REMARK                         _______ _______ _______ _____ _____    ______ ____
ROOT
ATOM      1  C   UNL     1       0.605  11.214  19.021  0.00  0.00    +0.000 C 
ATOM      2  N   UNL     1       1.562  11.582  17.978  0.00  0.00    +0.000 N 
ATOM      3  C   UNL     1       2.230  12.700  18.292  0.00  0.00    +0.000 C 
ATOM      4  N   UNL     1       3.190  13.220  17.603  0.00  0.00    +0.000 NA
ATOM      5  N   UNL     1       1.793  13.237  19.450  0.00  0.00    +0.000 N 
ATOM      6  C   UNL     1       0.855  12.393  20.017  0.00  0.00    +0.000 C 
ATOM      7  O   UNL     1       0.356  12.536  21.136  0.00  0.00    +0.000 OA
ATOM      8  H   UNL     1       1.879  10.919  17.293  0.00  0.00    +0.000 HD
ATOM      9  H   UNL     1       3.352  12.665  16.765  0.00  0.00    +0.000 HD
ENDROOT
BRANCH   1  14
ATOM     10  C   UNL     1       2.027   7.643  19.487  0.00  0.00    +0.000 A 
ATOM     11  C   UNL     1       1.504   7.293  20.737  0.00  0.00    +0.000 A 
ATOM     12  C   UNL     1       0.723   8.186  21.447  0.00  0.00    +0.000 A 
ATOM     13  C   UNL     1       0.469   9.449  20.916  0.00  0.00    +0.000 A 
ATOM     14  C   UNL     1       0.965   9.854  19.656  0.00  0.00    +0.000 A 
ATOM     15  C   UNL     1       1.744   8.922  18.967  0.00  0.00    +0.000 A 
BRANCH  10  20
ATOM     16  C   UNL     1       4.372   6.180  16.924  0.00  0.00    +0.000 A 
ATOM     17  C   UNL     1       4.112   4.818  17.090  0.00  0.00    +0.000 A 
ATOM     18  C   UNL     1       3.213   4.377  18.059  0.00  0.00    +0.000 A 
ATOM     19  C   UNL     1       2.559   5.304  18.857  0.00  0.00    +0.000 A 
ATOM     20  C   UNL     1       2.796   6.679  18.702  0.00  0.00    +0.000 A 
ATOM     21  C   UNL     1       3.725   7.101  17.738  0.00  0.00    +0.000 A 
BRANCH  16  23
ATOM     22  C   UNL     1       5.787   5.403  15.181  0.00  0.00    +0.000 C 
ATOM     23  O   UNL     1       5.240   6.493  15.914  0.00  0.00    +0.000 OA
ENDBRANCH  16  23
ENDBRANCH  10  20
ENDBRANCH   1  14
BRANCH   1  24
ATOM     24  C   UNL     1      -0.810  11.179  18.415  0.00  0.00    +0.000 A 
ATOM     25  C   UNL     1      -1.832  12.014  18.893  0.00  0.00    +0.000 A 
ATOM     26  C   UNL     1      -3.171  11.710  18.643  0.00  0.00    +0.000 A 
ATOM     27  C   UNL     1      -3.507  10.587  17.894  0.00  0.00    +0.000 A 
ATOM     28  C   UNL     1      -2.507   9.809  17.317  0.00  0.00    +0.000 A 
ATOM     29  C   UNL     1      -1.168  10.120  17.546  0.00  0.00    +0.000 A 
ENDBRANCH   1  24
BRANCH   5  30
ATOM     30  C   UNL     1       2.302  14.427  20.136  0.00  0.00    +0.000 C 
ATOM     31  C   UNL     1       3.154  14.091  21.364  0.00  0.00    +0.000 C 
ATOM     32  C   UNL     1       3.623  15.372  22.041  0.00  0.00    +0.000 C 
ATOM     33  O   UNL     1       2.519  16.213  22.370  0.00  0.00    +0.000 OA
ATOM     34  C   UNL     1       1.778  16.620  21.221  0.00  0.00    +0.000 C 
ATOM     35  C   UNL     1       1.190  15.417  20.498  0.00  0.00    +0.000 C 
ENDBRANCH   5  30
TORSDOF 5
ENDMDL
MODEL 7
REMARK VINA RESULT:      -9.3      4.118      8.720
REMARK  Name = 
REMARK  6 active torsions:
REMARK  status: ('A' for Active; 'I' for Inactive)
REMARK    1  A    between atoms: C_1  and  O_2
REMARK    2  A    between atoms: O_2  and  C_3
REMARK    3  A    between atoms: C_7  and  C_8
REMARK    4  A    between atoms: C_12  and  C_13
REMARK    5  A    between atoms: C_13  and  C_14
REMARK    6  A    between atoms: N_23  and  C_24
REMARK                            x       y       z     vdW  Elec       q    Type
REMARK                         _______ _______ _______ _____ _____    ______ ____
ROOT
ATOM      1  C   UNL     1       0.152  11.370  19.132  0.00  0.00    +0.000 C 
ATOM      2  N   UNL     1       1.179  11.535  18.103  0.00  0.00    +0.000 N 
ATOM      3  C   UNL     1       1.861  12.677  18.264  0.00  0.00    +0.000 C 
ATOM      4  N   UNL     1       2.875  13.052  17.559  0.00  0.00    +0.000 NA
ATOM      5  N   UNL     1       1.374  13.413  19.286  0.00  0.00    +0.000 N 
ATOM      6  C   UNL     1       0.380  12.697  19.927  0.00  0.00    +0.000 C 
ATOM      7  O   UNL     1      -0.179  13.038  20.972  0.00  0.00    +0.000 OA
ATOM      8  H   UNL     1       1.514  10.759  17.561  0.00  0.00    +0.000 HD
ATOM      9  H   UNL     1       3.068  12.359  16.838  0.00  0.00    +0.000 HD
ENDROOT
BRANCH   1  14
ATOM     10  C   UNL     1       1.429   7.900  20.280  0.00  0.00    +0.000 A 
ATOM     11  C   UNL     1       0.828   7.783  21.539  0.00  0.00    +0.000 A 
ATOM     12  C   UNL     1       0.041   8.802  22.039  0.00  0.00    +0.000 A 
ATOM     13  C   UNL     1      -0.143   9.960  21.288  0.00  0.00    +0.000 A 
ATOM     14  C   UNL     1       0.432  10.131  20.009  0.00  0.00    +0.000 A 
ATOM     15  C   UNL     1       1.216   9.077  19.535  0.00  0.00    +0.000 A 
BRANCH  10  20
ATOM     16  C   UNL     1       3.064   4.531  19.853  0.00  0.00    +0.000 A 
ATOM     17  C   UNL     1       3.846   4.771  18.721  0.00  0.00    +0.000 A 
ATOM     18  C   UNL     1       3.809   6.005  18.076  0.00  0.00    +0.000 A 
ATOM     19  C   UNL     1       2.994   7.012  18.574  0.00  0.00    +0.000 A 
ATOM     20  C   UNL     1       2.207   6.798  19.717  0.00  0.00    +0.000 A 
ATOM     21  C   UNL     1       2.238   5.539  20.336  0.00  0.00    +0.000 A 
BRANCH  16  23
ATOM     22  C   UNL     1       2.337   2.974  21.493  0.00  0.00    +0.000 C 
ATOM     23  O   UNL     1       3.217   3.297  20.422  0.00  0.00    +0.000 OA
ENDBRANCH  16  23
ENDBRANCH  10  20
ENDBRANCH   1  14
BRANCH   1  24
ATOM     24  C   UNL     1      -1.227  11.261  18.452  0.00  0.00    +0.000 A 
ATOM     25  C   UNL     1      -2.318  12.029  18.885  0.00  0.00    +0.000 A 
ATOM     26  C   UNL     1      -3.623  11.652  18.563  0.00  0.00    +0.000 A 
ATOM     27  C   UNL     1      -3.854  10.520  17.786  0.00  0.00    +0.000 A 
ATOM     28  C   UNL     1      -2.782   9.809  17.255  0.00  0.00    +0.000 A 
ATOM     29  C   UNL     1      -1.477  10.194  17.556  0.00  0.00    +0.000 A 
ENDBRANCH   1  24
BRANCH   5  30
ATOM     30  C   UNL     1       1.879  14.691  19.791  0.00  0.00    +0.000 C 
ATOM     31  C   UNL     1       1.773  15.824  18.767  0.00  0.00    +0.000 C 
ATOM     32  C   UNL     1       2.342  17.111  19.349  0.00  0.00    +0.000 C 
ATOM     33  O   UNL     1       3.682  16.922  19.801  0.00  0.00    +0.000 OA
ATOM     34  C   UNL     1       3.779  15.942  20.833  0.00  0.00    +0.000 C 
ATOM     35  C   UNL     1       3.305  14.583  20.339  0.00  0.00    +0.000 C 
ENDBRANCH   5  30
TORSDOF 5
ENDMDL
MODEL 8
REMARK VINA RESULT:      -9.1      4.174      8.796
REMARK  Name = 
REMARK  6 active torsions:
REMARK  status: ('A' for Active; 'I' for Inactive)
REMARK    1  A    between atoms: C_1  and  O_2
REMARK    2  A    between atoms: O_2  and  C_3
REMARK    3  A    between atoms: C_7  and  C_8
REMARK    4  A    between atoms: C_12  and  C_13
REMARK    5  A    between atoms: C_13  and  C_14
REMARK    6  A    between atoms: N_23  and  C_24
REMARK                            x       y       z     vdW  Elec       q    Type
REMARK                         _______ _______ _______ _____ _____    ______ ____
ROOT
ATOM      1  C   UNL     1       0.021  11.558  19.146  0.00  0.00    +0.000 C 
ATOM      2  N   UNL     1       1.057  11.671  18.119  0.00  0.00    +0.000 N 
ATOM      3  C   UNL     1       1.719  12.832  18.212  0.00  0.00    +0.000 C 
ATOM      4  N   UNL     1       2.736  13.176  17.494  0.00  0.00    +0.000 NA
ATOM      5  N   UNL     1       1.210  13.625  19.178  0.00  0.00    +0.000 N 
ATOM      6  C   UNL     1       0.219  12.937  19.855  0.00  0.00    +0.000 C 
ATOM      7  O   UNL     1      -0.356  13.338  20.869  0.00  0.00    +0.000 OA
ATOM      8  H   UNL     1       1.410  10.866  17.633  0.00  0.00    +0.000 HD
ATOM      9  H   UNL     1       2.948  12.440  16.822  0.00  0.00    +0.000 HD
ENDROOT
BRANCH   1  14
ATOM     10  C   UNL     1       1.273   8.159  20.512  0.00  0.00    +0.000 A 
ATOM     11  C   UNL     1       0.717   8.151  21.797  0.00  0.00    +0.000 A 
ATOM     12  C   UNL     1      -0.031   9.223  22.245  0.00  0.00    +0.000 A 
ATOM     13  C   UNL     1      -0.221  10.324  21.413  0.00  0.00    +0.000 A 
ATOM     14  C   UNL     1       0.310  10.384  20.105  0.00  0.00    +0.000 A 
ATOM     15  C   UNL     1       1.055   9.280  19.686  0.00  0.00    +0.000 A 
BRANCH  10  20
ATOM     16  C   UNL     1       3.380   5.946  18.304  0.00  0.00    +0.000 A 
ATOM     17  C   UNL     1       3.248   4.725  18.971  0.00  0.00    +0.000 A 
ATOM     18  C   UNL     1       2.517   4.632  20.152  0.00  0.00    +0.000 A 
ATOM     19  C   UNL     1       1.900   5.764  20.665  0.00  0.00    +0.000 A 
ATOM     20  C   UNL     1       2.008   7.000  20.008  0.00  0.00    +0.000 A 
ATOM     21  C   UNL     1       2.772   7.078  18.833  0.00  0.00    +0.000 A 
BRANCH  16  23
ATOM     22  C   UNL     1       5.206   6.774  17.032  0.00  0.00    +0.000 C 
ATOM     23  O   UNL     1       4.086   5.903  17.134  0.00  0.00    +0.000 OA
ENDBRANCH  16  23
ENDBRANCH  10  20
ENDBRANCH   1  14
BRANCH   1  24
ATOM     24  C   UNL     1      -1.348  11.383  18.460  0.00  0.00    +0.000 A 
ATOM     25  C   UNL     1      -2.486  12.066  18.915  0.00  0.00    +0.000 A 
ATOM     26  C   UNL     1      -3.764  11.616  18.579  0.00  0.00    +0.000 A 
ATOM     27  C   UNL     1      -3.923  10.497  17.767  0.00  0.00    +0.000 A 
ATOM     28  C   UNL     1      -2.808   9.873  17.216  0.00  0.00    +0.000 A 
ATOM     29  C   UNL     1      -1.530  10.330  17.531  0.00  0.00    +0.000 A 
ENDBRANCH   1  24
BRANCH   5  30
ATOM     30  C   UNL     1       1.689  14.942  19.603  0.00  0.00    +0.000 C 
ATOM     31  C   UNL     1       1.327  16.058  18.619  0.00  0.00    +0.000 C 
ATOM     32  C   UNL     1       1.882  17.388  19.110  0.00  0.00    +0.000 C 
ATOM     33  O   UNL     1       3.289  17.308  19.333  0.00  0.00    +0.000 OA
ATOM     34  C   UNL     1       3.632  16.343  20.326  0.00  0.00    +0.000 C 
ATOM     35  C   UNL     1       3.191  14.949  19.907  0.00  0.00    +0.000 C 
ENDBRANCH   5  30
TORSDOF 5
ENDMDL
MODEL 9
REMARK VINA RESULT:      -9.0      3.968      9.029
REMARK  Name = 
REMARK  6 active torsions:
REMARK  status: ('A' for Active; 'I' for Inactive)
REMARK    1  A    between atoms: C_1  and  O_2
REMARK    2  A    between atoms: O_2  and  C_3
REMARK    3  A    between atoms: C_7  and  C_8
REMARK    4  A    between atoms: C_12  and  C_13
REMARK    5  A    between atoms: C_13  and  C_14
REMARK    6  A    between atoms: N_23  and  C_24
REMARK                            x       y       z     vdW  Elec       q    Type
REMARK                         _______ _______ _______ _____ _____    ______ ____
ROOT
ATOM      1  C   UNL     1       0.188  11.423  19.158  0.00  0.00    +0.000 C 
ATOM      2  N   UNL     1       1.229  11.645  18.155  0.00  0.00    +0.000 N 
ATOM      3  C   UNL     1       1.883  12.795  18.368  0.00  0.00    +0.000 C 
ATOM      4  N   UNL     1       2.901  13.216  17.695  0.00  0.00    +0.000 NA
ATOM      5  N   UNL     1       1.361  13.484  19.404  0.00  0.00    +0.000 N 
ATOM      6  C   UNL     1       0.372  12.726  20.003  0.00  0.00    +0.000 C 
ATOM      7  O   UNL     1      -0.213  13.019  21.048  0.00  0.00    +0.000 OA
ATOM      8  H   UNL     1       1.591  10.895  17.594  0.00  0.00    +0.000 HD
ATOM      9  H   UNL     1       3.122  12.552  16.955  0.00  0.00    +0.000 HD
ENDROOT
BRANCH   1  14
ATOM     10  C   UNL     1       1.494   7.931  20.201  0.00  0.00    +0.000 A 
ATOM     11  C   UNL     1       0.897   7.771  21.457  0.00  0.00    +0.000 A 
ATOM     12  C   UNL     1       0.103   8.769  21.989  0.00  0.00    +0.000 A 
ATOM     13  C   UNL     1      -0.091   9.948  21.272  0.00  0.00    +0.000 A 
ATOM     14  C   UNL     1       0.479  10.161  19.997  0.00  0.00    +0.000 A 
ATOM     15  C   UNL     1       1.270   9.127  19.491  0.00  0.00    +0.000 A 
BRANCH  10  20
ATOM     16  C   UNL     1       3.162   4.591  19.676  0.00  0.00    +0.000 A 
ATOM     17  C   UNL     1       3.931   4.867  18.543  0.00  0.00    +0.000 A 
ATOM     18  C   UNL     1       3.873   6.116  17.929  0.00  0.00    +0.000 A 
ATOM     19  C   UNL     1       3.052   7.101  18.459  0.00  0.00    +0.000 A 
ATOM     20  C   UNL     1       2.278   6.851  19.603  0.00  0.00    +0.000 A 
ATOM     21  C   UNL     1       2.331   5.578  20.192  0.00  0.00    +0.000 A 
BRANCH  16  23
ATOM     22  C   UNL     1       4.434   2.586  19.725  0.00  0.00    +0.000 C 
ATOM     23  O   UNL     1       3.335   3.346  20.214  0.00  0.00    +0.000 OA
ENDBRANCH  16  23
ENDBRANCH  10  20
ENDBRANCH   1  14
BRANCH   1  24
ATOM     24  C   UNL     1      -1.175  11.308  18.449  0.00  0.00    +0.000 A 
ATOM     25  C   UNL     1      -2.290  12.041  18.883  0.00  0.00    +0.000 A 
ATOM     26  C   UNL     1      -3.580  11.649  18.526  0.00  0.00    +0.000 A 
ATOM     27  C   UNL     1      -3.775  10.536  17.712  0.00  0.00    +0.000 A 
ATOM     28  C   UNL     1      -2.680   9.863  17.180  0.00  0.00    +0.000 A 
ATOM     29  C   UNL     1      -1.388  10.263  17.518  0.00  0.00    +0.000 A 
ENDBRANCH   1  24
BRANCH   5  30
ATOM     30  C   UNL     1       1.829  14.755  19.963  0.00  0.00    +0.000 C 
ATOM     31  C   UNL     1       2.252  14.645  21.430  0.00  0.00    +0.000 C 
ATOM     32  C   UNL     1       2.696  16.006  21.950  0.00  0.00    +0.000 C 
ATOM     33  O   UNL     1       1.677  16.987  21.759  0.00  0.00    +0.000 OA
ATOM     34  C   UNL     1       1.349  17.175  20.384  0.00  0.00    +0.000 C 
ATOM     35  C   UNL     1       0.815  15.888  19.770  0.00  0.00    +0.000 C 
ENDBRANCH   5  30
TORSDOF 5
ENDMDL
