MODEL 1
REMARK VINA RESULT:      -8.4      0.000      0.000
REMARK  Name = 
REMARK  6 active torsions:
REMARK  status: ('A' for Active; 'I' for Inactive)
REMARK    1  A    between atoms: N_3  and  C_4
REMARK    2  A    between atoms: C_4  and  C_5
REMARK    3  A    between atoms: C_5  and  C_6
REMARK    4  A    between atoms: C_6  and  C_7
REMARK    5  A    between atoms: C_6  and  C_13
REMARK    6  A    between atoms: N_19  and  C_20
REMARK                            x       y       z     vdW  Elec       q    Type
REMARK                         _______ _______ _______ _____ _____    ______ ____
ROOT
ATOM      1  C   UNL     1       2.831   8.420  17.958  0.00  0.00    +0.000 C 
ENDROOT
BRANCH   1   4
ATOM      2  O   UNL     1       0.892   9.405  19.616  0.00  0.00    +0.000 OA
ATOM      3  C   UNL     1       0.789   9.678  18.424  0.00  0.00    +0.000 C 
ATOM      4  N   UNL     1       1.724   9.252  17.511  0.00  0.00    +0.000 N 
ATOM      5  N   UNL     1      -0.191  10.456  17.858  0.00  0.00    +0.000 N 
ATOM      6  H   UNL     1       1.414   9.141  16.558  0.00  0.00    +0.000 HD
ATOM      7  H   UNL     1      -0.307  10.418  16.855  0.00  0.00    +0.000 HD
BRANCH   5   8
ATOM      8  C   UNL     1      -1.164  11.209  18.567  0.00  0.00    +0.000 A 
ATOM      9  C   UNL     1      -0.806  12.189  19.500  0.00  0.00    +0.000 A 
ATOM     10  C   UNL     1      -1.777  12.940  20.167  0.00  0.00    +0.000 A 
ATOM     11  C   UNL     1      -3.126  12.726  19.906  0.00  0.00    +0.000 A 
ATOM     12  C   UNL     1      -3.505  11.759  18.976  0.00  0.00    +0.000 A 
ATOM     13  C   UNL     1      -2.531  11.007  18.307  0.00  0.00    +0.000 A 
ATOM     14 CL   UNL     1      -3.061   9.808  17.177  0.00  0.00    +0.000 Cl
ENDBRANCH   5   8
ENDBRANCH   1   4
BRANCH   1  15
ATOM     15  C   UNL     1       2.450   6.947  17.908  0.00  0.00    +0.000 C 
BRANCH  15  16
ATOM     16  C   UNL     1       3.311   6.049  18.835  0.00  0.00    +0.000 C 
BRANCH  16  17
ATOM     17  C   UNL     1       2.500   4.896  19.416  0.00  0.00    +0.000 A 
ATOM     18  C   UNL     1       2.500   4.627  20.792  0.00  0.00    +0.000 A 
ATOM     19  C   UNL     1       1.807   3.527  21.304  0.00  0.00    +0.000 A 
ATOM     20  C   UNL     1       1.100   2.686  20.449  0.00  0.00    +0.000 A 
ATOM     21  C   UNL     1       1.074   2.949  19.082  0.00  0.00    +0.000 A 
ATOM     22  C   UNL     1       1.768   4.047  18.567  0.00  0.00    +0.000 A 
ENDBRANCH  16  17
BRANCH  16  23
ATOM     23  C   UNL     1       4.603   5.584  18.156  0.00  0.00    +0.000 A 
ATOM     24  C   UNL     1       4.595   5.270  16.787  0.00  0.00    +0.000 A 
ATOM     25  C   UNL     1       5.744   4.779  16.158  0.00  0.00    +0.000 A 
ATOM     26  C   UNL     1       6.920   4.604  16.884  0.00  0.00    +0.000 A 
ATOM     27  C   UNL     1       6.956   4.941  18.233  0.00  0.00    +0.000 A 
ATOM     28  C   UNL     1       5.811   5.435  18.859  0.00  0.00    +0.000 A 
ENDBRANCH  16  23
ENDBRANCH  15  16
ENDBRANCH   1  15
TORSDOF 6
ENDMDL
MODEL 2
REMARK VINA RESULT:      -8.4      0.136      1.342
REMARK  Name = 
REMARK  6 active torsions:
REMARK  status: ('A' for Active; 'I' for Inactive)
REMARK    1  A    between atoms: N_3  and  C_4
REMARK    2  A    between atoms: C_4  and  C_5
REMARK    3  A    between atoms: C_5  and  C_6
REMARK    4  A    between atoms: C_6  and  C_7
REMARK    5  A    between atoms: C_6  and  C_13
REMARK    6  A    between atoms: N_19  and  C_20
REMARK                            x       y       z     vdW  Elec       q    Type
REMARK                         _______ _______ _______ _____ _____    ______ ____
ROOT
ATOM      1  C   UNL     1       2.892   8.393  17.928  0.00  0.00    +0.000 C 
ENDROOT
BRANCH   1   4
ATOM      2  O   UNL     1       0.956   9.382  19.589  0.00  0.00    +0.000 OA
ATOM      3  C   UNL     1       0.863   9.671  18.400  0.00  0.00    +0.000 C 
ATOM      4  N   UNL     1       1.798   9.244  17.486  0.00  0.00    +0.000 N 
ATOM      5  N   UNL     1      -0.105  10.467  17.838  0.00  0.00    +0.000 N 
ATOM      6  H   UNL     1       1.492   9.148  16.530  0.00  0.00    +0.000 HD
ATOM      7  H   UNL     1      -0.215  10.443  16.833  0.00  0.00    +0.000 HD
BRANCH   5   8
ATOM      8  C   UNL     1      -1.072  11.224  18.550  0.00  0.00    +0.000 A 
ATOM      9  C   UNL     1      -0.707  12.227  19.455  0.00  0.00    +0.000 A 
ATOM     10  C   UNL     1      -1.673  12.980  20.127  0.00  0.00    +0.000 A 
ATOM     11  C   UNL     1      -3.024  12.746  19.897  0.00  0.00    +0.000 A 
ATOM     12  C   UNL     1      -3.410  11.756  18.995  0.00  0.00    +0.000 A 
ATOM     13  C   UNL     1      -2.441  11.002  18.322  0.00  0.00    +0.000 A 
ATOM     14 CL   UNL     1      -2.979   9.774  17.227  0.00  0.00    +0.000 Cl
ENDBRANCH   5   8
ENDBRANCH   1   4
BRANCH   1  15
ATOM     15  C   UNL     1       2.491   6.926  17.866  0.00  0.00    +0.000 C 
BRANCH  15  16
ATOM     16  C   UNL     1       3.361   6.004  18.760  0.00  0.00    +0.000 C 
BRANCH  16  17
ATOM     17  C   UNL     1       2.557   4.835  19.317  0.00  0.00    +0.000 A 
ATOM     18  C   UNL     1       1.819   3.991  18.473  0.00  0.00    +0.000 A 
ATOM     19  C   UNL     1       1.031   2.965  19.001  0.00  0.00    +0.000 A 
ATOM     20  C   UNL     1       0.975   2.764  20.378  0.00  0.00    +0.000 A 
ATOM     21  C   UNL     1       1.715   3.582  21.229  0.00  0.00    +0.000 A 
ATOM     22  C   UNL     1       2.502   4.610  20.704  0.00  0.00    +0.000 A 
ENDBRANCH  16  17
BRANCH  16  23
ATOM     23  C   UNL     1       4.647   5.559  18.055  0.00  0.00    +0.000 A 
ATOM     24  C   UNL     1       5.816   5.355  18.806  0.00  0.00    +0.000 A 
ATOM     25  C   UNL     1       7.019   5.014  18.179  0.00  0.00    +0.000 A 
ATOM     26  C   UNL     1       7.070   4.861  16.795  0.00  0.00    +0.000 A 
ATOM     27  C   UNL     1       5.914   5.025  16.039  0.00  0.00    +0.000 A 
ATOM     28  C   UNL     1       4.713   5.361  16.665  0.00  0.00    +0.000 A 
ENDBRANCH  16  23
ENDBRANCH  15  16
ENDBRANCH   1  15
TORSDOF 6
ENDMDL
MODEL 3
REMARK VINA RESULT:      -8.3      1.989      2.391
REMARK  Name = 
REMARK  6 active torsions:
REMARK  status: ('A' for Active; 'I' for Inactive)
REMARK    1  A    between atoms: N_3  and  C_4
REMARK    2  A    between atoms: C_4  and  C_5
REMARK    3  A    between atoms: C_5  and  C_6
REMARK    4  A    between atoms: C_6  and  C_7
REMARK    5  A    between atoms: C_6  and  C_13
REMARK    6  A    between atoms: N_19  and  C_20
REMARK                            x       y       z     vdW  Elec       q    Type
REMARK                         _______ _______ _______ _____ _____    ______ ____
ROOT
ATOM      1  C   UNL     1       2.571   8.619  17.915  0.00  0.00    +0.000 C 
ENDROOT
BRANCH   1   4
ATOM      2  O   UNL     1       1.465  10.866  19.015  0.00  0.00    +0.000 OA
ATOM      3  C   UNL     1       1.130   9.792  19.503  0.00  0.00    +0.000 C 
ATOM      4  N   UNL     1       1.610   8.602  19.008  0.00  0.00    +0.000 N 
ATOM      5  N   UNL     1       0.231   9.617  20.526  0.00  0.00    +0.000 N 
ATOM      6  H   UNL     1       1.646   7.822  19.646  0.00  0.00    +0.000 HD
ATOM      7  H   UNL     1       0.212   8.721  20.994  0.00  0.00    +0.000 HD
BRANCH   5   8
ATOM      8  C   UNL     1      -0.586  10.630  21.093  0.00  0.00    +0.000 A 
ATOM      9  C   UNL     1      -1.238  11.584  20.302  0.00  0.00    +0.000 A 
ATOM     10  C   UNL     1      -2.060  12.557  20.874  0.00  0.00    +0.000 A 
ATOM     11  C   UNL     1      -2.252  12.586  22.252  0.00  0.00    +0.000 A 
ATOM     12  C   UNL     1      -1.618  11.641  23.057  0.00  0.00    +0.000 A 
ATOM     13  C   UNL     1      -0.794  10.666  22.482  0.00  0.00    +0.000 A 
ATOM     14 CL   UNL     1      -0.019   9.531  23.534  0.00  0.00    +0.000 Cl
ENDBRANCH   5   8
ENDBRANCH   1   4
BRANCH   1  15
ATOM     15  C   UNL     1       2.814   7.211  17.391  0.00  0.00    +0.000 C 
BRANCH  15  16
ATOM     16  C   UNL     1       3.550   6.290  18.399  0.00  0.00    +0.000 C 
BRANCH  16  17
ATOM     17  C   UNL     1       2.650   5.164  18.897  0.00  0.00    +0.000 A 
ATOM     18  C   UNL     1       2.090   4.234  18.010  0.00  0.00    +0.000 A 
ATOM     19  C   UNL     1       1.212   3.248  18.469  0.00  0.00    +0.000 A 
ATOM     20  C   UNL     1       0.889   3.175  19.821  0.00  0.00    +0.000 A 
ATOM     21  C   UNL     1       1.450   4.080  20.718  0.00  0.00    +0.000 A 
ATOM     22  C   UNL     1       2.326   5.068  20.262  0.00  0.00    +0.000 A 
ENDBRANCH  16  17
BRANCH  16  23
ATOM     23  C   UNL     1       4.888   5.783  17.852  0.00  0.00    +0.000 A 
ATOM     24  C   UNL     1       5.055   5.617  16.467  0.00  0.00    +0.000 A 
ATOM     25  C   UNL     1       6.243   5.092  15.947  0.00  0.00    +0.000 A 
ATOM     26  C   UNL     1       7.285   4.736  16.800  0.00  0.00    +0.000 A 
ATOM     27  C   UNL     1       7.151   4.926  18.172  0.00  0.00    +0.000 A 
ATOM     28  C   UNL     1       5.967   5.453  18.691  0.00  0.00    +0.000 A 
ENDBRANCH  16  23
ENDBRANCH  15  16
ENDBRANCH   1  15
TORSDOF 6
ENDMDL
MODEL 4
REMARK VINA RESULT:      -8.3      1.227      3.822
REMARK  Name = 
REMARK  6 active torsions:
REMARK  status: ('A' for Active; 'I' for Inactive)
REMARK    1  A    between atoms: N_3  and  C_4
REMARK    2  A    between atoms: C_4  and  C_5
REMARK    3  A    between atoms: C_5  and  C_6
REMARK    4  A    between atoms: C_6  and  C_7
REMARK    5  A    between atoms: C_6  and  C_13
REMARK    6  A    between atoms: N_19  and  C_20
REMARK                            x       y       z     vdW  Elec       q    Type
REMARK                         _______ _______ _______ _____ _____    ______ ____
ROOT
ATOM      1  C   UNL     1       2.455   8.939  18.288  0.00  0.00    +0.000 C 
ENDROOT
BRANCH   1   4
ATOM      2  O   UNL     1       0.135  10.004  19.271  0.00  0.00    +0.000 OA
ATOM      3  C   UNL     1       0.135   9.680  18.087  0.00  0.00    +0.000 C 
ATOM      4  N   UNL     1       1.258   9.157  17.490  0.00  0.00    +0.000 N 
ATOM      5  N   UNL     1      -0.911   9.833  17.210  0.00  0.00    +0.000 N 
ATOM      6  H   UNL     1       1.114   8.556  16.694  0.00  0.00    +0.000 HD
ATOM      7  H   UNL     1      -0.877   9.324  16.338  0.00  0.00    +0.000 HD
BRANCH   5   8
ATOM      8  C   UNL     1      -2.117  10.534  17.473  0.00  0.00    +0.000 A 
ATOM      9  C   UNL     1      -2.347  11.181  18.693  0.00  0.00    +0.000 A 
ATOM     10  C   UNL     1      -3.528  11.889  18.924  0.00  0.00    +0.000 A 
ATOM     11  C   UNL     1      -4.500  11.968  17.932  0.00  0.00    +0.000 A 
ATOM     12  C   UNL     1      -4.289  11.337  16.707  0.00  0.00    +0.000 A 
ATOM     13  C   UNL     1      -3.104  10.627  16.476  0.00  0.00    +0.000 A 
ATOM     14 CL   UNL     1      -2.906   9.848  14.943  0.00  0.00    +0.000 Cl
ENDBRANCH   5   8
ENDBRANCH   1   4
BRANCH   1  15
ATOM     15  C   UNL     1       2.356   7.629  19.056  0.00  0.00    +0.000 C 
BRANCH  15  16
ATOM     16  C   UNL     1       2.707   6.380  18.205  0.00  0.00    +0.000 C 
BRANCH  16  17
ATOM     17  C   UNL     1       4.214   6.212  18.045  0.00  0.00    +0.000 A 
ATOM     18  C   UNL     1       4.986   5.581  19.032  0.00  0.00    +0.000 A 
ATOM     19  C   UNL     1       6.374   5.494  18.906  0.00  0.00    +0.000 A 
ATOM     20  C   UNL     1       7.010   6.029  17.789  0.00  0.00    +0.000 A 
ATOM     21  C   UNL     1       6.257   6.643  16.791  0.00  0.00    +0.000 A 
ATOM     22  C   UNL     1       4.869   6.734  16.916  0.00  0.00    +0.000 A 
ENDBRANCH  16  17
BRANCH  16  23
ATOM     23  C   UNL     1       2.019   5.113  18.722  0.00  0.00    +0.000 A 
ATOM     24  C   UNL     1       1.641   5.030  20.073  0.00  0.00    +0.000 A 
ATOM     25  C   UNL     1       1.073   3.858  20.586  0.00  0.00    +0.000 A 
ATOM     26  C   UNL     1       0.865   2.759  19.757  0.00  0.00    +0.000 A 
ATOM     27  C   UNL     1       1.202   2.835  18.409  0.00  0.00    +0.000 A 
ATOM     28  C   UNL     1       1.765   4.005  17.896  0.00  0.00    +0.000 A 
ENDBRANCH  16  23
ENDBRANCH  15  16
ENDBRANCH   1  15
TORSDOF 6
ENDMDL
MODEL 5
REMARK VINA RESULT:      -8.3      2.038      4.327
REMARK  Name = 
REMARK  6 active torsions:
REMARK  status: ('A' for Active; 'I' for Inactive)
REMARK    1  A    between atoms: N_3  and  C_4
REMARK    2  A    between atoms: C_4  and  C_5
REMARK    3  A    between atoms: C_5  and  C_6
REMARK    4  A    between atoms: C_6  and  C_7
REMARK    5  A    between atoms: C_6  and  C_13
REMARK    6  A    between atoms: N_19  and  C_20
REMARK                            x       y       z     vdW  Elec       q    Type
REMARK                         _______ _______ _______ _____ _____    ______ ____
ROOT
ATOM      1  C   UNL     1       1.895   8.199  18.152  0.00  0.00    +0.000 C 
ENDROOT
BRANCH   1   4
ATOM      2  O   UNL     1      -0.221   9.809  18.795  0.00  0.00    +0.000 OA
ATOM      3  C   UNL     1       0.734   9.819  19.566  0.00  0.00    +0.000 C 
ATOM      4  N   UNL     1       1.837   9.028  19.347  0.00  0.00    +0.000 N 
ATOM      5  N   UNL     1       0.819  10.539  20.732  0.00  0.00    +0.000 N 
ATOM      6  H   UNL     1       2.711   9.346  19.735  0.00  0.00    +0.000 HD
ATOM      7  H   UNL     1       1.730  10.650  21.156  0.00  0.00    +0.000 HD
BRANCH   5   8
ATOM      8  C   UNL     1      -0.237  11.274  21.332  0.00  0.00    +0.000 A 
ATOM      9  C   UNL     1      -0.799  12.399  20.717  0.00  0.00    +0.000 A 
ATOM     10  C   UNL     1      -1.856  13.094  21.309  0.00  0.00    +0.000 A 
ATOM     11  C   UNL     1      -2.376  12.667  22.526  0.00  0.00    +0.000 A 
ATOM     12  C   UNL     1      -1.837  11.545  23.153  0.00  0.00    +0.000 A 
ATOM     13  C   UNL     1      -0.777  10.849  22.558  0.00  0.00    +0.000 A 
ATOM     14 CL   UNL     1      -0.135   9.474  23.391  0.00  0.00    +0.000 Cl
ENDBRANCH   5   8
ENDBRANCH   1   4
BRANCH   1  15
ATOM     15  C   UNL     1       3.280   7.588  17.990  0.00  0.00    +0.000 C 
BRANCH  15  16
ATOM     16  C   UNL     1       3.256   6.093  17.577  0.00  0.00    +0.000 C 
BRANCH  16  17
ATOM     17  C   UNL     1       4.655   5.571  17.265  0.00  0.00    +0.000 A 
ATOM     18  C   UNL     1       4.876   4.656  16.225  0.00  0.00    +0.000 A 
ATOM     19  C   UNL     1       6.150   4.134  15.993  0.00  0.00    +0.000 A 
ATOM     20  C   UNL     1       7.222   4.524  16.791  0.00  0.00    +0.000 A 
ATOM     21  C   UNL     1       7.024   5.445  17.816  0.00  0.00    +0.000 A 
ATOM     22  C   UNL     1       5.750   5.967  18.053  0.00  0.00    +0.000 A 
ENDBRANCH  16  17
BRANCH  16  23
ATOM     23  C   UNL     1       2.510   5.222  18.592  0.00  0.00    +0.000 A 
ATOM     24  C   UNL     1       2.695   5.444  19.967  0.00  0.00    +0.000 A 
ATOM     25  C   UNL     1       2.078   4.620  20.915  0.00  0.00    +0.000 A 
ATOM     26  C   UNL     1       1.261   3.569  20.504  0.00  0.00    +0.000 A 
ATOM     27  C   UNL     1       1.039   3.355  19.148  0.00  0.00    +0.000 A 
ATOM     28  C   UNL     1       1.651   4.180  18.202  0.00  0.00    +0.000 A 
ENDBRANCH  16  23
ENDBRANCH  15  16
ENDBRANCH   1  15
TORSDOF 6
ENDMDL
MODEL 6
REMARK VINA RESULT:      -8.3      2.180      2.322
REMARK  Name = 
REMARK  6 active torsions:
REMARK  status: ('A' for Active; 'I' for Inactive)
REMARK    1  A    between atoms: N_3  and  C_4
REMARK    2  A    between atoms: C_4  and  C_5
REMARK    3  A    between atoms: C_5  and  C_6
REMARK    4  A    between atoms: C_6  and  C_7
REMARK    5  A    between atoms: C_6  and  C_13
REMARK    6  A    between atoms: N_19  and  C_20
REMARK                            x       y       z     vdW  Elec       q    Type
REMARK                         _______ _______ _______ _____ _____    ______ ____
ROOT
ATOM      1  C   UNL     1       1.626   8.222  17.927  0.00  0.00    +0.000 C 
ENDROOT
BRANCH   1   4
ATOM      2  O   UNL     1      -0.223   9.979  18.917  0.00  0.00    +0.000 OA
ATOM      3  C   UNL     1       0.817   9.854  19.557  0.00  0.00    +0.000 C 
ATOM      4  N   UNL     1       1.800   8.979  19.158  0.00  0.00    +0.000 N 
ATOM      5  N   UNL     1       1.118  10.491  20.735  0.00  0.00    +0.000 N 
ATOM      6  H   UNL     1       2.743   9.190  19.445  0.00  0.00    +0.000 HD
ATOM      7  H   UNL     1       2.081  10.491  21.042  0.00  0.00    +0.000 HD
BRANCH   5   8
ATOM      8  C   UNL     1       0.223  11.282  21.502  0.00  0.00    +0.000 A 
ATOM      9  C   UNL     1       0.143  12.671  21.347  0.00  0.00    +0.000 A 
ATOM     10  C   UNL     1      -0.763  13.431  22.090  0.00  0.00    +0.000 A 
ATOM     11  C   UNL     1      -1.613  12.810  22.999  0.00  0.00    +0.000 A 
ATOM     12  C   UNL     1      -1.555  11.427  23.165  0.00  0.00    +0.000 A 
ATOM     13  C   UNL     1      -0.647  10.666  22.419  0.00  0.00    +0.000 A 
ATOM     14 CL   UNL     1      -0.607   8.956  22.681  0.00  0.00    +0.000 Cl
ENDBRANCH   5   8
ENDBRANCH   1   4
BRANCH   1  15
ATOM     15  C   UNL     1       2.962   7.684  17.435  0.00  0.00    +0.000 C 
BRANCH  15  16
ATOM     16  C   UNL     1       3.604   6.643  18.390  0.00  0.00    +0.000 C 
BRANCH  16  17
ATOM     17  C   UNL     1       2.599   5.585  18.829  0.00  0.00    +0.000 A 
ATOM     18  C   UNL     1       2.170   5.496  20.162  0.00  0.00    +0.000 A 
ATOM     19  C   UNL     1       1.302   4.479  20.567  0.00  0.00    +0.000 A 
ATOM     20  C   UNL     1       0.844   3.542  19.644  0.00  0.00    +0.000 A 
ATOM     21  C   UNL     1       1.246   3.626  18.313  0.00  0.00    +0.000 A 
ATOM     22  C   UNL     1       2.116   4.640  17.906  0.00  0.00    +0.000 A 
ENDBRANCH  16  17
BRANCH  16  23
ATOM     23  C   UNL     1       4.888   6.041  17.812  0.00  0.00    +0.000 A 
ATOM     24  C   UNL     1       5.121   6.097  16.428  0.00  0.00    +0.000 A 
ATOM     25  C   UNL     1       6.253   5.495  15.868  0.00  0.00    +0.000 A 
ATOM     26  C   UNL     1       7.173   4.837  16.681  0.00  0.00    +0.000 A 
ATOM     27  C   UNL     1       6.976   4.801  18.058  0.00  0.00    +0.000 A 
ATOM     28  C   UNL     1       5.849   5.405  18.618  0.00  0.00    +0.000 A 
ENDBRANCH  16  23
ENDBRANCH  15  16
ENDBRANCH   1  15
TORSDOF 6
ENDMDL
MODEL 7
REMARK VINA RESULT:      -8.3      2.018      4.166
REMARK  Name = 
REMARK  6 active torsions:
REMARK  status: ('A' for Active; 'I' for Inactive)
REMARK    1  A    between atoms: N_3  and  C_4
REMARK    2  A    between atoms: C_4  and  C_5
REMARK    3  A    between atoms: C_5  and  C_6
REMARK    4  A    between atoms: C_6  and  C_7
REMARK    5  A    between atoms: C_6  and  C_13
REMARK    6  A    between atoms: N_19  and  C_20
REMARK                            x       y       z     vdW  Elec       q    Type
REMARK                         _______ _______ _______ _____ _____    ______ ____
ROOT
ATOM      1  C   UNL     1       1.946   8.145  18.050  0.00  0.00    +0.000 C 
ENDROOT
BRANCH   1   4
ATOM      2  O   UNL     1      -0.105   9.860  18.631  0.00  0.00    +0.000 OA
ATOM      3  C   UNL     1       0.781   9.754  19.474  0.00  0.00    +0.000 C 
ATOM      4  N   UNL     1       1.844   8.900  19.290  0.00  0.00    +0.000 N 
ATOM      5  N   UNL     1       0.816  10.392  20.689  0.00  0.00    +0.000 N 
ATOM      6  H   UNL     1       2.701   9.129  19.767  0.00  0.00    +0.000 HD
ATOM      7  H   UNL     1       1.693  10.410  21.191  0.00  0.00    +0.000 HD
BRANCH   5   8
ATOM      8  C   UNL     1      -0.236  11.162  21.251  0.00  0.00    +0.000 A 
ATOM      9  C   UNL     1      -0.804  12.247  20.573  0.00  0.00    +0.000 A 
ATOM     10  C   UNL     1      -1.856  12.977  21.130  0.00  0.00    +0.000 A 
ATOM     11  C   UNL     1      -2.366  12.626  22.376  0.00  0.00    +0.000 A 
ATOM     12  C   UNL     1      -1.820  11.545  23.066  0.00  0.00    +0.000 A 
ATOM     13  C   UNL     1      -0.765  10.814  22.507  0.00  0.00    +0.000 A 
ATOM     14 CL   UNL     1      -0.115   9.493  23.418  0.00  0.00    +0.000 Cl
ENDBRANCH   5   8
ENDBRANCH   1   4
BRANCH   1  15
ATOM     15  C   UNL     1       3.327   7.518  17.917  0.00  0.00    +0.000 C 
BRANCH  15  16
ATOM     16  C   UNL     1       3.294   6.015  17.535  0.00  0.00    +0.000 C 
BRANCH  16  17
ATOM     17  C   UNL     1       4.687   5.482  17.221  0.00  0.00    +0.000 A 
ATOM     18  C   UNL     1       5.588   5.151  18.244  0.00  0.00    +0.000 A 
ATOM     19  C   UNL     1       6.886   4.728  17.944  0.00  0.00    +0.000 A 
ATOM     20  C   UNL     1       7.298   4.624  16.618  0.00  0.00    +0.000 A 
ATOM     21  C   UNL     1       6.411   4.932  15.589  0.00  0.00    +0.000 A 
ATOM     22  C   UNL     1       5.114   5.357  15.886  0.00  0.00    +0.000 A 
ENDBRANCH  16  17
BRANCH  16  23
ATOM     23  C   UNL     1       2.554   5.167  18.574  0.00  0.00    +0.000 A 
ATOM     24  C   UNL     1       1.763   4.086  18.153  0.00  0.00    +0.000 A 
ATOM     25  C   UNL     1       1.023   3.338  19.076  0.00  0.00    +0.000 A 
ATOM     26  C   UNL     1       1.071   3.653  20.432  0.00  0.00    +0.000 A 
ATOM     27  C   UNL     1       1.876   4.699  20.871  0.00  0.00    +0.000 A 
ATOM     28  C   UNL     1       2.617   5.442  19.951  0.00  0.00    +0.000 A 
ENDBRANCH  16  23
ENDBRANCH  15  16
ENDBRANCH   1  15
TORSDOF 6
ENDMDL
MODEL 8
REMARK VINA RESULT:      -8.2      0.978      3.490
REMARK  Name = 
REMARK  6 active torsions:
REMARK  status: ('A' for Active; 'I' for Inactive)
REMARK    1  A    between atoms: N_3  and  C_4
REMARK    2  A    between atoms: C_4  and  C_5
REMARK    3  A    between atoms: C_5  and  C_6
REMARK    4  A    between atoms: C_6  and  C_7
REMARK    5  A    between atoms: C_6  and  C_13
REMARK    6  A    between atoms: N_19  and  C_20
REMARK                            x       y       z     vdW  Elec       q    Type
REMARK                         _______ _______ _______ _____ _____    ______ ____
ROOT
ATOM      1  C   UNL     1       2.823   8.552  17.866  0.00  0.00    +0.000 C 
ENDROOT
BRANCH   1   4
ATOM      2  O   UNL     1       1.084   9.760  19.598  0.00  0.00    +0.000 OA
ATOM      3  C   UNL     1       0.739   9.702  18.421  0.00  0.00    +0.000 C 
ATOM      4  N   UNL     1       1.552   9.137  17.466  0.00  0.00    +0.000 N 
ATOM      5  N   UNL     1      -0.421  10.215  17.896  0.00  0.00    +0.000 N 
ATOM      6  H   UNL     1       1.100   8.754  16.651  0.00  0.00    +0.000 HD
ATOM      7  H   UNL     1      -0.703   9.906  16.976  0.00  0.00    +0.000 HD
BRANCH   5   8
ATOM      8  C   UNL     1      -1.350  11.037  18.586  0.00  0.00    +0.000 A 
ATOM      9  C   UNL     1      -0.947  11.941  19.576  0.00  0.00    +0.000 A 
ATOM     10  C   UNL     1      -1.872  12.762  20.225  0.00  0.00    +0.000 A 
ATOM     11  C   UNL     1      -3.220  12.698  19.887  0.00  0.00    +0.000 A 
ATOM     12  C   UNL     1      -3.643  11.810  18.899  0.00  0.00    +0.000 A 
ATOM     13  C   UNL     1      -2.714  10.987  18.249  0.00  0.00    +0.000 A 
ATOM     14 CL   UNL     1      -3.300   9.891  17.044  0.00  0.00    +0.000 Cl
ENDBRANCH   5   8
ENDBRANCH   1   4
BRANCH   1  15
ATOM     15  C   UNL     1       2.605   7.212  18.553  0.00  0.00    +0.000 C 
BRANCH  15  16
ATOM     16  C   UNL     1       3.270   6.019  17.816  0.00  0.00    +0.000 C 
BRANCH  16  17
ATOM     17  C   UNL     1       4.784   6.017  17.997  0.00  0.00    +0.000 A 
ATOM     18  C   UNL     1       5.381   5.442  19.129  0.00  0.00    +0.000 A 
ATOM     19  C   UNL     1       6.764   5.507  19.316  0.00  0.00    +0.000 A 
ATOM     20  C   UNL     1       7.569   6.139  18.373  0.00  0.00    +0.000 A 
ATOM     21  C   UNL     1       6.994   6.700  17.235  0.00  0.00    +0.000 A 
ATOM     22  C   UNL     1       5.611   6.640  17.046  0.00  0.00    +0.000 A 
ENDBRANCH  16  17
BRANCH  16  23
ATOM     23  C   UNL     1       2.625   4.679  18.183  0.00  0.00    +0.000 A 
ATOM     24  C   UNL     1       2.911   3.538  17.415  0.00  0.00    +0.000 A 
ATOM     25  C   UNL     1       2.284   2.317  17.687  0.00  0.00    +0.000 A 
ATOM     26  C   UNL     1       1.371   2.215  18.735  0.00  0.00    +0.000 A 
ATOM     27  C   UNL     1       1.102   3.327  19.527  0.00  0.00    +0.000 A 
ATOM     28  C   UNL     1       1.731   4.544  19.258  0.00  0.00    +0.000 A 
ENDBRANCH  16  23
ENDBRANCH  15  16
ENDBRANCH   1  15
TORSDOF 6
ENDMDL
MODEL 9
REMARK VINA RESULT:      -8.2      1.697      4.072
REMARK  Name = 
REMARK  6 active torsions:
REMARK  status: ('A' for Active; 'I' for Inactive)
REMARK    1  A    between atoms: N_3  and  C_4
REMARK    2  A    between atoms: C_4  and  C_5
REMARK    3  A    between atoms: C_5  and  C_6
REMARK    4  A    between atoms: C_6  and  C_7
REMARK    5  A    between atoms: C_6  and  C_13
REMARK    6  A    between atoms: N_19  and  C_20
REMARK                            x       y       z     vdW  Elec       q    Type
REMARK                         _______ _______ _______ _____ _____    ______ ____
ROOT
ATOM      1  C   UNL     1       1.914   7.870  18.147  0.00  0.00    +0.000 C 
ENDROOT
BRANCH   1   4
ATOM      2  O   UNL     1       0.874   9.984  19.537  0.00  0.00    +0.000 OA
ATOM      3  C   UNL     1       1.434  10.244  18.476  0.00  0.00    +0.000 C 
ATOM      4  N   UNL     1       2.012   9.255  17.713  0.00  0.00    +0.000 N 
ATOM      5  N   UNL     1       1.611  11.497  17.945  0.00  0.00    +0.000 N 
ATOM      6  H   UNL     1       2.087   9.428  16.723  0.00  0.00    +0.000 HD
ATOM      7  H   UNL     1       1.873  11.567  16.971  0.00  0.00    +0.000 HD
BRANCH   5   8
ATOM      8  C   UNL     1       1.320  12.723  18.599  0.00  0.00    +0.000 A 
ATOM      9  C   UNL     1       2.315  13.484  19.224  0.00  0.00    +0.000 A 
ATOM     10  C   UNL     1       2.014  14.701  19.839  0.00  0.00    +0.000 A 
ATOM     11  C   UNL     1       0.709  15.183  19.831  0.00  0.00    +0.000 A 
ATOM     12  C   UNL     1      -0.296  14.446  19.208  0.00  0.00    +0.000 A 
ATOM     13  C   UNL     1       0.007  13.225  18.591  0.00  0.00    +0.000 A 
ATOM     14 CL   UNL     1      -1.285  12.344  17.850  0.00  0.00    +0.000 Cl
ENDBRANCH   5   8
ENDBRANCH   1   4
BRANCH   1  15
ATOM     15  C   UNL     1       3.288   7.214  18.159  0.00  0.00    +0.000 C 
BRANCH  15  16
ATOM     16  C   UNL     1       3.271   5.727  17.717  0.00  0.00    +0.000 C 
BRANCH  16  17
ATOM     17  C   UNL     1       4.668   5.229  17.360  0.00  0.00    +0.000 A 
ATOM     18  C   UNL     1       5.786   5.580  18.132  0.00  0.00    +0.000 A 
ATOM     19  C   UNL     1       7.068   5.175  17.756  0.00  0.00    +0.000 A 
ATOM     20  C   UNL     1       7.251   4.407  16.609  0.00  0.00    +0.000 A 
ATOM     21  C   UNL     1       6.151   4.035  15.841  0.00  0.00    +0.000 A 
ATOM     22  C   UNL     1       4.867   4.441  16.213  0.00  0.00    +0.000 A 
ENDBRANCH  16  17
BRANCH  16  23
ATOM     23  C   UNL     1       2.561   4.827  18.733  0.00  0.00    +0.000 A 
ATOM     24  C   UNL     1       1.692   3.820  18.281  0.00  0.00    +0.000 A 
ATOM     25  C   UNL     1       0.980   3.029  19.189  0.00  0.00    +0.000 A 
ATOM     26  C   UNL     1       1.132   3.225  20.560  0.00  0.00    +0.000 A 
ATOM     27  C   UNL     1       2.014   4.194  21.025  0.00  0.00    +0.000 A 
ATOM     28  C   UNL     1       2.728   4.980  20.120  0.00  0.00    +0.000 A 
ENDBRANCH  16  23
ENDBRANCH  15  16
ENDBRANCH   1  15
TORSDOF 6
ENDMDL
