MODEL 1
REMARK VINA RESULT:      -8.0      0.000      0.000
REMARK  Name = 
REMARK  5 active torsions:
REMARK  status: ('A' for Active; 'I' for Inactive)
REMARK    1  A    between atoms: C_1  and  O_2
REMARK    2  A    between atoms: O_2  and  C_3
REMARK    3  A    between atoms: C_6  and  C_7
REMARK    4  A    between atoms: C_9  and  C_10
REMARK    5  A    between atoms: C_10  and  O_12
REMARK                            x       y       z     vdW  Elec       q    Type
REMARK                         _______ _______ _______ _____ _____    ______ ____
ROOT
ATOM      1  C   UNL     1       3.032   6.567  18.378  0.00  0.00    +0.000 A 
ATOM      2  C   UNL     1       2.739   5.229  18.554  0.00  0.00    +0.000 A 
ATOM      3  C   UNL     1       3.614   4.312  18.026  0.00  0.00    +0.000 A 
ATOM      4  C   UNL     1       4.457   4.660  16.979  0.00  0.00    +0.000 A 
ATOM      5  C   UNL     1       5.002   3.703  16.104  0.00  0.00    +0.000 A 
ATOM      6  C   UNL     1       5.773   4.121  15.038  0.00  0.00    +0.000 A 
ATOM      7  F   UNL     1       6.197   3.229  14.133  0.00  0.00    +0.000 F 
ATOM      8  C   UNL     1       6.082   5.464  14.883  0.00  0.00    +0.000 A 
ATOM      9  C   UNL     1       5.547   6.406  15.777  0.00  0.00    +0.000 A 
ATOM     10  C   UNL     1       4.667   6.037  16.793  0.00  0.00    +0.000 A 
ATOM     11  N   UNL     1       4.033   6.964  17.554  0.00  0.00    +0.000 NA
ENDROOT
BRANCH   1  15
ATOM     12  C   UNL     1       0.507   9.317  20.530  0.00  0.00    +0.000 A 
ATOM     13  C   UNL     1       1.020   8.195  21.162  0.00  0.00    +0.000 A 
ATOM     14  C   UNL     1       1.914   7.360  20.495  0.00  0.00    +0.000 A 
ATOM     15  C   UNL     1       2.271   7.582  19.148  0.00  0.00    +0.000 A 
ATOM     16  C   UNL     1       1.812   8.766  18.556  0.00  0.00    +0.000 A 
ATOM     17  C   UNL     1       0.931   9.620  19.237  0.00  0.00    +0.000 A 
BRANCH  12  19
ATOM     18  C   UNL     1      -0.329   9.841  22.676  0.00  0.00    +0.000 C 
ATOM     19  O   UNL     1      -0.411  10.002  21.271  0.00  0.00    +0.000 OA
ENDBRANCH  12  19
ENDBRANCH   1  15
BRANCH   3  20
ATOM     20  C   UNL     1       4.006   3.226  18.941  0.00  0.00    +0.000 C 
ATOM     21  O   UNL     1       3.308   2.263  19.230  0.00  0.00    +0.000 OA
BRANCH  20  22
ATOM     22  O   UNL     1       5.281   3.417  19.374  0.00  0.00    +0.000 OA
ATOM     23  H   UNL     1       5.433   3.345  20.344  0.00  0.00    +0.000 HD
ENDBRANCH  20  22
ENDBRANCH   3  20
TORSDOF 4
ENDMDL
MODEL 2
REMARK VINA RESULT:      -7.8      0.351      1.080
REMARK  Name = 
REMARK  5 active torsions:
REMARK  status: ('A' for Active; 'I' for Inactive)
REMARK    1  A    between atoms: C_1  and  O_2
REMARK    2  A    between atoms: O_2  and  C_3
REMARK    3  A    between atoms: C_6  and  C_7
REMARK    4  A    between atoms: C_9  and  C_10
REMARK    5  A    between atoms: C_10  and  O_12
REMARK                            x       y       z     vdW  Elec       q    Type
REMARK                         _______ _______ _______ _____ _____    ______ ____
ROOT
ATOM      1  C   UNL     1       3.013   6.357  18.253  0.00  0.00    +0.000 A 
ATOM      2  C   UNL     1       2.735   5.008  18.356  0.00  0.00    +0.000 A 
ATOM      3  C   UNL     1       3.648   4.129  17.829  0.00  0.00    +0.000 A 
ATOM      4  C   UNL     1       4.532   4.534  16.838  0.00  0.00    +0.000 A 
ATOM      5  C   UNL     1       5.130   3.625  15.948  0.00  0.00    +0.000 A 
ATOM      6  C   UNL     1       5.942   4.101  14.937  0.00  0.00    +0.000 A 
ATOM      7  F   UNL     1       6.421   3.256  14.015  0.00  0.00    +0.000 F 
ATOM      8  C   UNL     1       6.235   5.454  14.855  0.00  0.00    +0.000 A 
ATOM      9  C   UNL     1       5.645   6.348  15.763  0.00  0.00    +0.000 A 
ATOM     10  C   UNL     1       4.727   5.921  16.722  0.00  0.00    +0.000 A 
ATOM     11  N   UNL     1       4.043   6.804  17.493  0.00  0.00    +0.000 NA
ENDROOT
BRANCH   1  15
ATOM     12  C   UNL     1       0.987   9.345  20.604  0.00  0.00    +0.000 A 
ATOM     13  C   UNL     1       1.264   9.576  19.265  0.00  0.00    +0.000 A 
ATOM     14  C   UNL     1       1.831   8.572  18.482  0.00  0.00    +0.000 A 
ATOM     15  C   UNL     1       2.202   7.326  19.030  0.00  0.00    +0.000 A 
ATOM     16  C   UNL     1       1.836   7.082  20.360  0.00  0.00    +0.000 A 
ATOM     17  C   UNL     1       1.242   8.085  21.141  0.00  0.00    +0.000 A 
BRANCH  12  19
ATOM     18  C   UNL     1      -0.208  10.175  22.465  0.00  0.00    +0.000 C 
ATOM     19  O   UNL     1       0.503  10.435  21.267  0.00  0.00    +0.000 OA
ENDBRANCH  12  19
ENDBRANCH   1  15
BRANCH   3  20
ATOM     20  C   UNL     1       4.017   3.008  18.714  0.00  0.00    +0.000 C 
ATOM     21  O   UNL     1       3.377   1.974  18.843  0.00  0.00    +0.000 OA
BRANCH  20  22
ATOM     22  O   UNL     1       5.206   3.266  19.323  0.00  0.00    +0.000 OA
ATOM     23  H   UNL     1       5.895   3.706  18.775  0.00  0.00    +0.000 HD
ENDBRANCH  20  22
ENDBRANCH   3  20
TORSDOF 4
ENDMDL
MODEL 3
REMARK VINA RESULT:      -7.6      3.165      6.978
REMARK  Name = 
REMARK  5 active torsions:
REMARK  status: ('A' for Active; 'I' for Inactive)
REMARK    1  A    between atoms: C_1  and  O_2
REMARK    2  A    between atoms: O_2  and  C_3
REMARK    3  A    between atoms: C_6  and  C_7
REMARK    4  A    between atoms: C_9  and  C_10
REMARK    5  A    between atoms: C_10  and  O_12
REMARK                            x       y       z     vdW  Elec       q    Type
REMARK                         _______ _______ _______ _____ _____    ______ ____
ROOT
ATOM      1  C   UNL     1       3.700   5.947  18.135  0.00  0.00    +0.000 A 
ATOM      2  C   UNL     1       3.545   5.211  19.294  0.00  0.00    +0.000 A 
ATOM      3  C   UNL     1       2.511   5.552  20.130  0.00  0.00    +0.000 A 
ATOM      4  C   UNL     1       1.962   6.826  20.094  0.00  0.00    +0.000 A 
ATOM      5  C   UNL     1       1.274   7.379  21.189  0.00  0.00    +0.000 A 
ATOM      6  C   UNL     1       0.817   8.681  21.115  0.00  0.00    +0.000 A 
ATOM      7  F   UNL     1       0.267   9.254  22.193  0.00  0.00    +0.000 F 
ATOM      8  C   UNL     1       0.956   9.404  19.940  0.00  0.00    +0.000 A 
ATOM      9  C   UNL     1       1.627   8.832  18.848  0.00  0.00    +0.000 A 
ATOM     10  C   UNL     1       2.208   7.566  18.925  0.00  0.00    +0.000 A 
ATOM     11  N   UNL     1       2.987   7.081  17.925  0.00  0.00    +0.000 NA
ENDROOT
BRANCH   1  15
ATOM     12  C   UNL     1       6.081   4.526  14.838  0.00  0.00    +0.000 A 
ATOM     13  C   UNL     1       5.913   5.886  15.046  0.00  0.00    +0.000 A 
ATOM     14  C   UNL     1       5.225   6.346  16.167  0.00  0.00    +0.000 A 
ATOM     15  C   UNL     1       4.623   5.456  17.083  0.00  0.00    +0.000 A 
ATOM     16  C   UNL     1       4.878   4.090  16.903  0.00  0.00    +0.000 A 
ATOM     17  C   UNL     1       5.593   3.630  15.787  0.00  0.00    +0.000 A 
BRANCH  12  19
ATOM     18  C   UNL     1       5.930   3.531  12.701  0.00  0.00    +0.000 C 
ATOM     19  O   UNL     1       6.708   4.216  13.667  0.00  0.00    +0.000 OA
ENDBRANCH  12  19
ENDBRANCH   1  15
BRANCH   3  20
ATOM     20  C   UNL     1       1.687   4.422  20.597  0.00  0.00    +0.000 C 
ATOM     21  O   UNL     1       0.708   3.976  20.014  0.00  0.00    +0.000 OA
BRANCH  20  22
ATOM     22  O   UNL     1       2.210   3.906  21.742  0.00  0.00    +0.000 OA
ATOM     23  H   UNL     1       2.278   4.518  22.510  0.00  0.00    +0.000 HD
ENDBRANCH  20  22
ENDBRANCH   3  20
TORSDOF 4
ENDMDL
MODEL 4
REMARK VINA RESULT:      -7.3      2.584      3.170
REMARK  Name = 
REMARK  5 active torsions:
REMARK  status: ('A' for Active; 'I' for Inactive)
REMARK    1  A    between atoms: C_1  and  O_2
REMARK    2  A    between atoms: O_2  and  C_3
REMARK    3  A    between atoms: C_6  and  C_7
REMARK    4  A    between atoms: C_9  and  C_10
REMARK    5  A    between atoms: C_10  and  O_12
REMARK                            x       y       z     vdW  Elec       q    Type
REMARK                         _______ _______ _______ _____ _____    ______ ____
ROOT
ATOM      1  C   UNL     1       2.620   6.637  18.990  0.00  0.00    +0.000 A 
ATOM      2  C   UNL     1       3.818   6.392  19.632  0.00  0.00    +0.000 A 
ATOM      3  C   UNL     1       4.496   5.246  19.297  0.00  0.00    +0.000 A 
ATOM      4  C   UNL     1       3.826   4.165  18.740  0.00  0.00    +0.000 A 
ATOM      5  C   UNL     1       4.323   2.852  18.820  0.00  0.00    +0.000 A 
ATOM      6  C   UNL     1       3.571   1.811  18.311  0.00  0.00    +0.000 A 
ATOM      7  F   UNL     1       3.979   0.547  18.487  0.00  0.00    +0.000 F 
ATOM      8  C   UNL     1       2.381   2.068  17.647  0.00  0.00    +0.000 A 
ATOM      9  C   UNL     1       1.907   3.387  17.558  0.00  0.00    +0.000 A 
ATOM     10  C   UNL     1       2.577   4.450  18.164  0.00  0.00    +0.000 A 
ATOM     11  N   UNL     1       2.037   5.694  18.209  0.00  0.00    +0.000 NA
ENDROOT
BRANCH   1  15
ATOM     12  C   UNL     1       0.451  10.345  19.327  0.00  0.00    +0.000 A 
ATOM     13  C   UNL     1       0.722   9.585  20.456  0.00  0.00    +0.000 A 
ATOM     14  C   UNL     1       1.506   8.438  20.359  0.00  0.00    +0.000 A 
ATOM     15  C   UNL     1       1.990   7.974  19.117  0.00  0.00    +0.000 A 
ATOM     16  C   UNL     1       1.779   8.800  18.005  0.00  0.00    +0.000 A 
ATOM     17  C   UNL     1       1.010   9.969  18.108  0.00  0.00    +0.000 A 
BRANCH  12  19
ATOM     18  C   UNL     1      -0.723  12.184  18.424  0.00  0.00    +0.000 C 
ATOM     19  O   UNL     1      -0.387  11.397  19.553  0.00  0.00    +0.000 OA
ENDBRANCH  12  19
ENDBRANCH   1  15
BRANCH   3  20
ATOM     20  C   UNL     1       5.932   5.428  19.022  0.00  0.00    +0.000 C 
ATOM     21  O   UNL     1       6.834   5.225  19.823  0.00  0.00    +0.000 OA
BRANCH  20  22
ATOM     22  O   UNL     1       6.115   5.798  17.725  0.00  0.00    +0.000 OA
ATOM     23  H   UNL     1       6.453   5.106  17.113  0.00  0.00    +0.000 HD
ENDBRANCH  20  22
ENDBRANCH   3  20
TORSDOF 4
ENDMDL
MODEL 5
REMARK VINA RESULT:      -7.3      3.615      8.063
REMARK  Name = 
REMARK  5 active torsions:
REMARK  status: ('A' for Active; 'I' for Inactive)
REMARK    1  A    between atoms: C_1  and  O_2
REMARK    2  A    between atoms: O_2  and  C_3
REMARK    3  A    between atoms: C_6  and  C_7
REMARK    4  A    between atoms: C_9  and  C_10
REMARK    5  A    between atoms: C_10  and  O_12
REMARK                            x       y       z     vdW  Elec       q    Type
REMARK                         _______ _______ _______ _____ _____    ______ ____
ROOT
ATOM      1  C   UNL     1       1.858   8.227  19.016  0.00  0.00    +0.000 A 
ATOM      2  C   UNL     1       1.258   9.278  18.350  0.00  0.00    +0.000 A 
ATOM      3  C   UNL     1       0.779  10.319  19.107  0.00  0.00    +0.000 A 
ATOM      4  C   UNL     1       0.462  10.134  20.446  0.00  0.00    +0.000 A 
ATOM      5  C   UNL     1      -0.445  10.967  21.125  0.00  0.00    +0.000 A 
ATOM      6  C   UNL     1      -0.774  10.684  22.436  0.00  0.00    +0.000 A 
ATOM      7  F   UNL     1      -1.723  11.400  23.053  0.00  0.00    +0.000 F 
ATOM      8  C   UNL     1      -0.148   9.642  23.104  0.00  0.00    +0.000 A 
ATOM      9  C   UNL     1       0.769   8.831  22.418  0.00  0.00    +0.000 A 
ATOM     10  C   UNL     1       1.037   9.010  21.061  0.00  0.00    +0.000 A 
ATOM     11  N   UNL     1       1.804   8.130  20.368  0.00  0.00    +0.000 NA
ENDROOT
BRANCH   1  15
ATOM     12  C   UNL     1       4.274   5.230  17.080  0.00  0.00    +0.000 A 
ATOM     13  C   UNL     1       3.121   4.869  17.762  0.00  0.00    +0.000 A 
ATOM     14  C   UNL     1       2.290   5.847  18.303  0.00  0.00    +0.000 A 
ATOM     15  C   UNL     1       2.620   7.218  18.240  0.00  0.00    +0.000 A 
ATOM     16  C   UNL     1       3.740   7.567  17.475  0.00  0.00    +0.000 A 
ATOM     17  C   UNL     1       4.563   6.582  16.908  0.00  0.00    +0.000 A 
BRANCH  12  19
ATOM     18  C   UNL     1       6.415   4.420  16.501  0.00  0.00    +0.000 C 
ATOM     19  O   UNL     1       5.030   4.173  16.668  0.00  0.00    +0.000 OA
ENDBRANCH  12  19
ENDBRANCH   1  15
BRANCH   3  20
ATOM     20  C   UNL     1       1.157  11.661  18.631  0.00  0.00    +0.000 C 
ATOM     21  O   UNL     1       2.268  12.161  18.746  0.00  0.00    +0.000 OA
BRANCH  20  22
ATOM     22  O   UNL     1       0.107  12.243  17.991  0.00  0.00    +0.000 OA
ATOM     23  H   UNL     1      -0.177  13.126  18.321  0.00  0.00    +0.000 HD
ENDBRANCH  20  22
ENDBRANCH   3  20
TORSDOF 4
ENDMDL
MODEL 6
REMARK VINA RESULT:      -7.2      2.287      3.331
REMARK  Name = 
REMARK  5 active torsions:
REMARK  status: ('A' for Active; 'I' for Inactive)
REMARK    1  A    between atoms: C_1  and  O_2
REMARK    2  A    between atoms: O_2  and  C_3
REMARK    3  A    between atoms: C_6  and  C_7
REMARK    4  A    between atoms: C_9  and  C_10
REMARK    5  A    between atoms: C_10  and  O_12
REMARK                            x       y       z     vdW  Elec       q    Type
REMARK                         _______ _______ _______ _____ _____    ______ ____
ROOT
ATOM      1  C   UNL     1       2.642   6.765  18.393  0.00  0.00    +0.000 A 
ATOM      2  C   UNL     1       3.941   6.617  17.947  0.00  0.00    +0.000 A 
ATOM      3  C   UNL     1       4.295   5.404  17.412  0.00  0.00    +0.000 A 
ATOM      4  C   UNL     1       3.586   4.254  17.731  0.00  0.00    +0.000 A 
ATOM      5  C   UNL     1       4.149   2.970  17.624  0.00  0.00    +0.000 A 
ATOM      6  C   UNL     1       3.414   1.872  18.029  0.00  0.00    +0.000 A 
ATOM      7  F   UNL     1       3.983   0.660  18.042  0.00  0.00    +0.000 F 
ATOM      8  C   UNL     1       2.103   2.027  18.453  0.00  0.00    +0.000 A 
ATOM      9  C   UNL     1       1.548   3.314  18.536  0.00  0.00    +0.000 A 
ATOM     10  C   UNL     1       2.296   4.456  18.251  0.00  0.00    +0.000 A 
ATOM     11  N   UNL     1       1.806   5.700  18.481  0.00  0.00    +0.000 NA
ENDROOT
BRANCH   1  15
ATOM     12  C   UNL     1       0.836  10.578  19.265  0.00  0.00    +0.000 A 
ATOM     13  C   UNL     1       0.876   9.584  20.231  0.00  0.00    +0.000 A 
ATOM     14  C   UNL     1       1.546   8.388  19.981  0.00  0.00    +0.000 A 
ATOM     15  C   UNL     1       2.140   8.120  18.729  0.00  0.00    +0.000 A 
ATOM     16  C   UNL     1       2.163   9.167  17.799  0.00  0.00    +0.000 A 
ATOM     17  C   UNL     1       1.510  10.381  18.062  0.00  0.00    +0.000 A 
BRANCH  12  19
ATOM     18  C   UNL     1      -1.215  11.731  19.059  0.00  0.00    +0.000 C 
ATOM     19  O   UNL     1       0.086  11.662  19.615  0.00  0.00    +0.000 OA
ENDBRANCH  12  19
ENDBRANCH   1  15
BRANCH   3  20
ATOM     20  C   UNL     1       5.018   5.476  16.129  0.00  0.00    +0.000 C 
ATOM     21  O   UNL     1       5.216   4.530  15.379  0.00  0.00    +0.000 OA
BRANCH  20  22
ATOM     22  O   UNL     1       5.383   6.761  15.871  0.00  0.00    +0.000 OA
ATOM     23  H   UNL     1       6.191   7.090  16.327  0.00  0.00    +0.000 HD
ENDBRANCH  20  22
ENDBRANCH   3  20
TORSDOF 4
ENDMDL
MODEL 7
REMARK VINA RESULT:      -7.2      3.589      7.955
REMARK  Name = 
REMARK  5 active torsions:
REMARK  status: ('A' for Active; 'I' for Inactive)
REMARK    1  A    between atoms: C_1  and  O_2
REMARK    2  A    between atoms: O_2  and  C_3
REMARK    3  A    between atoms: C_6  and  C_7
REMARK    4  A    between atoms: C_9  and  C_10
REMARK    5  A    between atoms: C_10  and  O_12
REMARK                            x       y       z     vdW  Elec       q    Type
REMARK                         _______ _______ _______ _____ _____    ______ ____
ROOT
ATOM      1  C   UNL     1       2.197   7.979  18.886  0.00  0.00    +0.000 A 
ATOM      2  C   UNL     1       1.867   9.084  18.126  0.00  0.00    +0.000 A 
ATOM      3  C   UNL     1       1.363  10.180  18.783  0.00  0.00    +0.000 A 
ATOM      4  C   UNL     1       0.761  10.045  20.026  0.00  0.00    +0.000 A 
ATOM      5  C   UNL     1      -0.166  10.982  20.517  0.00  0.00    +0.000 A 
ATOM      6  C   UNL     1      -0.786  10.751  21.730  0.00  0.00    +0.000 A 
ATOM      7  F   UNL     1      -1.755  11.575  22.149  0.00  0.00    +0.000 F 
ATOM      8  C   UNL     1      -0.431   9.651  22.497  0.00  0.00    +0.000 A 
ATOM      9  C   UNL     1       0.511   8.735  22.003  0.00  0.00    +0.000 A 
ATOM     10  C   UNL     1       1.069   8.869  20.731  0.00  0.00    +0.000 A 
ATOM     11  N   UNL     1       1.857   7.902  20.197  0.00  0.00    +0.000 NA
ENDROOT
BRANCH   1  15
ATOM     12  C   UNL     1       4.282   4.859  16.770  0.00  0.00    +0.000 A 
ATOM     13  C   UNL     1       4.739   6.167  16.719  0.00  0.00    +0.000 A 
ATOM     14  C   UNL     1       4.123   7.157  17.481  0.00  0.00    +0.000 A 
ATOM     15  C   UNL     1       2.983   6.883  18.269  0.00  0.00    +0.000 A 
ATOM     16  C   UNL     1       2.591   5.543  18.375  0.00  0.00    +0.000 A 
ATOM     17  C   UNL     1       3.229   4.542  17.626  0.00  0.00    +0.000 A 
BRANCH  12  19
ATOM     18  C   UNL     1       5.619   4.611  14.839  0.00  0.00    +0.000 C 
ATOM     19  O   UNL     1       4.929   4.010  15.921  0.00  0.00    +0.000 OA
ENDBRANCH  12  19
ENDBRANCH   1  15
BRANCH   3  20
ATOM     20  C   UNL     1       1.980  11.466  18.413  0.00  0.00    +0.000 C 
ATOM     21  O   UNL     1       2.001  12.466  19.118  0.00  0.00    +0.000 OA
BRANCH  20  22
ATOM     22  O   UNL     1       2.574  11.365  17.193  0.00  0.00    +0.000 OA
ATOM     23  H   UNL     1       2.665  10.458  16.821  0.00  0.00    +0.000 HD
ENDBRANCH  20  22
ENDBRANCH   3  20
TORSDOF 4
ENDMDL
MODEL 8
REMARK VINA RESULT:      -7.1      3.416      7.193
REMARK  Name = 
REMARK  5 active torsions:
REMARK  status: ('A' for Active; 'I' for Inactive)
REMARK    1  A    between atoms: C_1  and  O_2
REMARK    2  A    between atoms: O_2  and  C_3
REMARK    3  A    between atoms: C_6  and  C_7
REMARK    4  A    between atoms: C_9  and  C_10
REMARK    5  A    between atoms: C_10  and  O_12
REMARK                            x       y       z     vdW  Elec       q    Type
REMARK                         _______ _______ _______ _____ _____    ______ ____
ROOT
ATOM      1  C   UNL     1       4.463   4.424  17.732  0.00  0.00    +0.000 A 
ATOM      2  C   UNL     1       3.356   5.250  17.736  0.00  0.00    +0.000 A 
ATOM      3  C   UNL     1       2.612   5.310  18.888  0.00  0.00    +0.000 A 
ATOM      4  C   UNL     1       2.649   4.273  19.810  0.00  0.00    +0.000 A 
ATOM      5  C   UNL     1       1.605   4.042  20.723  0.00  0.00    +0.000 A 
ATOM      6  C   UNL     1       1.670   2.948  21.564  0.00  0.00    +0.000 A 
ATOM      7  F   UNL     1       0.628   2.653  22.352  0.00  0.00    +0.000 F 
ATOM      8  C   UNL     1       2.795   2.138  21.570  0.00  0.00    +0.000 A 
ATOM      9  C   UNL     1       3.839   2.393  20.667  0.00  0.00    +0.000 A 
ATOM     10  C   UNL     1       3.757   3.414  19.720  0.00  0.00    +0.000 A 
ATOM     11  N   UNL     1       4.696   3.559  18.750  0.00  0.00    +0.000 NA
ENDROOT
BRANCH   1  15
ATOM     12  C   UNL     1       7.153   5.064  14.428  0.00  0.00    +0.000 A 
ATOM     13  C   UNL     1       7.489   5.501  15.700  0.00  0.00    +0.000 A 
ATOM     14  C   UNL     1       6.664   5.207  16.784  0.00  0.00    +0.000 A 
ATOM     15  C   UNL     1       5.440   4.525  16.620  0.00  0.00    +0.000 A 
ATOM     16  C   UNL     1       5.161   4.018  15.344  0.00  0.00    +0.000 A 
ATOM     17  C   UNL     1       6.005   4.293  14.257  0.00  0.00    +0.000 A 
BRANCH  12  19
ATOM     18  C   UNL     1       7.643   5.170  12.120  0.00  0.00    +0.000 C 
ATOM     19  O   UNL     1       8.008   5.484  13.452  0.00  0.00    +0.000 OA
ENDBRANCH  12  19
ENDBRANCH   1  15
BRANCH   3  20
ATOM     20  C   UNL     1       2.274   6.671  19.341  0.00  0.00    +0.000 C 
ATOM     21  O   UNL     1       1.896   6.964  20.467  0.00  0.00    +0.000 OA
BRANCH  20  22
ATOM     22  O   UNL     1       2.501   7.566  18.342  0.00  0.00    +0.000 OA
ATOM     23  H   UNL     1       3.355   7.481  17.860  0.00  0.00    +0.000 HD
ENDBRANCH  20  22
ENDBRANCH   3  20
TORSDOF 4
ENDMDL
MODEL 9
REMARK VINA RESULT:      -7.1      3.772      8.061
REMARK  Name = 
REMARK  5 active torsions:
REMARK  status: ('A' for Active; 'I' for Inactive)
REMARK    1  A    between atoms: C_1  and  O_2
REMARK    2  A    between atoms: O_2  and  C_3
REMARK    3  A    between atoms: C_6  and  C_7
REMARK    4  A    between atoms: C_9  and  C_10
REMARK    5  A    between atoms: C_10  and  O_12
REMARK                            x       y       z     vdW  Elec       q    Type
REMARK                         _______ _______ _______ _____ _____    ______ ____
ROOT
ATOM      1  C   UNL     1       1.738   7.907  19.801  0.00  0.00    +0.000 A 
ATOM      2  C   UNL     1       1.447   8.875  18.861  0.00  0.00    +0.000 A 
ATOM      3  C   UNL     1       1.014  10.096  19.319  0.00  0.00    +0.000 A 
ATOM      4  C   UNL     1       0.435  10.216  20.574  0.00  0.00    +0.000 A 
ATOM      5  C   UNL     1      -0.432  11.274  20.903  0.00  0.00    +0.000 A 
ATOM      6  C   UNL     1      -1.034  11.295  22.146  0.00  0.00    +0.000 A 
ATOM      7  F   UNL     1      -1.950  12.231  22.425  0.00  0.00    +0.000 F 
ATOM      8  C   UNL     1      -0.718  10.332  23.092  0.00  0.00    +0.000 A 
ATOM      9  C   UNL     1       0.165   9.293  22.756  0.00  0.00    +0.000 A 
ATOM     10  C   UNL     1       0.699   9.169  21.473  0.00  0.00    +0.000 A 
ATOM     11  N   UNL     1       1.425   8.082  21.109  0.00  0.00    +0.000 NA
ENDROOT
BRANCH   1  15
ATOM     12  C   UNL     1       3.513   4.259  18.351  0.00  0.00    +0.000 A 
ATOM     13  C   UNL     1       3.687   5.447  17.658  0.00  0.00    +0.000 A 
ATOM     14  C   UNL     1       3.196   6.642  18.178  0.00  0.00    +0.000 A 
ATOM     15  C   UNL     1       2.453   6.678  19.378  0.00  0.00    +0.000 A 
ATOM     16  C   UNL     1       2.364   5.484  20.106  0.00  0.00    +0.000 A 
ATOM     17  C   UNL     1       2.881   4.285  19.593  0.00  0.00    +0.000 A 
BRANCH  12  19
ATOM     18  C   UNL     1       3.495   1.906  18.147  0.00  0.00    +0.000 C 
ATOM     19  O   UNL     1       3.978   3.158  17.693  0.00  0.00    +0.000 OA
ENDBRANCH  12  19
ENDBRANCH   1  15
BRANCH   3  20
ATOM     20  C   UNL     1       1.686  11.261  18.716  0.00  0.00    +0.000 C 
ATOM     21  O   UNL     1       1.866  12.335  19.272  0.00  0.00    +0.000 OA
BRANCH  20  22
ATOM     22  O   UNL     1       2.131  10.949  17.469  0.00  0.00    +0.000 OA
ATOM     23  H   UNL     1       2.047  11.650  16.783  0.00  0.00    +0.000 HD
ENDBRANCH  20  22
ENDBRANCH   3  20
TORSDOF 4
ENDMDL
