MODEL 1
REMARK VINA RESULT:      -9.5      0.000      0.000
REMARK  Name = 
REMARK  7 active torsions:
REMARK  status: ('A' for Active; 'I' for Inactive)
REMARK    1  A    between atoms: C_1  and  O_2
REMARK    2  A    between atoms: O_2  and  C_3
REMARK    3  A    between atoms: C_3  and  C_4
REMARK    4  A    between atoms: C_3  and  C_24
REMARK    5  A    between atoms: N_11  and  C_12
REMARK    6  A    between atoms: C_28  and  O_29
REMARK    7  A    between atoms: O_29  and  C_30
REMARK                            x       y       z     vdW  Elec       q    Type
REMARK                         _______ _______ _______ _____ _____    ______ ____
ROOT
ATOM      1  C   UNL     1       3.468   5.033  19.186  0.00  0.00    +0.000 C 
ATOM      2  O   UNL     1       3.205   5.084  20.386  0.00  0.00    +0.000 OA
ATOM      3  N   UNL     1       3.137   5.969  18.226  0.00  0.00    +0.000 N 
ATOM      4  C   UNL     1       2.481   7.155  18.439  0.00  0.00    +0.000 A 
ATOM      5  N   UNL     1       2.369   8.083  17.513  0.00  0.00    +0.000 NA
ATOM      6  N   UNL     1       1.767   9.223  18.003  0.00  0.00    +0.000 NA
ATOM      7  C   UNL     1       1.410   9.107  19.266  0.00  0.00    +0.000 A 
ATOM      8  N   UNL     1       0.834  10.063  20.030  0.00  0.00    +0.000 N 
ATOM      9  S   UNL     1       1.730   7.551  19.914  0.00  0.00    +0.000 S 
ATOM     10  H   UNL     1       3.506   5.851  17.290  0.00  0.00    +0.000 HD
ATOM     11  H   UNL     1       0.325   9.763  20.854  0.00  0.00    +0.000 HD
ENDROOT
BRANCH   8  12
ATOM     12  C   UNL     1       0.410  11.312  19.405  0.00  0.00    +0.000 C 
ATOM     13  C   UNL     1      -0.111  12.295  20.461  0.00  0.00    +0.000 C 
ATOM     14  C   UNL     1      -1.623  12.086  20.466  0.00  0.00    +0.000 C 
ATOM     15  N   UNL     1      -1.903  11.784  19.076  0.00  0.00    +0.000 N 
ATOM     16  C   UNL     1      -3.182  11.772  18.585  0.00  0.00    +0.000 A 
ATOM     17  C   UNL     1      -3.490  11.474  17.262  0.00  0.00    +0.000 A 
ATOM     18  N   UNL     1      -4.732  11.502  16.719  0.00  0.00    +0.000 NA
ATOM     19  C   UNL     1      -5.693  11.855  17.578  0.00  0.00    +0.000 A 
ATOM     20  N   UNL     1      -5.497  12.155  18.872  0.00  0.00    +0.000 NA
ATOM     21  N   UNL     1      -4.219  12.114  19.376  0.00  0.00    +0.000 NA
ATOM     22  C   UNL     1      -0.780  11.109  18.437  0.00  0.00    +0.000 C 
ENDBRANCH   8  12
BRANCH   1  23
ATOM     23  C   UNL     1       4.285   3.845  18.617  0.00  0.00    +0.000 C 
BRANCH  23  24
ATOM     24  C   UNL     1       5.138   4.306  17.441  0.00  0.00    +0.000 A 
ATOM     25  C   UNL     1       5.047   3.676  16.188  0.00  0.00    +0.000 A 
ATOM     26  C   UNL     1       5.877   4.061  15.140  0.00  0.00    +0.000 A 
ATOM     27  C   UNL     1       6.789   5.094  15.325  0.00  0.00    +0.000 A 
ATOM     28  C   UNL     1       6.874   5.761  16.550  0.00  0.00    +0.000 A 
ATOM     29  C   UNL     1       6.074   5.344  17.615  0.00  0.00    +0.000 A 
BRANCH  28  30
ATOM     30  O   UNL     1       7.825   6.732  16.603  0.00  0.00    +0.000 OA
BRANCH  30  31
ATOM     31  C   UNL     1       7.780   7.699  17.644  0.00  0.00    +0.000 C 
ATOM     32  F   UNL     1       8.189   7.246  18.847  0.00  0.00    +0.000 F 
ATOM     33  F   UNL     1       8.549   8.754  17.296  0.00  0.00    +0.000 F 
ATOM     34  F   UNL     1       6.506   8.135  17.774  0.00  0.00    +0.000 F 
ENDBRANCH  30  31
ENDBRANCH  28  30
ENDBRANCH  23  24
BRANCH  23  36
ATOM     35  C   UNL     1       4.575   2.038  20.148  0.00  0.00    +0.000 C 
ATOM     36  O   UNL     1       5.130   3.222  19.587  0.00  0.00    +0.000 OA
ENDBRANCH  23  36
ENDBRANCH   1  23
TORSDOF 6
ENDMDL
MODEL 2
REMARK VINA RESULT:      -9.2      2.228      2.755
REMARK  Name = 
REMARK  7 active torsions:
REMARK  status: ('A' for Active; 'I' for Inactive)
REMARK    1  A    between atoms: C_1  and  O_2
REMARK    2  A    between atoms: O_2  and  C_3
REMARK    3  A    between atoms: C_3  and  C_4
REMARK    4  A    between atoms: C_3  and  C_24
REMARK    5  A    between atoms: N_11  and  C_12
REMARK    6  A    between atoms: C_28  and  O_29
REMARK    7  A    between atoms: O_29  and  C_30
REMARK                            x       y       z     vdW  Elec       q    Type
REMARK                         _______ _______ _______ _____ _____    ______ ____
ROOT
ATOM      1  C   UNL     1       2.934   5.299  19.493  0.00  0.00    +0.000 C 
ATOM      2  O   UNL     1       2.704   5.247  20.700  0.00  0.00    +0.000 OA
ATOM      3  N   UNL     1       2.620   6.335  18.636  0.00  0.00    +0.000 N 
ATOM      4  C   UNL     1       2.024   7.523  18.979  0.00  0.00    +0.000 A 
ATOM      5  N   UNL     1       1.929   8.538  18.149  0.00  0.00    +0.000 NA
ATOM      6  N   UNL     1       1.393   9.651  18.761  0.00  0.00    +0.000 NA
ATOM      7  C   UNL     1       1.065   9.431  20.018  0.00  0.00    +0.000 A 
ATOM      8  N   UNL     1       0.553  10.333  20.886  0.00  0.00    +0.000 N 
ATOM      9  S   UNL     1       1.331   7.808  20.507  0.00  0.00    +0.000 S 
ATOM     10  H   UNL     1       2.958   6.292  17.682  0.00  0.00    +0.000 HD
ATOM     11  H   UNL     1       0.053   9.978  21.693  0.00  0.00    +0.000 HD
ENDROOT
BRANCH   8  12
ATOM     12  C   UNL     1       0.169  11.653  20.394  0.00  0.00    +0.000 C 
ATOM     13  C   UNL     1       0.373  12.715  21.482  0.00  0.00    +0.000 C 
ATOM     14  C   UNL     1      -0.995  12.851  22.146  0.00  0.00    +0.000 C 
ATOM     15  N   UNL     1      -1.904  12.636  21.037  0.00  0.00    +0.000 N 
ATOM     16  C   UNL     1      -3.242  12.917  21.138  0.00  0.00    +0.000 A 
ATOM     17  C   UNL     1      -4.146  12.712  20.103  0.00  0.00    +0.000 A 
ATOM     18  N   UNL     1      -5.465  13.025  20.137  0.00  0.00    +0.000 NA
ATOM     19  C   UNL     1      -5.863  13.574  21.288  0.00  0.00    +0.000 A 
ATOM     20  N   UNL     1      -5.069  13.807  22.346  0.00  0.00    +0.000 NA
ATOM     21  N   UNL     1      -3.738  13.474  22.262  0.00  0.00    +0.000 NA
ATOM     22  C   UNL     1      -1.335  11.734  20.044  0.00  0.00    +0.000 C 
ENDBRANCH   8  12
BRANCH   1  23
ATOM     23  C   UNL     1       3.680   4.137  18.791  0.00  0.00    +0.000 C 
BRANCH  23  24
ATOM     24  C   UNL     1       5.106   4.555  18.450  0.00  0.00    +0.000 A 
ATOM     25  C   UNL     1       5.905   5.237  19.383  0.00  0.00    +0.000 A 
ATOM     26  C   UNL     1       7.182   5.670  19.040  0.00  0.00    +0.000 A 
ATOM     27  C   UNL     1       7.682   5.407  17.769  0.00  0.00    +0.000 A 
ATOM     28  C   UNL     1       6.922   4.700  16.834  0.00  0.00    +0.000 A 
ATOM     29  C   UNL     1       5.624   4.305  17.164  0.00  0.00    +0.000 A 
BRANCH  28  30
ATOM     30  O   UNL     1       7.519   4.535  15.623  0.00  0.00    +0.000 OA
BRANCH  30  31
ATOM     31  C   UNL     1       6.780   4.797  14.438  0.00  0.00    +0.000 C 
ATOM     32  F   UNL     1       5.793   5.705  14.583  0.00  0.00    +0.000 F 
ATOM     33  F   UNL     1       7.628   5.229  13.479  0.00  0.00    +0.000 F 
ATOM     34  F   UNL     1       6.222   3.640  14.012  0.00  0.00    +0.000 F 
ENDBRANCH  30  31
ENDBRANCH  28  30
ENDBRANCH  23  24
BRANCH  23  36
ATOM     35  C   UNL     1       3.516   1.757  18.803  0.00  0.00    +0.000 C 
ATOM     36  O   UNL     1       3.722   2.938  19.568  0.00  0.00    +0.000 OA
ENDBRANCH  23  36
ENDBRANCH   1  23
TORSDOF 6
ENDMDL
MODEL 3
REMARK VINA RESULT:      -9.0      1.322      1.808
REMARK  Name = 
REMARK  7 active torsions:
REMARK  status: ('A' for Active; 'I' for Inactive)
REMARK    1  A    between atoms: C_1  and  O_2
REMARK    2  A    between atoms: O_2  and  C_3
REMARK    3  A    between atoms: C_3  and  C_4
REMARK    4  A    between atoms: C_3  and  C_24
REMARK    5  A    between atoms: N_11  and  C_12
REMARK    6  A    between atoms: C_28  and  O_29
REMARK    7  A    between atoms: O_29  and  C_30
REMARK                            x       y       z     vdW  Elec       q    Type
REMARK                         _______ _______ _______ _____ _____    ______ ____
ROOT
ATOM      1  C   UNL     1       3.401   5.132  19.194  0.00  0.00    +0.000 C 
ATOM      2  O   UNL     1       3.276   5.193  20.415  0.00  0.00    +0.000 OA
ATOM      3  N   UNL     1       2.968   6.063  18.270  0.00  0.00    +0.000 N 
ATOM      4  C   UNL     1       2.346   7.255  18.548  0.00  0.00    +0.000 A 
ATOM      5  N   UNL     1       2.134   8.176  17.634  0.00  0.00    +0.000 NA
ATOM      6  N   UNL     1       1.597   9.324  18.180  0.00  0.00    +0.000 NA
ATOM      7  C   UNL     1       1.385   9.218  19.477  0.00  0.00    +0.000 A 
ATOM      8  N   UNL     1       0.905  10.182  20.294  0.00  0.00    +0.000 N 
ATOM      9  S   UNL     1       1.769   7.665  20.096  0.00  0.00    +0.000 S 
ATOM     10  H   UNL     1       3.227   5.937  17.300  0.00  0.00    +0.000 HD
ATOM     11  H   UNL     1       0.491   9.891  21.173  0.00  0.00    +0.000 HD
ENDROOT
BRANCH   8  12
ATOM     12  C   UNL     1       0.418  11.429  19.712  0.00  0.00    +0.000 C 
ATOM     13  C   UNL     1       0.876  12.631  20.549  0.00  0.00    +0.000 C 
ATOM     14  C   UNL     1      -0.295  12.915  21.486  0.00  0.00    +0.000 C 
ATOM     15  N   UNL     1      -1.442  12.574  20.666  0.00  0.00    +0.000 N 
ATOM     16  C   UNL     1      -2.717  12.917  21.033  0.00  0.00    +0.000 A 
ATOM     17  C   UNL     1      -3.841  12.597  20.281  0.00  0.00    +0.000 A 
ATOM     18  N   UNL     1      -5.114  12.961  20.575  0.00  0.00    +0.000 NA
ATOM     19  C   UNL     1      -5.227  13.688  21.691  0.00  0.00    +0.000 A 
ATOM     20  N   UNL     1      -4.204  14.043  22.486  0.00  0.00    +0.000 NA
ATOM     21  N   UNL     1      -2.932  13.651  22.144  0.00  0.00    +0.000 NA
ATOM     22  C   UNL     1      -1.126  11.515  19.715  0.00  0.00    +0.000 C 
ENDBRANCH   8  12
BRANCH   1  23
ATOM     23  C   UNL     1       4.142   3.936  18.545  0.00  0.00    +0.000 C 
BRANCH  23  24
ATOM     24  C   UNL     1       4.985   4.412  17.367  0.00  0.00    +0.000 A 
ATOM     25  C   UNL     1       4.842   3.836  16.093  0.00  0.00    +0.000 A 
ATOM     26  C   UNL     1       5.661   4.233  15.041  0.00  0.00    +0.000 A 
ATOM     27  C   UNL     1       6.615   5.225  15.244  0.00  0.00    +0.000 A 
ATOM     28  C   UNL     1       6.752   5.839  16.492  0.00  0.00    +0.000 A 
ATOM     29  C   UNL     1       5.962   5.409  17.559  0.00  0.00    +0.000 A 
BRANCH  28  30
ATOM     30  O   UNL     1       7.739   6.772  16.560  0.00  0.00    +0.000 OA
BRANCH  30  31
ATOM     31  C   UNL     1       7.736   7.718  17.622  0.00  0.00    +0.000 C 
ATOM     32  F   UNL     1       6.533   8.277  17.868  0.00  0.00    +0.000 F 
ATOM     33  F   UNL     1       8.171   7.113  18.749  0.00  0.00    +0.000 F 
ATOM     34  F   UNL     1       8.602   8.711  17.319  0.00  0.00    +0.000 F 
ENDBRANCH  30  31
ENDBRANCH  28  30
ENDBRANCH  23  24
BRANCH  23  36
ATOM     35  C   UNL     1       4.404   2.018  19.941  0.00  0.00    +0.000 C 
ATOM     36  O   UNL     1       4.982   3.225  19.459  0.00  0.00    +0.000 OA
ENDBRANCH  23  36
ENDBRANCH   1  23
TORSDOF 6
ENDMDL
MODEL 4
REMARK VINA RESULT:      -8.9      2.498      3.487
REMARK  Name = 
REMARK  7 active torsions:
REMARK  status: ('A' for Active; 'I' for Inactive)
REMARK    1  A    between atoms: C_1  and  O_2
REMARK    2  A    between atoms: O_2  and  C_3
REMARK    3  A    between atoms: C_3  and  C_4
REMARK    4  A    between atoms: C_3  and  C_24
REMARK    5  A    between atoms: N_11  and  C_12
REMARK    6  A    between atoms: C_28  and  O_29
REMARK    7  A    between atoms: O_29  and  C_30
REMARK                            x       y       z     vdW  Elec       q    Type
REMARK                         _______ _______ _______ _____ _____    ______ ____
ROOT
ATOM      1  C   UNL     1       3.326   5.135  19.264  0.00  0.00    +0.000 C 
ATOM      2  O   UNL     1       3.165   5.163  20.482  0.00  0.00    +0.000 OA
ATOM      3  N   UNL     1       2.939   6.101  18.355  0.00  0.00    +0.000 N 
ATOM      4  C   UNL     1       2.332   7.296  18.648  0.00  0.00    +0.000 A 
ATOM      5  N   UNL     1       2.165   8.247  17.756  0.00  0.00    +0.000 NA
ATOM      6  N   UNL     1       1.634   9.389  18.319  0.00  0.00    +0.000 NA
ATOM      7  C   UNL     1       1.380   9.250  19.604  0.00  0.00    +0.000 A 
ATOM      8  N   UNL     1       0.893  10.200  20.434  0.00  0.00    +0.000 N 
ATOM      9  S   UNL     1       1.716   7.673  20.189  0.00  0.00    +0.000 S 
ATOM     10  H   UNL     1       3.226   5.997  17.389  0.00  0.00    +0.000 HD
ATOM     11  H   UNL     1       0.447   9.892  21.291  0.00  0.00    +0.000 HD
ENDROOT
BRANCH   8  12
ATOM     12  C   UNL     1       0.448  11.473  19.874  0.00  0.00    +0.000 C 
ATOM     13  C   UNL     1       1.651  12.360  19.526  0.00  0.00    +0.000 C 
ATOM     14  C   UNL     1       1.832  13.257  20.747  0.00  0.00    +0.000 C 
ATOM     15  N   UNL     1       0.467  13.457  21.195  0.00  0.00    +0.000 N 
ATOM     16  C   UNL     1       0.147  14.410  22.125  0.00  0.00    +0.000 A 
ATOM     17  C   UNL     1      -1.146  14.622  22.588  0.00  0.00    +0.000 A 
ATOM     18  N   UNL     1      -1.520  15.587  23.465  0.00  0.00    +0.000 NA
ATOM     19  C   UNL     1      -0.514  16.364  23.878  0.00  0.00    +0.000 A 
ATOM     20  N   UNL     1       0.767  16.236  23.494  0.00  0.00    +0.000 NA
ATOM     21  N   UNL     1       1.094  15.244  22.601  0.00  0.00    +0.000 NA
ATOM     22  C   UNL     1      -0.372  12.305  20.888  0.00  0.00    +0.000 C 
ENDBRANCH   8  12
BRANCH   1  23
ATOM     23  C   UNL     1       4.064   3.943  18.603  0.00  0.00    +0.000 C 
BRANCH  23  24
ATOM     24  C   UNL     1       4.898   4.427  17.422  0.00  0.00    +0.000 A 
ATOM     25  C   UNL     1       4.684   3.923  16.128  0.00  0.00    +0.000 A 
ATOM     26  C   UNL     1       5.492   4.323  15.069  0.00  0.00    +0.000 A 
ATOM     27  C   UNL     1       6.508   5.247  15.287  0.00  0.00    +0.000 A 
ATOM     28  C   UNL     1       6.719   5.791  16.556  0.00  0.00    +0.000 A 
ATOM     29  C   UNL     1       5.937   5.356  17.628  0.00  0.00    +0.000 A 
BRANCH  28  30
ATOM     30  O   UNL     1       7.761   6.662  16.636  0.00  0.00    +0.000 OA
BRANCH  30  31
ATOM     31  C   UNL     1       7.721   7.716  17.590  0.00  0.00    +0.000 C 
ATOM     32  F   UNL     1       6.491   8.223  17.812  0.00  0.00    +0.000 F 
ATOM     33  F   UNL     1       8.220   7.265  18.761  0.00  0.00    +0.000 F 
ATOM     34  F   UNL     1       8.513   8.722  17.156  0.00  0.00    +0.000 F 
ENDBRANCH  30  31
ENDBRANCH  28  30
ENDBRANCH  23  24
BRANCH  23  36
ATOM     35  C   UNL     1       4.388   1.967  19.900  0.00  0.00    +0.000 C 
ATOM     36  O   UNL     1       4.911   3.229  19.507  0.00  0.00    +0.000 OA
ENDBRANCH  23  36
ENDBRANCH   1  23
TORSDOF 6
ENDMDL
MODEL 5
REMARK VINA RESULT:      -8.9      3.215      4.332
REMARK  Name = 
REMARK  7 active torsions:
REMARK  status: ('A' for Active; 'I' for Inactive)
REMARK    1  A    between atoms: C_1  and  O_2
REMARK    2  A    between atoms: O_2  and  C_3
REMARK    3  A    between atoms: C_3  and  C_4
REMARK    4  A    between atoms: C_3  and  C_24
REMARK    5  A    between atoms: N_11  and  C_12
REMARK    6  A    between atoms: C_28  and  O_29
REMARK    7  A    between atoms: O_29  and  C_30
REMARK                            x       y       z     vdW  Elec       q    Type
REMARK                         _______ _______ _______ _____ _____    ______ ____
ROOT
ATOM      1  C   UNL     1       2.660   5.731  18.937  0.00  0.00    +0.000 C 
ATOM      2  O   UNL     1       2.360   5.694  20.129  0.00  0.00    +0.000 OA
ATOM      3  N   UNL     1       2.530   6.810  18.085  0.00  0.00    +0.000 N 
ATOM      4  C   UNL     1       2.075   8.061  18.421  0.00  0.00    +0.000 A 
ATOM      5  N   UNL     1       2.158   9.090  17.607  0.00  0.00    +0.000 NA
ATOM      6  N   UNL     1       1.736  10.256  18.212  0.00  0.00    +0.000 NA
ATOM      7  C   UNL     1       1.314  10.063  19.446  0.00  0.00    +0.000 A 
ATOM      8  N   UNL     1       0.876  11.013  20.303  0.00  0.00    +0.000 N 
ATOM      9  S   UNL     1       1.341   8.414  19.915  0.00  0.00    +0.000 S 
ATOM     10  H   UNL     1       2.912   6.736  17.150  0.00  0.00    +0.000 HD
ATOM     11  H   UNL     1       0.290  10.716  21.075  0.00  0.00    +0.000 HD
ENDROOT
BRANCH   8  12
ATOM     12  C   UNL     1       0.693  12.378  19.818  0.00  0.00    +0.000 C 
ATOM     13  C   UNL     1       2.031  13.127  19.796  0.00  0.00    +0.000 C 
ATOM     14  C   UNL     1       2.071  13.881  21.123  0.00  0.00    +0.000 C 
ATOM     15  N   UNL     1       0.676  14.216  21.334  0.00  0.00    +0.000 N 
ATOM     16  C   UNL     1       0.289  15.117  22.292  0.00  0.00    +0.000 A 
ATOM     17  C   UNL     1      -1.038  15.454  22.532  0.00  0.00    +0.000 A 
ATOM     18  N   UNL     1      -1.465  16.376  23.430  0.00  0.00    +0.000 NA
ATOM     19  C   UNL     1      -0.479  16.975  24.103  0.00  0.00    +0.000 A 
ATOM     20  N   UNL     1       0.830  16.716  23.947  0.00  0.00    +0.000 NA
ATOM     21  N   UNL     1       1.212  15.773  23.023  0.00  0.00    +0.000 NA
ATOM     22  C   UNL     1      -0.211  13.216  20.752  0.00  0.00    +0.000 C 
ENDBRANCH   8  12
BRANCH   1  23
ATOM     23  C   UNL     1       3.288   4.491  18.252  0.00  0.00    +0.000 C 
BRANCH  23  24
ATOM     24  C   UNL     1       4.795   4.675  18.105  0.00  0.00    +0.000 A 
ATOM     25  C   UNL     1       5.583   5.096  19.189  0.00  0.00    +0.000 A 
ATOM     26  C   UNL     1       6.946   5.323  19.027  0.00  0.00    +0.000 A 
ATOM     27  C   UNL     1       7.540   5.110  17.788  0.00  0.00    +0.000 A 
ATOM     28  C   UNL     1       6.785   4.657  16.703  0.00  0.00    +0.000 A 
ATOM     29  C   UNL     1       5.409   4.473  16.854  0.00  0.00    +0.000 A 
BRANCH  28  30
ATOM     30  O   UNL     1       7.483   4.516  15.544  0.00  0.00    +0.000 OA
BRANCH  30  31
ATOM     31  C   UNL     1       6.839   4.777  14.304  0.00  0.00    +0.000 C 
ATOM     32  F   UNL     1       5.828   5.666  14.375  0.00  0.00    +0.000 F 
ATOM     33  F   UNL     1       7.755   5.233  13.422  0.00  0.00    +0.000 F 
ATOM     34  F   UNL     1       6.339   3.615  13.824  0.00  0.00    +0.000 F 
ENDBRANCH  30  31
ENDBRANCH  28  30
ENDBRANCH  23  24
BRANCH  23  36
ATOM     35  C   UNL     1       2.946   2.135  18.097  0.00  0.00    +0.000 C 
ATOM     36  O   UNL     1       3.037   3.269  18.951  0.00  0.00    +0.000 OA
ENDBRANCH  23  36
ENDBRANCH   1  23
TORSDOF 6
ENDMDL
MODEL 6
REMARK VINA RESULT:      -8.8      2.193      2.643
REMARK  Name = 
REMARK  7 active torsions:
REMARK  status: ('A' for Active; 'I' for Inactive)
REMARK    1  A    between atoms: C_1  and  O_2
REMARK    2  A    between atoms: O_2  and  C_3
REMARK    3  A    between atoms: C_3  and  C_4
REMARK    4  A    between atoms: C_3  and  C_24
REMARK    5  A    between atoms: N_11  and  C_12
REMARK    6  A    between atoms: C_28  and  O_29
REMARK    7  A    between atoms: O_29  and  C_30
REMARK                            x       y       z     vdW  Elec       q    Type
REMARK                         _______ _______ _______ _____ _____    ______ ____
ROOT
ATOM      1  C   UNL     1       3.521   5.226  19.157  0.00  0.00    +0.000 C 
ATOM      2  O   UNL     1       3.348   5.360  20.367  0.00  0.00    +0.000 OA
ATOM      3  N   UNL     1       3.105   6.088  18.161  0.00  0.00    +0.000 N 
ATOM      4  C   UNL     1       2.450   7.280  18.340  0.00  0.00    +0.000 A 
ATOM      5  N   UNL     1       2.254   8.138  17.362  0.00  0.00    +0.000 NA
ATOM      6  N   UNL     1       1.675   9.306  17.815  0.00  0.00    +0.000 NA
ATOM      7  C   UNL     1       1.416   9.277  19.107  0.00  0.00    +0.000 A 
ATOM      8  N   UNL     1       0.886  10.279  19.843  0.00  0.00    +0.000 N 
ATOM      9  S   UNL     1       1.807   7.774  19.836  0.00  0.00    +0.000 S 
ATOM     10  H   UNL     1       3.403   5.907  17.211  0.00  0.00    +0.000 HD
ATOM     11  H   UNL     1       0.445  10.034  20.723  0.00  0.00    +0.000 HD
ENDROOT
BRANCH   8  12
ATOM     12  C   UNL     1       0.398  11.477  19.166  0.00  0.00    +0.000 C 
ATOM     13  C   UNL     1      -0.031  12.538  20.187  0.00  0.00    +0.000 C 
ATOM     14  C   UNL     1      -1.535  12.331  20.347  0.00  0.00    +0.000 C 
ATOM     15  N   UNL     1      -1.938  11.923  19.015  0.00  0.00    +0.000 N 
ATOM     16  C   UNL     1      -3.257  11.874  18.646  0.00  0.00    +0.000 A 
ATOM     17  C   UNL     1      -3.683  11.475  17.385  0.00  0.00    +0.000 A 
ATOM     18  N   UNL     1      -4.970  11.462  16.957  0.00  0.00    +0.000 NA
ATOM     19  C   UNL     1      -5.850  11.880  17.871  0.00  0.00    +0.000 A 
ATOM     20  N   UNL     1      -5.539  12.279  19.115  0.00  0.00    +0.000 NA
ATOM     21  N   UNL     1      -4.220  12.276  19.501  0.00  0.00    +0.000 NA
ATOM     22  C   UNL     1      -0.874  11.200  18.330  0.00  0.00    +0.000 C 
ENDBRANCH   8  12
BRANCH   1  23
ATOM     23  C   UNL     1       4.309   4.008  18.613  0.00  0.00    +0.000 C 
BRANCH  23  24
ATOM     24  C   UNL     1       5.311   4.457  17.555  0.00  0.00    +0.000 A 
ATOM     25  C   UNL     1       6.004   5.673  17.681  0.00  0.00    +0.000 A 
ATOM     26  C   UNL     1       6.867   6.103  16.679  0.00  0.00    +0.000 A 
ATOM     27  C   UNL     1       7.065   5.314  15.551  0.00  0.00    +0.000 A 
ATOM     28  C   UNL     1       6.417   4.083  15.418  0.00  0.00    +0.000 A 
ATOM     29  C   UNL     1       5.515   3.673  16.402  0.00  0.00    +0.000 A 
BRANCH  28  30
ATOM     30  O   UNL     1       6.678   3.426  14.256  0.00  0.00    +0.000 OA
BRANCH  30  31
ATOM     31  C   UNL     1       5.979   3.791  13.073  0.00  0.00    +0.000 C 
ATOM     32  F   UNL     1       4.819   4.443  13.288  0.00  0.00    +0.000 F 
ATOM     33  F   UNL     1       6.780   4.571  12.314  0.00  0.00    +0.000 F 
ATOM     34  F   UNL     1       5.702   2.668  12.372  0.00  0.00    +0.000 F 
ENDBRANCH  30  31
ENDBRANCH  28  30
ENDBRANCH  23  24
BRANCH  23  36
ATOM     35  C   UNL     1       4.405   2.029  19.942  0.00  0.00    +0.000 C 
ATOM     36  O   UNL     1       5.003   3.281  19.630  0.00  0.00    +0.000 OA
ENDBRANCH  23  36
ENDBRANCH   1  23
TORSDOF 6
ENDMDL
MODEL 7
REMARK VINA RESULT:      -8.8      1.752      2.244
REMARK  Name = 
REMARK  7 active torsions:
REMARK  status: ('A' for Active; 'I' for Inactive)
REMARK    1  A    between atoms: C_1  and  O_2
REMARK    2  A    between atoms: O_2  and  C_3
REMARK    3  A    between atoms: C_3  and  C_4
REMARK    4  A    between atoms: C_3  and  C_24
REMARK    5  A    between atoms: N_11  and  C_12
REMARK    6  A    between atoms: C_28  and  O_29
REMARK    7  A    between atoms: O_29  and  C_30
REMARK                            x       y       z     vdW  Elec       q    Type
REMARK                         _______ _______ _______ _____ _____    ______ ____
ROOT
ATOM      1  C   UNL     1       3.115   5.151  19.726  0.00  0.00    +0.000 C 
ATOM      2  O   UNL     1       2.869   5.264  20.926  0.00  0.00    +0.000 OA
ATOM      3  N   UNL     1       2.793   6.048  18.727  0.00  0.00    +0.000 N 
ATOM      4  C   UNL     1       2.167   7.258  18.892  0.00  0.00    +0.000 A 
ATOM      5  N   UNL     1       2.063   8.143  17.925  0.00  0.00    +0.000 NA
ATOM      6  N   UNL     1       1.494   9.319  18.367  0.00  0.00    +0.000 NA
ATOM      7  C   UNL     1       1.152   9.271  19.639  0.00  0.00    +0.000 A 
ATOM      8  N   UNL     1       0.609  10.275  20.363  0.00  0.00    +0.000 N 
ATOM      9  S   UNL     1       1.445   7.740  20.356  0.00  0.00    +0.000 S 
ATOM     10  H   UNL     1       3.146   5.877  17.793  0.00  0.00    +0.000 HD
ATOM     11  H   UNL     1       0.104  10.026  21.207  0.00  0.00    +0.000 HD
ENDROOT
BRANCH   8  12
ATOM     12  C   UNL     1       0.205  11.503  19.685  0.00  0.00    +0.000 C 
ATOM     13  C   UNL     1      -0.358  12.516  20.690  0.00  0.00    +0.000 C 
ATOM     14  C   UNL     1      -1.868  12.303  20.647  0.00  0.00    +0.000 C 
ATOM     15  N   UNL     1      -2.095  11.957  19.257  0.00  0.00    +0.000 N 
ATOM     16  C   UNL     1      -3.356  11.925  18.719  0.00  0.00    +0.000 A 
ATOM     17  C   UNL     1      -3.614  11.586  17.397  0.00  0.00    +0.000 A 
ATOM     18  N   UNL     1      -4.835  11.593  16.807  0.00  0.00    +0.000 NA
ATOM     19  C   UNL     1      -5.828  11.969  17.619  0.00  0.00    +0.000 A 
ATOM     20  N   UNL     1      -5.681  12.309  18.910  0.00  0.00    +0.000 NA
ATOM     21  N   UNL     1      -4.422  12.288  19.461  0.00  0.00    +0.000 NA
ATOM     22  C   UNL     1      -0.948  11.267  18.681  0.00  0.00    +0.000 C 
ENDBRANCH   8  12
BRANCH   1  23
ATOM     23  C   UNL     1       3.896   3.918  19.205  0.00  0.00    +0.000 C 
BRANCH  23  24
ATOM     24  C   UNL     1       5.205   4.358  18.556  0.00  0.00    +0.000 A 
ATOM     25  C   UNL     1       6.091   5.220  19.224  0.00  0.00    +0.000 A 
ATOM     26  C   UNL     1       7.251   5.666  18.597  0.00  0.00    +0.000 A 
ATOM     27  C   UNL     1       7.548   5.238  17.308  0.00  0.00    +0.000 A 
ATOM     28  C   UNL     1       6.701   4.353  16.636  0.00  0.00    +0.000 A 
ATOM     29  C   UNL     1       5.515   3.941  17.247  0.00  0.00    +0.000 A 
BRANCH  28  30
ATOM     30  O   UNL     1       7.095   4.037  15.373  0.00  0.00    +0.000 OA
BRANCH  30  31
ATOM     31  C   UNL     1       6.574   4.771  14.273  0.00  0.00    +0.000 C 
ATOM     32  F   UNL     1       5.927   4.022  13.357  0.00  0.00    +0.000 F 
ATOM     33  F   UNL     1       5.726   5.714  14.738  0.00  0.00    +0.000 F 
ATOM     34  F   UNL     1       7.597   5.399  13.650  0.00  0.00    +0.000 F 
ENDBRANCH  30  31
ENDBRANCH  28  30
ENDBRANCH  23  24
BRANCH  23  36
ATOM     35  C   UNL     1       4.301   1.627  19.732  0.00  0.00    +0.000 C 
ATOM     36  O   UNL     1       4.184   2.957  20.223  0.00  0.00    +0.000 OA
ENDBRANCH  23  36
ENDBRANCH   1  23
TORSDOF 6
ENDMDL
MODEL 8
REMARK VINA RESULT:      -8.8      2.742      3.528
REMARK  Name = 
REMARK  7 active torsions:
REMARK  status: ('A' for Active; 'I' for Inactive)
REMARK    1  A    between atoms: C_1  and  O_2
REMARK    2  A    between atoms: O_2  and  C_3
REMARK    3  A    between atoms: C_3  and  C_4
REMARK    4  A    between atoms: C_3  and  C_24
REMARK    5  A    between atoms: N_11  and  C_12
REMARK    6  A    between atoms: C_28  and  O_29
REMARK    7  A    between atoms: O_29  and  C_30
REMARK                            x       y       z     vdW  Elec       q    Type
REMARK                         _______ _______ _______ _____ _____    ______ ____
ROOT
ATOM      1  C   UNL     1       2.766   5.665  19.135  0.00  0.00    +0.000 C 
ATOM      2  O   UNL     1       2.418   5.691  20.314  0.00  0.00    +0.000 OA
ATOM      3  N   UNL     1       2.646   6.688  18.214  0.00  0.00    +0.000 N 
ATOM      4  C   UNL     1       2.146   7.943  18.454  0.00  0.00    +0.000 A 
ATOM      5  N   UNL     1       2.238   8.924  17.583  0.00  0.00    +0.000 NA
ATOM      6  N   UNL     1       1.764  10.112  18.099  0.00  0.00    +0.000 NA
ATOM      7  C   UNL     1       1.295   9.982  19.324  0.00  0.00    +0.000 A 
ATOM      8  N   UNL     1       0.799  10.970  20.104  0.00  0.00    +0.000 N 
ATOM      9  S   UNL     1       1.343   8.365  19.894  0.00  0.00    +0.000 S 
ATOM     10  H   UNL     1       3.068   6.567  17.301  0.00  0.00    +0.000 HD
ATOM     11  H   UNL     1       0.189  10.703  20.869  0.00  0.00    +0.000 HD
ENDROOT
BRANCH   8  12
ATOM     12  C   UNL     1       0.604  12.297  19.530  0.00  0.00    +0.000 C 
ATOM     13  C   UNL     1       1.621  13.290  20.106  0.00  0.00    +0.000 C 
ATOM     14  C   UNL     1       0.886  13.966  21.261  0.00  0.00    +0.000 C 
ATOM     15  N   UNL     1      -0.480  14.015  20.777  0.00  0.00    +0.000 N 
ATOM     16  C   UNL     1      -1.437  14.772  21.400  0.00  0.00    +0.000 A 
ATOM     17  C   UNL     1      -2.759  14.835  20.974  0.00  0.00    +0.000 A 
ATOM     18  N   UNL     1      -3.727  15.609  21.523  0.00  0.00    +0.000 NA
ATOM     19  C   UNL     1      -3.309  16.350  22.554  0.00  0.00    +0.000 A 
ATOM     20  N   UNL     1      -2.058  16.356  23.043  0.00  0.00    +0.000 NA
ATOM     21  N   UNL     1      -1.112  15.554  22.449  0.00  0.00    +0.000 NA
ATOM     22  C   UNL     1      -0.776  12.896  19.892  0.00  0.00    +0.000 C 
ENDBRANCH   8  12
BRANCH   1  23
ATOM     23  C   UNL     1       3.452   4.404  18.552  0.00  0.00    +0.000 C 
BRANCH  23  24
ATOM     24  C   UNL     1       4.932   4.673  18.306  0.00  0.00    +0.000 A 
ATOM     25  C   UNL     1       5.746   5.226  19.310  0.00  0.00    +0.000 A 
ATOM     26  C   UNL     1       7.079   5.527  19.054  0.00  0.00    +0.000 A 
ATOM     27  C   UNL     1       7.621   5.259  17.802  0.00  0.00    +0.000 A 
ATOM     28  C   UNL     1       6.843   4.677  16.798  0.00  0.00    +0.000 A 
ATOM     29  C   UNL     1       5.493   4.416  17.040  0.00  0.00    +0.000 A 
BRANCH  28  30
ATOM     30  O   UNL     1       7.488   4.493  15.614  0.00  0.00    +0.000 OA
BRANCH  30  31
ATOM     31  C   UNL     1       6.806   4.764  14.397  0.00  0.00    +0.000 C 
ATOM     32  F   UNL     1       7.597   5.213  13.401  0.00  0.00    +0.000 F 
ATOM     33  F   UNL     1       6.185   3.638  13.982  0.00  0.00    +0.000 F 
ATOM     34  F   UNL     1       5.859   5.701  14.631  0.00  0.00    +0.000 F 
ENDBRANCH  30  31
ENDBRANCH  28  30
ENDBRANCH  23  24
BRANCH  23  36
ATOM     35  C   UNL     1       3.100   2.046  18.665  0.00  0.00    +0.000 C 
ATOM     36  O   UNL     1       3.323   3.251  19.388  0.00  0.00    +0.000 OA
ENDBRANCH  23  36
ENDBRANCH   1  23
TORSDOF 6
ENDMDL
MODEL 9
REMARK VINA RESULT:      -8.8      3.202      4.101
REMARK  Name = 
REMARK  7 active torsions:
REMARK  status: ('A' for Active; 'I' for Inactive)
REMARK    1  A    between atoms: C_1  and  O_2
REMARK    2  A    between atoms: O_2  and  C_3
REMARK    3  A    between atoms: C_3  and  C_4
REMARK    4  A    between atoms: C_3  and  C_24
REMARK    5  A    between atoms: N_11  and  C_12
REMARK    6  A    between atoms: C_28  and  O_29
REMARK    7  A    between atoms: O_29  and  C_30
REMARK                            x       y       z     vdW  Elec       q    Type
REMARK                         _______ _______ _______ _____ _____    ______ ____
ROOT
ATOM      1  C   UNL     1       2.388   5.883  19.466  0.00  0.00    +0.000 C 
ATOM      2  O   UNL     1       2.013   6.161  20.603  0.00  0.00    +0.000 OA
ATOM      3  N   UNL     1       2.433   6.733  18.378  0.00  0.00    +0.000 N 
ATOM      4  C   UNL     1       2.101   8.065  18.374  0.00  0.00    +0.000 A 
ATOM      5  N   UNL     1       2.349   8.856  17.353  0.00  0.00    +0.000 NA
ATOM      6  N   UNL     1       2.025  10.167  17.632  0.00  0.00    +0.000 NA
ATOM      7  C   UNL     1       1.509  10.318  18.835  0.00  0.00    +0.000 A 
ATOM      8  N   UNL     1       1.129  11.483  19.407  0.00  0.00    +0.000 N 
ATOM      9  S   UNL     1       1.322   8.834  19.676  0.00  0.00    +0.000 S 
ATOM     10  H   UNL     1       2.860   6.400  17.523  0.00  0.00    +0.000 HD
ATOM     11  H   UNL     1       0.467  11.436  20.174  0.00  0.00    +0.000 HD
ENDROOT
BRANCH   8  12
ATOM     12  C   UNL     1       1.131  12.702  18.604  0.00  0.00    +0.000 C 
ATOM     13  C   UNL     1       2.436  13.481  18.808  0.00  0.00    +0.000 C 
ATOM     14  C   UNL     1       2.107  14.505  19.892  0.00  0.00    +0.000 C 
ATOM     15  N   UNL     1       0.720  14.823  19.611  0.00  0.00    +0.000 N 
ATOM     16  C   UNL     1       0.095  15.893  20.195  0.00  0.00    +0.000 A 
ATOM     17  C   UNL     1      -1.235  16.222  19.961  0.00  0.00    +0.000 A 
ATOM     18  N   UNL     1      -1.881  17.299  20.472  0.00  0.00    +0.000 NA
ATOM     19  C   UNL     1      -1.118  18.068  21.255  0.00  0.00    +0.000 A 
ATOM     20  N   UNL     1       0.172  17.833  21.545  0.00  0.00    +0.000 NA
ATOM     21  N   UNL     1       0.782  16.728  21.001  0.00  0.00    +0.000 NA
ATOM     22  C   UNL     1       0.016  13.687  19.030  0.00  0.00    +0.000 C 
ENDBRANCH   8  12
BRANCH   1  23
ATOM     23  C   UNL     1       2.913   4.461  19.145  0.00  0.00    +0.000 C 
BRANCH  23  24
ATOM     24  C   UNL     1       4.329   4.535  18.583  0.00  0.00    +0.000 A 
ATOM     25  C   UNL     1       5.365   5.151  19.306  0.00  0.00    +0.000 A 
ATOM     26  C   UNL     1       6.637   5.270  18.757  0.00  0.00    +0.000 A 
ATOM     27  C   UNL     1       6.894   4.756  17.490  0.00  0.00    +0.000 A 
ATOM     28  C   UNL     1       5.891   4.107  16.766  0.00  0.00    +0.000 A 
ATOM     29  C   UNL     1       4.603   4.028  17.298  0.00  0.00    +0.000 A 
BRANCH  28  30
ATOM     30  O   UNL     1       6.269   3.676  15.532  0.00  0.00    +0.000 OA
BRANCH  30  31
ATOM     31  C   UNL     1       6.162   4.556  14.421  0.00  0.00    +0.000 C 
ATOM     32  F   UNL     1       5.360   5.621  14.626  0.00  0.00    +0.000 F 
ATOM     33  F   UNL     1       7.394   5.000  14.091  0.00  0.00    +0.000 F 
ATOM     34  F   UNL     1       5.671   3.863  13.367  0.00  0.00    +0.000 F 
ENDBRANCH  30  31
ENDBRANCH  28  30
ENDBRANCH  23  24
BRANCH  23  36
ATOM     35  C   UNL     1       1.978   2.516  20.162  0.00  0.00    +0.000 C 
ATOM     36  O   UNL     1       2.909   3.585  20.275  0.00  0.00    +0.000 OA
ENDBRANCH  23  36
ENDBRANCH   1  23
TORSDOF 6
ENDMDL
