MODEL 1
REMARK VINA RESULT:      -7.2      0.000      0.000
REMARK  Name = 
REMARK  10 active torsions:
REMARK  status: ('A' for Active; 'I' for Inactive)
REMARK    1  A    between atoms: C_2  and  C_3
REMARK    2  A    between atoms: C_2  and  C_9
REMARK    3  A    between atoms: C_12  and  O_13
REMARK    4  A    between atoms: C_14  and  N_15
REMARK    5  A    between atoms: N_15  and  CA_16
REMARK    6  A    between atoms: CA_16  and  CB_17
REMARK    7  A    between atoms: CA_16  and  C_19
REMARK    8  A    between atoms: CB_17  and  OG_18
REMARK    9  A    between atoms: C_19  and  O_20
REMARK   10  A    between atoms: C_21  and  O_22
REMARK                            x       y       z     vdW  Elec       q    Type
REMARK                         _______ _______ _______ _____ _____    ______ ____
ROOT
ATOM      1  C   UNK A   0       5.720   5.356  16.904  0.00  0.00    +0.000 A 
ATOM      2  C   UNK A   0       5.116   6.522  16.404  0.00  0.00    +0.000 A 
ATOM      3  C   UNK A   0       4.053   7.109  17.082  0.00  0.00    +0.000 A 
ATOM      4  C   UNK A   0       3.600   6.527  18.266  0.00  0.00    +0.000 A 
ATOM      5  C   UNK A   0       4.158   5.343  18.792  0.00  0.00    +0.000 A 
ATOM      6  C   UNK A   0       5.189   4.742  18.047  0.00  0.00    +0.000 A 
ENDROOT
BRANCH   1   8
ATOM      7  O   UNK A   0       7.894   4.441  16.812  0.00  0.00    +0.000 OA
ATOM      8  C   UNK A   0       6.899   4.795  16.186  0.00  0.00    +0.000 C 
BRANCH   8   9
ATOM      9  C   UNK A   0       6.853   4.596  14.704  0.00  0.00    +0.000 A 
ATOM     10  C   UNK A   0       7.733   5.336  13.905  0.00  0.00    +0.000 A 
ATOM     11  C   UNK A   0       7.767   5.134  12.524  0.00  0.00    +0.000 A 
ATOM     12  C   UNK A   0       6.920   4.197  11.933  0.00  0.00    +0.000 A 
ATOM     13  C   UNK A   0       6.021   3.477  12.717  0.00  0.00    +0.000 A 
ATOM     14  C   UNK A   0       5.974   3.687  14.097  0.00  0.00    +0.000 A 
ENDBRANCH   8   9
ENDBRANCH   1   8
BRANCH   4  15
ATOM     15  O   UNK A   0       2.577   7.123  18.971  0.00  0.00    +0.000 OA
ATOM     16  H   UNK A   0       1.806   7.222  18.378  0.00  0.00    +0.000 HD
ENDBRANCH   4  15
BRANCH   5  17
ATOM     17  N   SER A   1       3.584   4.813  19.963  0.00  0.00    +0.000 N 
ATOM     18  H   SER A   1       4.327   4.728  20.666  0.00  0.00    +0.000 HD
BRANCH  17  19
ATOM     19  CA  SER A   1       2.677   3.632  19.950  0.00  0.00    +0.000 C 
BRANCH  19  20
ATOM     20  CB  SER A   1       2.972   2.626  21.074  0.00  0.00    +0.000 C 
BRANCH  20  21
ATOM     21  OG  SER A   1       2.077   2.784  22.173  0.00  0.00    +0.000 OA
ATOM     22  H   SER A   1       2.459   2.270  22.906  0.00  0.00    +0.000 HD
ENDBRANCH  20  21
ENDBRANCH  19  20
BRANCH  19  23
ATOM     23  C   SER A   1       1.226   4.150  20.063  0.00  0.00    +0.000 C 
BRANCH  23  24
ATOM     24  O   SER A   1       1.199   5.386  20.785  0.00  0.00    +0.000 OA
ATOM     25  H   SER A   1       0.525   5.933  20.336  0.00  0.00    +0.000 HD
ENDBRANCH  23  24
ENDBRANCH  19  23
ENDBRANCH  17  19
ENDBRANCH   5  17
BRANCH   6  26
ATOM     26  O   UNK A   0       5.668   3.519  18.431  0.00  0.00    +0.000 OA
ATOM     27  H   UNK A   0       4.867   2.988  18.601  0.00  0.00    +0.000 HD
ENDBRANCH   6  26
TORSDOF 10
ENDMDL
MODEL 2
REMARK VINA RESULT:      -7.2      0.963      1.529
REMARK  Name = 
REMARK  10 active torsions:
REMARK  status: ('A' for Active; 'I' for Inactive)
REMARK    1  A    between atoms: C_2  and  C_3
REMARK    2  A    between atoms: C_2  and  C_9
REMARK    3  A    between atoms: C_12  and  O_13
REMARK    4  A    between atoms: C_14  and  N_15
REMARK    5  A    between atoms: N_15  and  CA_16
REMARK    6  A    between atoms: CA_16  and  CB_17
REMARK    7  A    between atoms: CA_16  and  C_19
REMARK    8  A    between atoms: CB_17  and  OG_18
REMARK    9  A    between atoms: C_19  and  O_20
REMARK   10  A    between atoms: C_21  and  O_22
REMARK                            x       y       z     vdW  Elec       q    Type
REMARK                         _______ _______ _______ _____ _____    ______ ____
ROOT
ATOM      1  C   UNK A   0       5.595   5.246  16.653  0.00  0.00    +0.000 A 
ATOM      2  C   UNK A   0       5.266   6.611  16.600  0.00  0.00    +0.000 A 
ATOM      3  C   UNK A   0       4.159   7.093  17.293  0.00  0.00    +0.000 A 
ATOM      4  C   UNK A   0       3.388   6.204  18.041  0.00  0.00    +0.000 A 
ATOM      5  C   UNK A   0       3.666   4.823  18.103  0.00  0.00    +0.000 A 
ATOM      6  C   UNK A   0       4.753   4.360  17.340  0.00  0.00    +0.000 A 
ENDROOT
BRANCH   1   8
ATOM      7  O   UNK A   0       7.834   4.499  16.595  0.00  0.00    +0.000 OA
ATOM      8  C   UNK A   0       6.825   4.778  15.954  0.00  0.00    +0.000 C 
BRANCH   8   9
ATOM      9  C   UNK A   0       6.818   4.579  14.471  0.00  0.00    +0.000 A 
ATOM     10  C   UNK A   0       7.708   5.331  13.694  0.00  0.00    +0.000 A 
ATOM     11  C   UNK A   0       7.779   5.131  12.314  0.00  0.00    +0.000 A 
ATOM     12  C   UNK A   0       6.959   4.183  11.702  0.00  0.00    +0.000 A 
ATOM     13  C   UNK A   0       6.051   3.451  12.463  0.00  0.00    +0.000 A 
ATOM     14  C   UNK A   0       5.967   3.660  13.842  0.00  0.00    +0.000 A 
ENDBRANCH   8   9
ENDBRANCH   1   8
BRANCH   4  15
ATOM     15  O   UNK A   0       2.316   6.676  18.767  0.00  0.00    +0.000 OA
ATOM     16  H   UNK A   0       1.829   5.913  19.136  0.00  0.00    +0.000 HD
ENDBRANCH   4  15
BRANCH   5  17
ATOM     17  N   SER A   1       2.786   4.010  18.843  0.00  0.00    +0.000 N 
ATOM     18  H   SER A   1       1.832   4.351  18.678  0.00  0.00    +0.000 HD
BRANCH  17  19
ATOM     19  CA  SER A   1       3.024   3.660  20.270  0.00  0.00    +0.000 C 
BRANCH  19  20
ATOM     20  CB  SER A   1       1.758   3.748  21.138  0.00  0.00    +0.000 C 
BRANCH  20  21
ATOM     21  OG  SER A   1       0.574   3.778  20.342  0.00  0.00    +0.000 OA
ATOM     22  H   SER A   1       0.213   2.874  20.364  0.00  0.00    +0.000 HD
ENDBRANCH  20  21
ENDBRANCH  19  20
BRANCH  19  23
ATOM     23  C   SER A   1       3.605   2.229  20.315  0.00  0.00    +0.000 C 
BRANCH  23  24
ATOM     24  O   SER A   1       5.015   2.263  20.069  0.00  0.00    +0.000 OA
ATOM     25  H   SER A   1       5.368   2.937  20.683  0.00  0.00    +0.000 HD
ENDBRANCH  23  24
ENDBRANCH  19  23
ENDBRANCH  17  19
ENDBRANCH   5  17
BRANCH   6  26
ATOM     26  O   UNK A   0       4.981   3.013  17.246  0.00  0.00    +0.000 OA
ATOM     27  H   UNK A   0       5.486   2.912  16.417  0.00  0.00    +0.000 HD
ENDBRANCH   6  26
TORSDOF 10
ENDMDL
MODEL 3
REMARK VINA RESULT:      -7.1      0.978      1.093
REMARK  Name = 
REMARK  10 active torsions:
REMARK  status: ('A' for Active; 'I' for Inactive)
REMARK    1  A    between atoms: C_2  and  C_3
REMARK    2  A    between atoms: C_2  and  C_9
REMARK    3  A    between atoms: C_12  and  O_13
REMARK    4  A    between atoms: C_14  and  N_15
REMARK    5  A    between atoms: N_15  and  CA_16
REMARK    6  A    between atoms: CA_16  and  CB_17
REMARK    7  A    between atoms: CA_16  and  C_19
REMARK    8  A    between atoms: CB_17  and  OG_18
REMARK    9  A    between atoms: C_19  and  O_20
REMARK   10  A    between atoms: C_21  and  O_22
REMARK                            x       y       z     vdW  Elec       q    Type
REMARK                         _______ _______ _______ _____ _____    ______ ____
ROOT
ATOM      1  C   UNK A   0       5.671   5.444  16.818  0.00  0.00    +0.000 A 
ATOM      2  C   UNK A   0       5.168   6.703  16.447  0.00  0.00    +0.000 A 
ATOM      3  C   UNK A   0       4.091   7.258  17.131  0.00  0.00    +0.000 A 
ATOM      4  C   UNK A   0       3.523   6.550  18.190  0.00  0.00    +0.000 A 
ATOM      5  C   UNK A   0       3.978   5.273  18.581  0.00  0.00    +0.000 A 
ATOM      6  C   UNK A   0       5.026   4.715  17.827  0.00  0.00    +0.000 A 
ENDROOT
BRANCH   1   8
ATOM      7  O   UNK A   0       7.885   4.630  16.731  0.00  0.00    +0.000 OA
ATOM      8  C   UNK A   0       6.867   4.911  16.106  0.00  0.00    +0.000 C 
BRANCH   8   9
ATOM      9  C   UNK A   0       6.813   4.653  14.634  0.00  0.00    +0.000 A 
ATOM     10  C   UNK A   0       7.680   5.370  13.799  0.00  0.00    +0.000 A 
ATOM     11  C   UNK A   0       7.707   5.114  12.427  0.00  0.00    +0.000 A 
ATOM     12  C   UNK A   0       6.867   4.144  11.881  0.00  0.00    +0.000 A 
ATOM     13  C   UNK A   0       5.981   3.447  12.699  0.00  0.00    +0.000 A 
ATOM     14  C   UNK A   0       5.940   3.712  14.070  0.00  0.00    +0.000 A 
ENDBRANCH   8   9
ENDBRANCH   1   8
BRANCH   4  15
ATOM     15  O   UNK A   0       2.484   7.108  18.905  0.00  0.00    +0.000 OA
ATOM     16  H   UNK A   0       1.701   6.530  18.818  0.00  0.00    +0.000 HD
ENDBRANCH   4  15
BRANCH   5  17
ATOM     17  N   SER A   1       3.292   4.626  19.627  0.00  0.00    +0.000 N 
ATOM     18  H   SER A   1       3.990   4.160  20.218  0.00  0.00    +0.000 HD
BRANCH  17  19
ATOM     19  CA  SER A   1       2.089   3.781  19.397  0.00  0.00    +0.000 C 
BRANCH  19  20
ATOM     20  CB  SER A   1       2.402   2.276  19.347  0.00  0.00    +0.000 C 
BRANCH  20  21
ATOM     21  OG  SER A   1       1.396   1.550  18.642  0.00  0.00    +0.000 OA
ATOM     22  H   SER A   1       0.628   1.509  19.238  0.00  0.00    +0.000 HD
ENDBRANCH  20  21
ENDBRANCH  19  20
BRANCH  19  23
ATOM     23  C   SER A   1       1.078   4.080  20.527  0.00  0.00    +0.000 C 
BRANCH  23  24
ATOM     24  O   SER A   1       0.770   2.878  21.242  0.00  0.00    +0.000 OA
ATOM     25  H   SER A   1       0.029   3.113  21.834  0.00  0.00    +0.000 HD
ENDBRANCH  23  24
ENDBRANCH  19  23
ENDBRANCH  17  19
ENDBRANCH   5  17
BRANCH   6  26
ATOM     26  O   UNK A   0       5.410   3.423  18.067  0.00  0.00    +0.000 OA
ATOM     27  H   UNK A   0       4.598   2.984  18.384  0.00  0.00    +0.000 HD
ENDBRANCH   6  26
TORSDOF 10
ENDMDL
MODEL 4
REMARK VINA RESULT:      -7.0      1.056      1.483
REMARK  Name = 
REMARK  10 active torsions:
REMARK  status: ('A' for Active; 'I' for Inactive)
REMARK    1  A    between atoms: C_2  and  C_3
REMARK    2  A    between atoms: C_2  and  C_9
REMARK    3  A    between atoms: C_12  and  O_13
REMARK    4  A    between atoms: C_14  and  N_15
REMARK    5  A    between atoms: N_15  and  CA_16
REMARK    6  A    between atoms: CA_16  and  CB_17
REMARK    7  A    between atoms: CA_16  and  C_19
REMARK    8  A    between atoms: CB_17  and  OG_18
REMARK    9  A    between atoms: C_19  and  O_20
REMARK   10  A    between atoms: C_21  and  O_22
REMARK                            x       y       z     vdW  Elec       q    Type
REMARK                         _______ _______ _______ _____ _____    ______ ____
ROOT
ATOM      1  C   UNK A   0       5.701   5.341  16.897  0.00  0.00    +0.000 A 
ATOM      2  C   UNK A   0       5.076   6.495  16.394  0.00  0.00    +0.000 A 
ATOM      3  C   UNK A   0       4.001   7.063  17.071  0.00  0.00    +0.000 A 
ATOM      4  C   UNK A   0       3.560   6.474  18.256  0.00  0.00    +0.000 A 
ATOM      5  C   UNK A   0       4.140   5.302  18.784  0.00  0.00    +0.000 A 
ATOM      6  C   UNK A   0       5.181   4.719  18.041  0.00  0.00    +0.000 A 
ENDROOT
BRANCH   1   8
ATOM      7  O   UNK A   0       7.892   4.466  16.807  0.00  0.00    +0.000 OA
ATOM      8  C   UNK A   0       6.891   4.800  16.180  0.00  0.00    +0.000 C 
BRANCH   8   9
ATOM      9  C   UNK A   0       6.849   4.598  14.699  0.00  0.00    +0.000 A 
ATOM     10  C   UNK A   0       7.729   5.338  13.900  0.00  0.00    +0.000 A 
ATOM     11  C   UNK A   0       7.768   5.134  12.520  0.00  0.00    +0.000 A 
ATOM     12  C   UNK A   0       6.925   4.193  11.929  0.00  0.00    +0.000 A 
ATOM     13  C   UNK A   0       6.025   3.472  12.712  0.00  0.00    +0.000 A 
ATOM     14  C   UNK A   0       5.974   3.686  14.092  0.00  0.00    +0.000 A 
ENDBRANCH   8   9
ENDBRANCH   1   8
BRANCH   4  15
ATOM     15  O   UNK A   0       2.525   7.052  18.960  0.00  0.00    +0.000 OA
ATOM     16  H   UNK A   0       2.864   7.847  19.415  0.00  0.00    +0.000 HD
ENDBRANCH   4  15
BRANCH   5  17
ATOM     17  N   SER A   1       3.575   4.763  19.956  0.00  0.00    +0.000 N 
ATOM     18  H   SER A   1       4.344   4.496  20.580  0.00  0.00    +0.000 HD
BRANCH  17  19
ATOM     19  CA  SER A   1       2.486   3.749  19.930  0.00  0.00    +0.000 C 
BRANCH  19  20
ATOM     20  CB  SER A   1       2.157   3.245  18.516  0.00  0.00    +0.000 C 
BRANCH  20  21
ATOM     21  OG  SER A   1       2.314   1.831  18.408  0.00  0.00    +0.000 OA
ATOM     22  H   SER A   1       1.564   1.518  17.872  0.00  0.00    +0.000 HD
ENDBRANCH  20  21
ENDBRANCH  19  20
BRANCH  19  23
ATOM     23  C   SER A   1       2.917   2.569  20.831  0.00  0.00    +0.000 C 
BRANCH  23  24
ATOM     24  O   SER A   1       4.269   2.197  20.540  0.00  0.00    +0.000 OA
ATOM     25  H   SER A   1       4.203   1.387  19.997  0.00  0.00    +0.000 HD
ENDBRANCH  23  24
ENDBRANCH  19  23
ENDBRANCH  17  19
ENDBRANCH   5  17
BRANCH   6  26
ATOM     26  O   UNK A   0       5.683   3.506  18.427  0.00  0.00    +0.000 OA
ATOM     27  H   UNK A   0       4.905   2.918  18.449  0.00  0.00    +0.000 HD
ENDBRANCH   6  26
TORSDOF 10
ENDMDL
MODEL 5
REMARK VINA RESULT:      -7.0      0.941      1.774
REMARK  Name = 
REMARK  10 active torsions:
REMARK  status: ('A' for Active; 'I' for Inactive)
REMARK    1  A    between atoms: C_2  and  C_3
REMARK    2  A    between atoms: C_2  and  C_9
REMARK    3  A    between atoms: C_12  and  O_13
REMARK    4  A    between atoms: C_14  and  N_15
REMARK    5  A    between atoms: N_15  and  CA_16
REMARK    6  A    between atoms: CA_16  and  CB_17
REMARK    7  A    between atoms: CA_16  and  C_19
REMARK    8  A    between atoms: CB_17  and  OG_18
REMARK    9  A    between atoms: C_19  and  O_20
REMARK   10  A    between atoms: C_21  and  O_22
REMARK                            x       y       z     vdW  Elec       q    Type
REMARK                         _______ _______ _______ _____ _____    ______ ____
ROOT
ATOM      1  C   UNK A   0       5.649   5.260  16.629  0.00  0.00    +0.000 A 
ATOM      2  C   UNK A   0       5.327   6.625  16.550  0.00  0.00    +0.000 A 
ATOM      3  C   UNK A   0       4.199   7.119  17.196  0.00  0.00    +0.000 A 
ATOM      4  C   UNK A   0       3.397   6.241  17.925  0.00  0.00    +0.000 A 
ATOM      5  C   UNK A   0       3.667   4.860  18.012  0.00  0.00    +0.000 A 
ATOM      6  C   UNK A   0       4.779   4.384  17.295  0.00  0.00    +0.000 A 
ENDROOT
BRANCH   1   8
ATOM      7  O   UNK A   0       7.875   4.472  16.663  0.00  0.00    +0.000 OA
ATOM      8  C   UNK A   0       6.902   4.779  15.981  0.00  0.00    +0.000 C 
BRANCH   8   9
ATOM      9  C   UNK A   0       6.961   4.605  14.496  0.00  0.00    +0.000 A 
ATOM     10  C   UNK A   0       6.129   3.646  13.904  0.00  0.00    +0.000 A 
ATOM     11  C   UNK A   0       6.107   3.496  12.516  0.00  0.00    +0.000 A 
ATOM     12  C   UNK A   0       6.917   4.297  11.713  0.00  0.00    +0.000 A 
ATOM     13  C   UNK A   0       7.769   5.233  12.295  0.00  0.00    +0.000 A 
ATOM     14  C   UNK A   0       7.805   5.375  13.684  0.00  0.00    +0.000 A 
ENDBRANCH   8   9
ENDBRANCH   1   8
BRANCH   4  15
ATOM     15  O   UNK A   0       2.301   6.725  18.606  0.00  0.00    +0.000 OA
ATOM     16  H   UNK A   0       2.290   6.331  19.500  0.00  0.00    +0.000 HD
ENDBRANCH   4  15
BRANCH   5  17
ATOM     17  N   SER A   1       2.757   4.059  18.729  0.00  0.00    +0.000 N 
ATOM     18  H   SER A   1       1.827   4.485  18.639  0.00  0.00    +0.000 HD
BRANCH  17  19
ATOM     19  CA  SER A   1       3.028   3.573  20.109  0.00  0.00    +0.000 C 
BRANCH  19  20
ATOM     20  CB  SER A   1       1.779   3.558  21.005  0.00  0.00    +0.000 C 
BRANCH  20  21
ATOM     21  OG  SER A   1       2.093   3.177  22.343  0.00  0.00    +0.000 OA
ATOM     22  H   SER A   1       1.478   2.456  22.569  0.00  0.00    +0.000 HD
ENDBRANCH  20  21
ENDBRANCH  19  20
BRANCH  19  23
ATOM     23  C   SER A   1       3.627   2.153  20.002  0.00  0.00    +0.000 C 
BRANCH  23  24
ATOM     24  O   SER A   1       5.057   2.219  20.029  0.00  0.00    +0.000 OA
ATOM     25  H   SER A   1       5.268   3.103  20.390  0.00  0.00    +0.000 HD
ENDBRANCH  23  24
ENDBRANCH  19  23
ENDBRANCH  17  19
ENDBRANCH   5  17
BRANCH   6  26
ATOM     26  O   UNK A   0       5.005   3.036  17.223  0.00  0.00    +0.000 OA
ATOM     27  H   UNK A   0       5.864   2.960  16.767  0.00  0.00    +0.000 HD
ENDBRANCH   6  26
TORSDOF 10
ENDMDL
MODEL 6
REMARK VINA RESULT:      -6.9      1.032      1.455
REMARK  Name = 
REMARK  10 active torsions:
REMARK  status: ('A' for Active; 'I' for Inactive)
REMARK    1  A    between atoms: C_2  and  C_3
REMARK    2  A    between atoms: C_2  and  C_9
REMARK    3  A    between atoms: C_12  and  O_13
REMARK    4  A    between atoms: C_14  and  N_15
REMARK    5  A    between atoms: N_15  and  CA_16
REMARK    6  A    between atoms: CA_16  and  CB_17
REMARK    7  A    between atoms: CA_16  and  C_19
REMARK    8  A    between atoms: CB_17  and  OG_18
REMARK    9  A    between atoms: C_19  and  O_20
REMARK   10  A    between atoms: C_21  and  O_22
REMARK                            x       y       z     vdW  Elec       q    Type
REMARK                         _______ _______ _______ _____ _____    ______ ____
ROOT
ATOM      1  C   UNK A   0       5.442   5.869  16.900  0.00  0.00    +0.000 A 
ATOM      2  C   UNK A   0       4.589   6.977  16.762  0.00  0.00    +0.000 A 
ATOM      3  C   UNK A   0       3.516   7.149  17.631  0.00  0.00    +0.000 A 
ATOM      4  C   UNK A   0       3.304   6.210  18.640  0.00  0.00    +0.000 A 
ATOM      5  C   UNK A   0       4.119   5.070  18.801  0.00  0.00    +0.000 A 
ATOM      6  C   UNK A   0       5.155   4.894  17.866  0.00  0.00    +0.000 A 
ENDROOT
BRANCH   1   8
ATOM      7  O   UNK A   0       7.714   6.187  16.342  0.00  0.00    +0.000 OA
ATOM      8  C   UNK A   0       6.620   5.754  15.993  0.00  0.00    +0.000 C 
BRANCH   8   9
ATOM      9  C   UNK A   0       6.492   5.050  14.679  0.00  0.00    +0.000 A 
ATOM     10  C   UNK A   0       7.522   5.195  13.743  0.00  0.00    +0.000 A 
ATOM     11  C   UNK A   0       7.473   4.505  12.530  0.00  0.00    +0.000 A 
ATOM     12  C   UNK A   0       6.393   3.669  12.245  0.00  0.00    +0.000 A 
ATOM     13  C   UNK A   0       5.350   3.541  13.158  0.00  0.00    +0.000 A 
ATOM     14  C   UNK A   0       5.389   4.243  14.366  0.00  0.00    +0.000 A 
ENDBRANCH   8   9
ENDBRANCH   1   8
BRANCH   4  15
ATOM     15  O   UNK A   0       2.272   6.392  19.535  0.00  0.00    +0.000 OA
ATOM     16  H   UNK A   0       1.453   6.028  19.145  0.00  0.00    +0.000 HD
ENDBRANCH   4  15
BRANCH   5  17
ATOM     17  N   SER A   1       3.778   4.159  19.819  0.00  0.00    +0.000 N 
ATOM     18  H   SER A   1       4.635   3.929  20.333  0.00  0.00    +0.000 HD
BRANCH  17  19
ATOM     19  CA  SER A   1       2.924   2.965  19.575  0.00  0.00    +0.000 C 
BRANCH  19  20
ATOM     20  CB  SER A   1       3.730   1.687  19.296  0.00  0.00    +0.000 C 
BRANCH  20  21
ATOM     21  OG  SER A   1       5.012   1.724  19.922  0.00  0.00    +0.000 OA
ATOM     22  H   SER A   1       5.404   2.582  19.680  0.00  0.00    +0.000 HD
ENDBRANCH  20  21
ENDBRANCH  19  20
BRANCH  19  23
ATOM     23  C   SER A   1       2.021   2.769  20.815  0.00  0.00    +0.000 C 
BRANCH  23  24
ATOM     24  O   SER A   1       2.824   2.512  21.972  0.00  0.00    +0.000 OA
ATOM     25  H   SER A   1       2.797   1.543  22.095  0.00  0.00    +0.000 HD
ENDBRANCH  23  24
ENDBRANCH  19  23
ENDBRANCH  17  19
ENDBRANCH   5  17
BRANCH   6  26
ATOM     26  O   UNK A   0       5.885   3.737  17.883  0.00  0.00    +0.000 OA
ATOM     27  H   UNK A   0       5.827   3.428  18.807  0.00  0.00    +0.000 HD
ENDBRANCH   6  26
TORSDOF 10
ENDMDL
MODEL 7
REMARK VINA RESULT:      -6.9      1.089      1.867
REMARK  Name = 
REMARK  10 active torsions:
REMARK  status: ('A' for Active; 'I' for Inactive)
REMARK    1  A    between atoms: C_2  and  C_3
REMARK    2  A    between atoms: C_2  and  C_9
REMARK    3  A    between atoms: C_12  and  O_13
REMARK    4  A    between atoms: C_14  and  N_15
REMARK    5  A    between atoms: N_15  and  CA_16
REMARK    6  A    between atoms: CA_16  and  CB_17
REMARK    7  A    between atoms: CA_16  and  C_19
REMARK    8  A    between atoms: CB_17  and  OG_18
REMARK    9  A    between atoms: C_19  and  O_20
REMARK   10  A    between atoms: C_21  and  O_22
REMARK                            x       y       z     vdW  Elec       q    Type
REMARK                         _______ _______ _______ _____ _____    ______ ____
ROOT
ATOM      1  C   UNK A   0       5.758   5.394  16.901  0.00  0.00    +0.000 A 
ATOM      2  C   UNK A   0       5.196   6.571  16.379  0.00  0.00    +0.000 A 
ATOM      3  C   UNK A   0       4.116   7.175  17.015  0.00  0.00    +0.000 A 
ATOM      4  C   UNK A   0       3.604   6.597  18.177  0.00  0.00    +0.000 A 
ATOM      5  C   UNK A   0       4.119   5.402  18.722  0.00  0.00    +0.000 A 
ATOM      6  C   UNK A   0       5.169   4.785  18.018  0.00  0.00    +0.000 A 
ENDROOT
BRANCH   1   8
ATOM      7  O   UNK A   0       7.921   4.448  16.896  0.00  0.00    +0.000 OA
ATOM      8  C   UNK A   0       6.956   4.813  16.231  0.00  0.00    +0.000 C 
BRANCH   8   9
ATOM      9  C   UNK A   0       6.965   4.609  14.749  0.00  0.00    +0.000 A 
ATOM     10  C   UNK A   0       6.064   3.690  14.198  0.00  0.00    +0.000 A 
ATOM     11  C   UNK A   0       5.994   3.516  12.814  0.00  0.00    +0.000 A 
ATOM     12  C   UNK A   0       6.827   4.255  11.974  0.00  0.00    +0.000 A 
ATOM     13  C   UNK A   0       7.746   5.151  12.515  0.00  0.00    +0.000 A 
ATOM     14  C   UNK A   0       7.829   5.316  13.901  0.00  0.00    +0.000 A 
ENDBRANCH   8   9
ENDBRANCH   1   8
BRANCH   4  15
ATOM     15  O   UNK A   0       2.562   7.209  18.841  0.00  0.00    +0.000 OA
ATOM     16  H   UNK A   0       2.813   8.135  19.027  0.00  0.00    +0.000 HD
ENDBRANCH   4  15
BRANCH   5  17
ATOM     17  N   SER A   1       3.486   4.879  19.866  0.00  0.00    +0.000 N 
ATOM     18  H   SER A   1       4.219   4.608  20.531  0.00  0.00    +0.000 HD
BRANCH  17  19
ATOM     19  CA  SER A   1       2.389   3.877  19.789  0.00  0.00    +0.000 C 
BRANCH  19  20
ATOM     20  CB  SER A   1       1.765   3.763  18.389  0.00  0.00    +0.000 C 
BRANCH  20  21
ATOM     21  OG  SER A   1       0.811   2.705  18.320  0.00  0.00    +0.000 OA
ATOM     22  H   SER A   1      -0.013   3.061  18.699  0.00  0.00    +0.000 HD
ENDBRANCH  20  21
ENDBRANCH  19  20
BRANCH  19  23
ATOM     23  C   SER A   1       2.963   2.512  20.232  0.00  0.00    +0.000 C 
BRANCH  23  24
ATOM     24  O   SER A   1       3.444   1.789  19.094  0.00  0.00    +0.000 OA
ATOM     25  H   SER A   1       3.825   2.465  18.500  0.00  0.00    +0.000 HD
ENDBRANCH  23  24
ENDBRANCH  19  23
ENDBRANCH  17  19
ENDBRANCH   5  17
BRANCH   6  26
ATOM     26  O   UNK A   0       5.610   3.553  18.418  0.00  0.00    +0.000 OA
ATOM     27  H   UNK A   0       5.209   3.426  19.297  0.00  0.00    +0.000 HD
ENDBRANCH   6  26
TORSDOF 10
ENDMDL
MODEL 8
REMARK VINA RESULT:      -6.9      1.007      1.501
REMARK  Name = 
REMARK  10 active torsions:
REMARK  status: ('A' for Active; 'I' for Inactive)
REMARK    1  A    between atoms: C_2  and  C_3
REMARK    2  A    between atoms: C_2  and  C_9
REMARK    3  A    between atoms: C_12  and  O_13
REMARK    4  A    between atoms: C_14  and  N_15
REMARK    5  A    between atoms: N_15  and  CA_16
REMARK    6  A    between atoms: CA_16  and  CB_17
REMARK    7  A    between atoms: CA_16  and  C_19
REMARK    8  A    between atoms: CB_17  and  OG_18
REMARK    9  A    between atoms: C_19  and  O_20
REMARK   10  A    between atoms: C_21  and  O_22
REMARK                            x       y       z     vdW  Elec       q    Type
REMARK                         _______ _______ _______ _____ _____    ______ ____
ROOT
ATOM      1  C   UNK A   0       5.662   5.334  17.161  0.00  0.00    +0.000 A 
ATOM      2  C   UNK A   0       5.107   6.551  16.732  0.00  0.00    +0.000 A 
ATOM      3  C   UNK A   0       3.990   7.078  17.371  0.00  0.00    +0.000 A 
ATOM      4  C   UNK A   0       3.433   6.383  18.444  0.00  0.00    +0.000 A 
ATOM      5  C   UNK A   0       3.940   5.146  18.893  0.00  0.00    +0.000 A 
ATOM      6  C   UNK A   0       5.030   4.612  18.184  0.00  0.00    +0.000 A 
ENDROOT
BRANCH   1   8
ATOM      7  O   UNK A   0       7.886   4.542  17.163  0.00  0.00    +0.000 OA
ATOM      8  C   UNK A   0       6.898   4.835  16.496  0.00  0.00    +0.000 C 
BRANCH   8   9
ATOM      9  C   UNK A   0       6.923   4.623  15.015  0.00  0.00    +0.000 A 
ATOM     10  C   UNK A   0       6.014   3.716  14.456  0.00  0.00    +0.000 A 
ATOM     11  C   UNK A   0       5.960   3.537  13.073  0.00  0.00    +0.000 A 
ATOM     12  C   UNK A   0       6.816   4.258  12.240  0.00  0.00    +0.000 A 
ATOM     13  C   UNK A   0       7.743   5.141  12.789  0.00  0.00    +0.000 A 
ATOM     14  C   UNK A   0       7.810   5.311  14.174  0.00  0.00    +0.000 A 
ENDBRANCH   8   9
ENDBRANCH   1   8
BRANCH   4  15
ATOM     15  O   UNK A   0       2.352   6.915  19.115  0.00  0.00    +0.000 OA
ATOM     16  H   UNK A   0       1.635   7.078  18.471  0.00  0.00    +0.000 HD
ENDBRANCH   4  15
BRANCH   5  17
ATOM     17  N   SER A   1       3.263   4.505  19.949  0.00  0.00    +0.000 N 
ATOM     18  H   SER A   1       3.913   4.433  20.740  0.00  0.00    +0.000 HD
BRANCH  17  19
ATOM     19  CA  SER A   1       2.464   3.265  19.756  0.00  0.00    +0.000 C 
BRANCH  19  20
ATOM     20  CB  SER A   1       1.628   2.881  20.988  0.00  0.00    +0.000 C 
BRANCH  20  21
ATOM     21  OG  SER A   1       2.272   3.261  22.203  0.00  0.00    +0.000 OA
ATOM     22  H   SER A   1       1.585   3.677  22.752  0.00  0.00    +0.000 HD
ENDBRANCH  20  21
ENDBRANCH  19  20
BRANCH  19  23
ATOM     23  C   SER A   1       1.545   3.480  18.532  0.00  0.00    +0.000 C 
BRANCH  23  24
ATOM     24  O   SER A   1       1.983   2.664  17.440  0.00  0.00    +0.000 OA
ATOM     25  H   SER A   1       2.188   3.289  16.717  0.00  0.00    +0.000 HD
ENDBRANCH  23  24
ENDBRANCH  19  23
ENDBRANCH  17  19
ENDBRANCH   5  17
BRANCH   6  26
ATOM     26  O   UNK A   0       5.471   3.351  18.481  0.00  0.00    +0.000 OA
ATOM     27  H   UNK A   0       4.657   2.816  18.533  0.00  0.00    +0.000 HD
ENDBRANCH   6  26
TORSDOF 10
ENDMDL
MODEL 9
REMARK VINA RESULT:      -6.8      1.054      1.416
REMARK  Name = 
REMARK  10 active torsions:
REMARK  status: ('A' for Active; 'I' for Inactive)
REMARK    1  A    between atoms: C_2  and  C_3
REMARK    2  A    between atoms: C_2  and  C_9
REMARK    3  A    between atoms: C_12  and  O_13
REMARK    4  A    between atoms: C_14  and  N_15
REMARK    5  A    between atoms: N_15  and  CA_16
REMARK    6  A    between atoms: CA_16  and  CB_17
REMARK    7  A    between atoms: CA_16  and  C_19
REMARK    8  A    between atoms: CB_17  and  OG_18
REMARK    9  A    between atoms: C_19  and  O_20
REMARK   10  A    between atoms: C_21  and  O_22
REMARK                            x       y       z     vdW  Elec       q    Type
REMARK                         _______ _______ _______ _____ _____    ______ ____
ROOT
ATOM      1  C   UNK A   0       5.506   5.064  16.734  0.00  0.00    +0.000 A 
ATOM      2  C   UNK A   0       5.233   6.437  16.855  0.00  0.00    +0.000 A 
ATOM      3  C   UNK A   0       4.096   6.870  17.530  0.00  0.00    +0.000 A 
ATOM      4  C   UNK A   0       3.236   5.923  18.086  0.00  0.00    +0.000 A 
ATOM      5  C   UNK A   0       3.456   4.535  17.968  0.00  0.00    +0.000 A 
ATOM      6  C   UNK A   0       4.580   4.132  17.225  0.00  0.00    +0.000 A 
ENDROOT
BRANCH   1   8
ATOM      7  O   UNK A   0       7.746   4.319  16.731  0.00  0.00    +0.000 OA
ATOM      8  C   UNK A   0       6.767   4.640  16.063  0.00  0.00    +0.000 C 
BRANCH   8   9
ATOM      9  C   UNK A   0       6.829   4.538  14.572  0.00  0.00    +0.000 A 
ATOM     10  C   UNK A   0       7.711   5.379  13.883  0.00  0.00    +0.000 A 
ATOM     11  C   UNK A   0       7.847   5.272  12.497  0.00  0.00    +0.000 A 
ATOM     12  C   UNK A   0       7.099   4.329  11.792  0.00  0.00    +0.000 A 
ATOM     13  C   UNK A   0       6.197   3.508  12.466  0.00  0.00    +0.000 A 
ATOM     14  C   UNK A   0       6.048   3.624  13.851  0.00  0.00    +0.000 A 
ENDBRANCH   8   9
ENDBRANCH   1   8
BRANCH   4  15
ATOM     15  O   UNK A   0       2.130   6.340  18.795  0.00  0.00    +0.000 OA
ATOM     16  H   UNK A   0       2.418   6.979  19.475  0.00  0.00    +0.000 HD
ENDBRANCH   4  15
BRANCH   5  17
ATOM     17  N   SER A   1       2.492   3.670  18.520  0.00  0.00    +0.000 N 
ATOM     18  H   SER A   1       1.647   4.222  18.707  0.00  0.00    +0.000 HD
BRANCH  17  19
ATOM     19  CA  SER A   1       2.803   2.718  19.620  0.00  0.00    +0.000 C 
BRANCH  19  20
ATOM     20  CB  SER A   1       4.191   2.938  20.242  0.00  0.00    +0.000 C 
BRANCH  20  21
ATOM     21  OG  SER A   1       5.096   1.890  19.898  0.00  0.00    +0.000 OA
ATOM     22  H   SER A   1       5.965   2.164  20.242  0.00  0.00    +0.000 HD
ENDBRANCH  20  21
ENDBRANCH  19  20
BRANCH  19  23
ATOM     23  C   SER A   1       1.704   2.865  20.697  0.00  0.00    +0.000 C 
BRANCH  23  24
ATOM     24  O   SER A   1       2.272   2.712  22.003  0.00  0.00    +0.000 OA
ATOM     25  H   SER A   1       2.243   1.752  22.186  0.00  0.00    +0.000 HD
ENDBRANCH  23  24
ENDBRANCH  19  23
ENDBRANCH  17  19
ENDBRANCH   5  17
BRANCH   6  26
ATOM     26  O   UNK A   0       4.764   2.803  16.954  0.00  0.00    +0.000 OA
ATOM     27  H   UNK A   0       3.862   2.458  16.817  0.00  0.00    +0.000 HD
ENDBRANCH   6  26
TORSDOF 10
ENDMDL
