MODEL 1
REMARK VINA RESULT:      -8.2      0.000      0.000
REMARK  Name = 
REMARK  12 active torsions:
REMARK  status: ('A' for Active; 'I' for Inactive)
REMARK    1  A    between atoms: C_1  and  C_2
REMARK    2  A    between atoms: C_2  and  C_3
REMARK    3  A    between atoms: C_2  and  C_4
REMARK    4  A    between atoms: C_4  and  C_5
REMARK    5  A    between atoms: N_7  and  C_8
REMARK    6  A    between atoms: N_10  and  O_11
REMARK    7  A    between atoms: O_11  and  C_12
REMARK    8  A    between atoms: N_14  and  C_15
REMARK    9  A    between atoms: C_22  and  C_23
REMARK   10  A    between atoms: C_23  and  O_24
REMARK   11  A    between atoms: C_25  and  O_26
REMARK   12  A    between atoms: C_27  and  O_28
REMARK                            x       y       z     vdW  Elec       q    Type
REMARK                         _______ _______ _______ _____ _____    ______ ____
ROOT
ATOM      1  C   UNL     1       5.349   5.034  16.524  0.00  0.00    +0.000 C 
ATOM      2  C   UNL     1       5.488   6.498  16.926  0.00  0.00    +0.000 C 
ATOM      3  N   UNL     1       6.628   7.072  16.696  0.00  0.00    +0.000 NA
ATOM      4  O   UNL     1       4.477   7.138  17.545  0.00  0.00    +0.000 OA
ATOM      5  C   UNL     1       3.262   6.447  17.934  0.00  0.00    +0.000 C 
ATOM      6  C   UNL     1       3.580   5.000  18.313  0.00  0.00    +0.000 C 
ATOM      7  C   UNL     1       4.109   4.309  17.053  0.00  0.00    +0.000 C 
ENDROOT
BRANCH   1  10
ATOM      8  C   UNL     1       6.795   4.612  14.557  0.00  0.00    +0.000 C 
ATOM      9  O   UNL     1       7.783   4.444  15.265  0.00  0.00    +0.000 OA
ATOM     10  N   UNL     1       5.558   4.891  15.083  0.00  0.00    +0.000 N 
ATOM     11  H   UNL     1       4.781   5.080  14.464  0.00  0.00    +0.000 HD
BRANCH   8  12
ATOM     12  C   UNL     1       6.837   4.493  13.046  0.00  0.00    +0.000 C 
BRANCH  12  14
ATOM     13  C   UNL     1       4.806   3.511  11.893  0.00  0.00    +0.000 C 
ATOM     14  C   UNL     1       6.174   3.215  12.510  0.00  0.00    +0.000 C 
ATOM     15  C   UNL     1       7.081   2.550  11.471  0.00  0.00    +0.000 C 
ENDBRANCH  12  14
ENDBRANCH   8  12
ENDBRANCH   1  10
BRANCH   6  16
ATOM     16  O   UNL     1       2.440   4.313  18.832  0.00  0.00    +0.000 OA
ATOM     17  H   UNL     1       1.795   4.971  19.153  0.00  0.00    +0.000 HD
ENDBRANCH   6  16
BRANCH   7  18
ATOM     18  O   UNL     1       4.433   2.935  17.329  0.00  0.00    +0.000 OA
ATOM     19  H   UNL     1       3.654   2.500  17.718  0.00  0.00    +0.000 HD
ENDBRANCH   7  18
BRANCH   3  20
ATOM     20  O   UNL     1       6.651   8.404  17.184  0.00  0.00    +0.000 OA
BRANCH  20  21
ATOM     21  C   UNL     1       7.814   8.656  17.899  0.00  0.00    +0.000 C 
ATOM     22  O   UNL     1       8.423   7.744  18.443  0.00  0.00    +0.000 OA
ATOM     23  N   UNL     1       8.147   9.990  17.913  0.00  0.00    +0.000 N 
ATOM     24  H   UNL     1       7.431  10.551  17.464  0.00  0.00    +0.000 HD
BRANCH  23  25
ATOM     25  C   UNL     1       9.252  10.623  18.488  0.00  0.00    +0.000 A 
ATOM     26  C   UNL     1      10.316  11.127  17.744  0.00  0.00    +0.000 A 
ATOM     27  C   UNL     1      11.397  11.740  18.382  0.00  0.00    +0.000 A 
ATOM     28  C   UNL     1      11.421  11.853  19.770  0.00  0.00    +0.000 A 
ATOM     29  C   UNL     1      10.353  11.371  20.523  0.00  0.00    +0.000 A 
ATOM     30  C   UNL     1       9.268  10.768  19.882  0.00  0.00    +0.000 A 
ENDBRANCH  23  25
ENDBRANCH  20  21
ENDBRANCH   3  20
BRANCH   5  31
ATOM     31  C   UNL     1       2.639   7.224  19.103  0.00  0.00    +0.000 C 
BRANCH  31  32
ATOM     32  O   UNL     1       2.814   6.526  20.339  0.00  0.00    +0.000 OA
ATOM     33  H   UNL     1       3.709   6.141  20.349  0.00  0.00    +0.000 HD
ENDBRANCH  31  32
ENDBRANCH   5  31
TORSDOF 10
ENDMDL
MODEL 2
REMARK VINA RESULT:      -8.1      4.049      7.396
REMARK  Name = 
REMARK  12 active torsions:
REMARK  status: ('A' for Active; 'I' for Inactive)
REMARK    1  A    between atoms: C_1  and  C_2
REMARK    2  A    between atoms: C_2  and  C_3
REMARK    3  A    between atoms: C_2  and  C_4
REMARK    4  A    between atoms: C_4  and  C_5
REMARK    5  A    between atoms: N_7  and  C_8
REMARK    6  A    between atoms: N_10  and  O_11
REMARK    7  A    between atoms: O_11  and  C_12
REMARK    8  A    between atoms: N_14  and  C_15
REMARK    9  A    between atoms: C_22  and  C_23
REMARK   10  A    between atoms: C_23  and  O_24
REMARK   11  A    between atoms: C_25  and  O_26
REMARK   12  A    between atoms: C_27  and  O_28
REMARK                            x       y       z     vdW  Elec       q    Type
REMARK                         _______ _______ _______ _____ _____    ______ ____
ROOT
ATOM      1  C   UNL     1       2.753   5.231  17.976  0.00  0.00    +0.000 C 
ATOM      2  C   UNL     1       4.225   4.962  18.266  0.00  0.00    +0.000 C 
ATOM      3  N   UNL     1       5.092   5.769  17.738  0.00  0.00    +0.000 NA
ATOM      4  O   UNL     1       4.596   3.891  18.995  0.00  0.00    +0.000 OA
ATOM      5  C   UNL     1       3.631   2.910  19.453  0.00  0.00    +0.000 C 
ATOM      6  C   UNL     1       2.500   2.770  18.433  0.00  0.00    +0.000 C 
ATOM      7  C   UNL     1       1.778   4.118  18.371  0.00  0.00    +0.000 C 
ENDROOT
BRANCH   1  10
ATOM      8  C   UNL     1       2.129   6.783  19.804  0.00  0.00    +0.000 C 
ATOM      9  O   UNL     1       2.227   5.897  20.648  0.00  0.00    +0.000 OA
ATOM     10  N   UNL     1       2.381   6.556  18.474  0.00  0.00    +0.000 N 
ATOM     11  H   UNL     1       2.233   7.297  17.802  0.00  0.00    +0.000 HD
BRANCH   8  12
ATOM     12  C   UNL     1       1.760   8.211  20.152  0.00  0.00    +0.000 C 
BRANCH  12  14
ATOM     13  C   UNL     1       1.492   9.138  22.494  0.00  0.00    +0.000 C 
ATOM     14  C   UNL     1       0.836   8.330  21.373  0.00  0.00    +0.000 C 
ATOM     15  C   UNL     1      -0.488   8.983  20.967  0.00  0.00    +0.000 C 
ENDBRANCH  12  14
ENDBRANCH   8  12
ENDBRANCH   1  10
BRANCH   6  16
ATOM     16  O   UNL     1       1.593   1.719  18.771  0.00  0.00    +0.000 OA
ATOM     17  H   UNL     1       0.681   2.065  18.732  0.00  0.00    +0.000 HD
ENDBRANCH   6  16
BRANCH   7  18
ATOM     18  O   UNL     1       0.695   4.068  17.427  0.00  0.00    +0.000 OA
ATOM     19  H   UNL     1       0.827   3.305  16.836  0.00  0.00    +0.000 HD
ENDBRANCH   7  18
BRANCH   3  20
ATOM     20  O   UNL     1       6.422   5.366  18.020  0.00  0.00    +0.000 OA
BRANCH  20  21
ATOM     21  C   UNL     1       7.045   4.864  16.886  0.00  0.00    +0.000 C 
ATOM     22  O   UNL     1       8.095   4.240  16.974  0.00  0.00    +0.000 OA
ATOM     23  N   UNL     1       6.362   5.164  15.731  0.00  0.00    +0.000 N 
ATOM     24  H   UNL     1       5.570   5.769  15.921  0.00  0.00    +0.000 HD
BRANCH  23  25
ATOM     25  C   UNL     1       6.650   4.806  14.412  0.00  0.00    +0.000 A 
ATOM     26  C   UNL     1       7.662   5.400  13.663  0.00  0.00    +0.000 A 
ATOM     27  C   UNL     1       7.891   5.003  12.343  0.00  0.00    +0.000 A 
ATOM     28  C   UNL     1       7.109   4.008  11.763  0.00  0.00    +0.000 A 
ATOM     29  C   UNL     1       6.107   3.391  12.509  0.00  0.00    +0.000 A 
ATOM     30  C   UNL     1       5.887   3.782  13.833  0.00  0.00    +0.000 A 
ENDBRANCH  23  25
ENDBRANCH  20  21
ENDBRANCH   3  20
BRANCH   5  31
ATOM     31  C   UNL     1       4.379   1.586  19.667  0.00  0.00    +0.000 C 
BRANCH  31  32
ATOM     32  O   UNL     1       4.292   0.749  18.510  0.00  0.00    +0.000 OA
ATOM     33  H   UNL     1       3.631   1.132  17.905  0.00  0.00    +0.000 HD
ENDBRANCH  31  32
ENDBRANCH   5  31
TORSDOF 10
ENDMDL
MODEL 3
REMARK VINA RESULT:      -8.1      3.598      7.470
REMARK  Name = 
REMARK  12 active torsions:
REMARK  status: ('A' for Active; 'I' for Inactive)
REMARK    1  A    between atoms: C_1  and  C_2
REMARK    2  A    between atoms: C_2  and  C_3
REMARK    3  A    between atoms: C_2  and  C_4
REMARK    4  A    between atoms: C_4  and  C_5
REMARK    5  A    between atoms: N_7  and  C_8
REMARK    6  A    between atoms: N_10  and  O_11
REMARK    7  A    between atoms: O_11  and  C_12
REMARK    8  A    between atoms: N_14  and  C_15
REMARK    9  A    between atoms: C_22  and  C_23
REMARK   10  A    between atoms: C_23  and  O_24
REMARK   11  A    between atoms: C_25  and  O_26
REMARK   12  A    between atoms: C_27  and  O_28
REMARK                            x       y       z     vdW  Elec       q    Type
REMARK                         _______ _______ _______ _____ _____    ______ ____
ROOT
ATOM      1  C   UNL     1       4.262   4.678  17.407  0.00  0.00    +0.000 C 
ATOM      2  C   UNL     1       4.172   6.181  17.639  0.00  0.00    +0.000 C 
ATOM      3  N   UNL     1       2.991   6.718  17.616  0.00  0.00    +0.000 NA
ATOM      4  O   UNL     1       5.288   6.918  17.801  0.00  0.00    +0.000 OA
ATOM      5  C   UNL     1       6.611   6.335  17.674  0.00  0.00    +0.000 C 
ATOM      6  C   UNL     1       6.594   5.217  16.631  0.00  0.00    +0.000 C 
ATOM      7  C   UNL     1       5.666   4.120  17.161  0.00  0.00    +0.000 C 
ENDROOT
BRANCH   1  10
ATOM      8  C   UNL     1       2.440   3.164  18.134  0.00  0.00    +0.000 C 
ATOM      9  O   UNL     1       2.076   2.977  16.976  0.00  0.00    +0.000 OA
ATOM     10  N   UNL     1       3.509   3.968  18.443  0.00  0.00    +0.000 N 
ATOM     11  H   UNL     1       3.741   4.144  19.411  0.00  0.00    +0.000 HD
BRANCH   8  12
ATOM     12  C   UNL     1       1.773   2.500  19.322  0.00  0.00    +0.000 C 
BRANCH  12  14
ATOM     13  C   UNL     1       1.008   4.576  20.556  0.00  0.00    +0.000 C 
ATOM     14  C   UNL     1       1.873   3.316  20.620  0.00  0.00    +0.000 C 
ATOM     15  C   UNL     1       1.451   2.455  21.814  0.00  0.00    +0.000 C 
ENDBRANCH  12  14
ENDBRANCH   8  12
ENDBRANCH   1  10
BRANCH   6  16
ATOM     16  O   UNL     1       7.899   4.700  16.369  0.00  0.00    +0.000 OA
ATOM     17  H   UNL     1       7.908   3.746  16.575  0.00  0.00    +0.000 HD
ENDBRANCH   6  16
BRANCH   7  18
ATOM     18  O   UNL     1       5.595   3.026  16.231  0.00  0.00    +0.000 OA
ATOM     19  H   UNL     1       5.865   2.208  16.685  0.00  0.00    +0.000 HD
ENDBRANCH   7  18
BRANCH   3  20
ATOM     20  O   UNL     1       3.053   8.127  17.768  0.00  0.00    +0.000 OA
BRANCH  20  21
ATOM     21  C   UNL     1       1.972   8.600  18.499  0.00  0.00    +0.000 C 
ATOM     22  O   UNL     1       1.784   8.226  19.650  0.00  0.00    +0.000 OA
ATOM     23  N   UNL     1       1.194   9.478  17.783  0.00  0.00    +0.000 N 
ATOM     24  H   UNL     1       1.513   9.552  16.823  0.00  0.00    +0.000 HD
BRANCH  23  25
ATOM     25  C   UNL     1       0.057  10.185  18.182  0.00  0.00    +0.000 A 
ATOM     26  C   UNL     1      -1.210   9.958  17.650  0.00  0.00    +0.000 A 
ATOM     27  C   UNL     1      -2.305  10.708  18.086  0.00  0.00    +0.000 A 
ATOM     28  C   UNL     1      -2.141  11.691  19.058  0.00  0.00    +0.000 A 
ATOM     29  C   UNL     1      -0.882  11.913  19.613  0.00  0.00    +0.000 A 
ATOM     30  C   UNL     1       0.210  11.155  19.184  0.00  0.00    +0.000 A 
ENDBRANCH  23  25
ENDBRANCH  20  21
ENDBRANCH   3  20
BRANCH   5  31
ATOM     31  C   UNL     1       7.581   7.463  17.291  0.00  0.00    +0.000 C 
BRANCH  31  32
ATOM     32  O   UNL     1       8.328   7.910  18.426  0.00  0.00    +0.000 OA
ATOM     33  H   UNL     1       7.713   8.348  19.043  0.00  0.00    +0.000 HD
ENDBRANCH  31  32
ENDBRANCH   5  31
TORSDOF 10
ENDMDL
MODEL 4
REMARK VINA RESULT:      -8.0      0.842      1.240
REMARK  Name = 
REMARK  12 active torsions:
REMARK  status: ('A' for Active; 'I' for Inactive)
REMARK    1  A    between atoms: C_1  and  C_2
REMARK    2  A    between atoms: C_2  and  C_3
REMARK    3  A    between atoms: C_2  and  C_4
REMARK    4  A    between atoms: C_4  and  C_5
REMARK    5  A    between atoms: N_7  and  C_8
REMARK    6  A    between atoms: N_10  and  O_11
REMARK    7  A    between atoms: O_11  and  C_12
REMARK    8  A    between atoms: N_14  and  C_15
REMARK    9  A    between atoms: C_22  and  C_23
REMARK   10  A    between atoms: C_23  and  O_24
REMARK   11  A    between atoms: C_25  and  O_26
REMARK   12  A    between atoms: C_27  and  O_28
REMARK                            x       y       z     vdW  Elec       q    Type
REMARK                         _______ _______ _______ _____ _____    ______ ____
ROOT
ATOM      1  C   UNL     1       5.940   4.585  16.877  0.00  0.00    +0.000 C 
ATOM      2  C   UNL     1       6.033   6.102  16.986  0.00  0.00    +0.000 C 
ATOM      3  N   UNL     1       7.214   6.633  16.905  0.00  0.00    +0.000 NA
ATOM      4  O   UNL     1       4.931   6.842  17.215  0.00  0.00    +0.000 OA
ATOM      5  C   UNL     1       3.638   6.229  17.455  0.00  0.00    +0.000 C 
ATOM      6  C   UNL     1       3.816   4.900  18.188  0.00  0.00    +0.000 C 
ATOM      7  C   UNL     1       4.590   3.968  17.252  0.00  0.00    +0.000 C 
ENDROOT
BRANCH   1  10
ATOM      8  C   UNL     1       5.857   4.507  14.402  0.00  0.00    +0.000 C 
ATOM      9  O   UNL     1       4.870   5.236  14.370  0.00  0.00    +0.000 OA
ATOM     10  N   UNL     1       6.460   4.145  15.581  0.00  0.00    +0.000 N 
ATOM     11  H   UNL     1       7.235   3.497  15.570  0.00  0.00    +0.000 HD
BRANCH   8  12
ATOM     12  C   UNL     1       6.524   3.970  13.151  0.00  0.00    +0.000 C 
BRANCH  12  14
ATOM     13  C   UNL     1       4.544   3.461  11.655  0.00  0.00    +0.000 C 
ATOM     14  C   UNL     1       5.715   2.872  12.443  0.00  0.00    +0.000 C 
ATOM     15  C   UNL     1       6.623   2.073  11.506  0.00  0.00    +0.000 C 
ENDBRANCH  12  14
ENDBRANCH   8  12
ENDBRANCH   1  10
BRANCH   6  16
ATOM     16  O   UNL     1       2.567   4.319  18.569  0.00  0.00    +0.000 OA
ATOM     17  H   UNL     1       2.591   3.364  18.374  0.00  0.00    +0.000 HD
ENDBRANCH   6  16
BRANCH   7  18
ATOM     18  O   UNL     1       4.800   2.688  17.874  0.00  0.00    +0.000 OA
ATOM     19  H   UNL     1       4.073   2.518  18.498  0.00  0.00    +0.000 HD
ENDBRANCH   7  18
BRANCH   3  20
ATOM     20  O   UNL     1       7.170   8.038  17.097  0.00  0.00    +0.000 OA
BRANCH  20  21
ATOM     21  C   UNL     1       8.126   8.448  18.017  0.00  0.00    +0.000 C 
ATOM     22  O   UNL     1       8.601   7.655  18.819  0.00  0.00    +0.000 OA
ATOM     23  N   UNL     1       8.425   9.785  17.907  0.00  0.00    +0.000 N 
ATOM     24  H   UNL     1       7.829  10.239  17.225  0.00  0.00    +0.000 HD
BRANCH  23  25
ATOM     25  C   UNL     1       9.352  10.548  18.622  0.00  0.00    +0.000 A 
ATOM     26  C   UNL     1       9.298  10.718  20.003  0.00  0.00    +0.000 A 
ATOM     27  C   UNL     1      10.250  11.504  20.657  0.00  0.00    +0.000 A 
ATOM     28  C   UNL     1      11.265  12.125  19.933  0.00  0.00    +0.000 A 
ATOM     29  C   UNL     1      11.342  11.946  18.554  0.00  0.00    +0.000 A 
ATOM     30  C   UNL     1      10.395  11.151  17.903  0.00  0.00    +0.000 A 
ENDBRANCH  23  25
ENDBRANCH  20  21
ENDBRANCH   3  20
BRANCH   5  31
ATOM     31  C   UNL     1       2.795   7.225  18.266  0.00  0.00    +0.000 C 
BRANCH  31  32
ATOM     32  O   UNL     1       2.865   6.941  19.666  0.00  0.00    +0.000 OA
ATOM     33  H   UNL     1       2.462   6.069  19.823  0.00  0.00    +0.000 HD
ENDBRANCH  31  32
ENDBRANCH   5  31
TORSDOF 10
ENDMDL
MODEL 5
REMARK VINA RESULT:      -8.0      3.726      7.555
REMARK  Name = 
REMARK  12 active torsions:
REMARK  status: ('A' for Active; 'I' for Inactive)
REMARK    1  A    between atoms: C_1  and  C_2
REMARK    2  A    between atoms: C_2  and  C_3
REMARK    3  A    between atoms: C_2  and  C_4
REMARK    4  A    between atoms: C_4  and  C_5
REMARK    5  A    between atoms: N_7  and  C_8
REMARK    6  A    between atoms: N_10  and  O_11
REMARK    7  A    between atoms: O_11  and  C_12
REMARK    8  A    between atoms: N_14  and  C_15
REMARK    9  A    between atoms: C_22  and  C_23
REMARK   10  A    between atoms: C_23  and  O_24
REMARK   11  A    between atoms: C_25  and  O_26
REMARK   12  A    between atoms: C_27  and  O_28
REMARK                            x       y       z     vdW  Elec       q    Type
REMARK                         _______ _______ _______ _____ _____    ______ ____
ROOT
ATOM      1  C   UNL     1       4.119   4.495  17.605  0.00  0.00    +0.000 C 
ATOM      2  C   UNL     1       4.109   5.969  17.992  0.00  0.00    +0.000 C 
ATOM      3  N   UNL     1       2.969   6.587  17.954  0.00  0.00    +0.000 NA
ATOM      4  O   UNL     1       5.256   6.604  18.304  0.00  0.00    +0.000 OA
ATOM      5  C   UNL     1       6.544   5.945  18.198  0.00  0.00    +0.000 C 
ATOM      6  C   UNL     1       6.529   4.946  17.041  0.00  0.00    +0.000 C 
ATOM      7  C   UNL     1       5.498   3.868  17.388  0.00  0.00    +0.000 C 
ENDROOT
BRANCH   1  10
ATOM      8  C   UNL     1       1.942   3.468  18.192  0.00  0.00    +0.000 C 
ATOM      9  O   UNL     1       1.439   3.824  17.131  0.00  0.00    +0.000 OA
ATOM     10  N   UNL     1       3.251   3.737  18.507  0.00  0.00    +0.000 N 
ATOM     11  H   UNL     1       3.612   3.478  19.415  0.00  0.00    +0.000 HD
BRANCH   8  12
ATOM     12  C   UNL     1       1.184   2.669  19.234  0.00  0.00    +0.000 C 
BRANCH  12  14
ATOM     13  C   UNL     1       2.116   2.836  21.583  0.00  0.00    +0.000 C 
ATOM     14  C   UNL     1       1.079   3.373  20.595  0.00  0.00    +0.000 C 
ATOM     15  C   UNL     1       1.259   4.883  20.420  0.00  0.00    +0.000 C 
ENDBRANCH  12  14
ENDBRANCH   8  12
ENDBRANCH   1  10
BRANCH   6  16
ATOM     16  O   UNL     1       7.814   4.367  16.807  0.00  0.00    +0.000 OA
ATOM     17  H   UNL     1       8.176   4.729  15.976  0.00  0.00    +0.000 HD
ENDBRANCH   6  16
BRANCH   7  18
ATOM     18  O   UNL     1       5.424   2.885  16.342  0.00  0.00    +0.000 OA
ATOM     19  H   UNL     1       5.068   3.305  15.539  0.00  0.00    +0.000 HD
ENDBRANCH   7  18
BRANCH   3  20
ATOM     20  O   UNL     1       3.110   7.965  18.262  0.00  0.00    +0.000 OA
BRANCH  20  21
ATOM     21  C   UNL     1       1.960   8.466  18.856  0.00  0.00    +0.000 C 
ATOM     22  O   UNL     1       1.639   8.119  19.986  0.00  0.00    +0.000 OA
ATOM     23  N   UNL     1       1.279   9.336  18.038  0.00  0.00    +0.000 N 
ATOM     24  H   UNL     1       1.705   9.385  17.119  0.00  0.00    +0.000 HD
BRANCH  23  25
ATOM     25  C   UNL     1       0.113  10.063  18.292  0.00  0.00    +0.000 A 
ATOM     26  C   UNL     1       0.056  11.125  19.191  0.00  0.00    +0.000 A 
ATOM     27  C   UNL     1      -1.145  11.805  19.407  0.00  0.00    +0.000 A 
ATOM     28  C   UNL     1      -2.298  11.428  18.724  0.00  0.00    +0.000 A 
ATOM     29  C   UNL     1      -2.249  10.381  17.807  0.00  0.00    +0.000 A 
ATOM     30  C   UNL     1      -1.044   9.709  17.584  0.00  0.00    +0.000 A 
ENDBRANCH  23  25
ENDBRANCH  20  21
ENDBRANCH   3  20
BRANCH   5  31
ATOM     31  C   UNL     1       7.609   7.035  18.002  0.00  0.00    +0.000 C 
BRANCH  31  32
ATOM     32  O   UNL     1       7.860   7.269  16.613  0.00  0.00    +0.000 OA
ATOM     33  H   UNL     1       8.423   8.060  16.533  0.00  0.00    +0.000 HD
ENDBRANCH  31  32
ENDBRANCH   5  31
TORSDOF 10
ENDMDL
MODEL 6
REMARK VINA RESULT:      -7.9      4.046      7.072
REMARK  Name = 
REMARK  12 active torsions:
REMARK  status: ('A' for Active; 'I' for Inactive)
REMARK    1  A    between atoms: C_1  and  C_2
REMARK    2  A    between atoms: C_2  and  C_3
REMARK    3  A    between atoms: C_2  and  C_4
REMARK    4  A    between atoms: C_4  and  C_5
REMARK    5  A    between atoms: N_7  and  C_8
REMARK    6  A    between atoms: N_10  and  O_11
REMARK    7  A    between atoms: O_11  and  C_12
REMARK    8  A    between atoms: N_14  and  C_15
REMARK    9  A    between atoms: C_22  and  C_23
REMARK   10  A    between atoms: C_23  and  O_24
REMARK   11  A    between atoms: C_25  and  O_26
REMARK   12  A    between atoms: C_27  and  O_28
REMARK                            x       y       z     vdW  Elec       q    Type
REMARK                         _______ _______ _______ _____ _____    ______ ____
ROOT
ATOM      1  C   UNL     1       2.775   5.228  17.961  0.00  0.00    +0.000 C 
ATOM      2  C   UNL     1       4.251   4.971  18.240  0.00  0.00    +0.000 C 
ATOM      3  N   UNL     1       5.109   5.777  17.696  0.00  0.00    +0.000 NA
ATOM      4  O   UNL     1       4.635   3.910  18.977  0.00  0.00    +0.000 OA
ATOM      5  C   UNL     1       3.679   2.929  19.455  0.00  0.00    +0.000 C 
ATOM      6  C   UNL     1       2.540   2.771  18.447  0.00  0.00    +0.000 C 
ATOM      7  C   UNL     1       1.810   4.115  18.377  0.00  0.00    +0.000 C 
ENDROOT
BRANCH   1  10
ATOM      8  C   UNL     1       2.142   6.793  19.775  0.00  0.00    +0.000 C 
ATOM      9  O   UNL     1       2.237   5.913  20.625  0.00  0.00    +0.000 OA
ATOM     10  N   UNL     1       2.400   6.557  18.447  0.00  0.00    +0.000 N 
ATOM     11  H   UNL     1       2.254   7.293  17.769  0.00  0.00    +0.000 HD
BRANCH   8  12
ATOM     12  C   UNL     1       1.771   8.224  20.111  0.00  0.00    +0.000 C 
BRANCH  12  14
ATOM     13  C   UNL     1       0.027   9.959  19.508  0.00  0.00    +0.000 C 
ATOM     14  C   UNL     1       1.051   8.959  18.970  0.00  0.00    +0.000 C 
ATOM     15  C   UNL     1       2.070   9.682  18.086  0.00  0.00    +0.000 C 
ENDBRANCH  12  14
ENDBRANCH   8  12
ENDBRANCH   1  10
BRANCH   6  16
ATOM     16  O   UNL     1       1.642   1.719  18.804  0.00  0.00    +0.000 OA
ATOM     17  H   UNL     1       1.241   1.927  19.669  0.00  0.00    +0.000 HD
ENDBRANCH   6  16
BRANCH   7  18
ATOM     18  O   UNL     1       0.718   4.048  17.443  0.00  0.00    +0.000 OA
ATOM     19  H   UNL     1       0.371   4.946  17.299  0.00  0.00    +0.000 HD
ENDBRANCH   7  18
BRANCH   3  20
ATOM     20  O   UNL     1       6.444   5.384  17.970  0.00  0.00    +0.000 OA
BRANCH  20  21
ATOM     21  C   UNL     1       7.058   4.872  16.836  0.00  0.00    +0.000 C 
ATOM     22  O   UNL     1       8.107   4.245  16.923  0.00  0.00    +0.000 OA
ATOM     23  N   UNL     1       6.369   5.164  15.684  0.00  0.00    +0.000 N 
ATOM     24  H   UNL     1       5.580   5.772  15.873  0.00  0.00    +0.000 HD
BRANCH  23  25
ATOM     25  C   UNL     1       6.648   4.794  14.366  0.00  0.00    +0.000 A 
ATOM     26  C   UNL     1       7.659   5.378  13.606  0.00  0.00    +0.000 A 
ATOM     27  C   UNL     1       7.879   4.969  12.288  0.00  0.00    +0.000 A 
ATOM     28  C   UNL     1       7.088   3.973  11.721  0.00  0.00    +0.000 A 
ATOM     29  C   UNL     1       6.088   3.367  12.477  0.00  0.00    +0.000 A 
ATOM     30  C   UNL     1       5.877   3.769  13.798  0.00  0.00    +0.000 A 
ENDBRANCH  23  25
ENDBRANCH  20  21
ENDBRANCH   3  20
BRANCH   5  31
ATOM     31  C   UNL     1       4.437   1.611  19.677  0.00  0.00    +0.000 C 
BRANCH  31  32
ATOM     32  O   UNL     1       4.326   0.753  18.538  0.00  0.00    +0.000 OA
ATOM     33  H   UNL     1       3.452   0.894  18.132  0.00  0.00    +0.000 HD
ENDBRANCH  31  32
ENDBRANCH   5  31
TORSDOF 10
ENDMDL
MODEL 7
REMARK VINA RESULT:      -7.9      3.608      7.279
REMARK  Name = 
REMARK  12 active torsions:
REMARK  status: ('A' for Active; 'I' for Inactive)
REMARK    1  A    between atoms: C_1  and  C_2
REMARK    2  A    between atoms: C_2  and  C_3
REMARK    3  A    between atoms: C_2  and  C_4
REMARK    4  A    between atoms: C_4  and  C_5
REMARK    5  A    between atoms: N_7  and  C_8
REMARK    6  A    between atoms: N_10  and  O_11
REMARK    7  A    between atoms: O_11  and  C_12
REMARK    8  A    between atoms: N_14  and  C_15
REMARK    9  A    between atoms: C_22  and  C_23
REMARK   10  A    between atoms: C_23  and  O_24
REMARK   11  A    between atoms: C_25  and  O_26
REMARK   12  A    between atoms: C_27  and  O_28
REMARK                            x       y       z     vdW  Elec       q    Type
REMARK                         _______ _______ _______ _____ _____    ______ ____
ROOT
ATOM      1  C   UNL     1       4.259   4.460  17.398  0.00  0.00    +0.000 C 
ATOM      2  C   UNL     1       4.013   5.890  17.863  0.00  0.00    +0.000 C 
ATOM      3  N   UNL     1       2.781   6.252  18.047  0.00  0.00    +0.000 NA
ATOM      4  O   UNL     1       5.040   6.748  18.017  0.00  0.00    +0.000 OA
ATOM      5  C   UNL     1       6.398   6.381  17.664  0.00  0.00    +0.000 C 
ATOM      6  C   UNL     1       6.390   5.424  16.471  0.00  0.00    +0.000 C 
ATOM      7  C   UNL     1       5.680   4.145  16.923  0.00  0.00    +0.000 C 
ENDROOT
BRANCH   1  10
ATOM      8  C   UNL     1       2.593   2.791  18.158  0.00  0.00    +0.000 C 
ATOM      9  O   UNL     1       1.967   2.874  17.106  0.00  0.00    +0.000 OA
ATOM     10  N   UNL     1       3.736   3.517  18.388  0.00  0.00    +0.000 N 
ATOM     11  H   UNL     1       4.191   3.465  19.289  0.00  0.00    +0.000 HD
BRANCH   8  12
ATOM     12  C   UNL     1       2.190   1.858  19.283  0.00  0.00    +0.000 C 
BRANCH  12  14
ATOM     13  C   UNL     1       2.414   2.911  21.575  0.00  0.00    +0.000 C 
ATOM     14  C   UNL     1       1.457   2.561  20.435  0.00  0.00    +0.000 C 
ATOM     15  C   UNL     1       0.770   3.829  19.923  0.00  0.00    +0.000 C 
ENDBRANCH  12  14
ENDBRANCH   8  12
ENDBRANCH   1  10
BRANCH   6  16
ATOM     16  O   UNL     1       7.707   5.137  15.997  0.00  0.00    +0.000 OA
ATOM     17  H   UNL     1       8.323   5.802  16.357  0.00  0.00    +0.000 HD
ENDBRANCH   6  16
BRANCH   7  18
ATOM     18  O   UNL     1       5.630   3.189  15.851  0.00  0.00    +0.000 OA
ATOM     19  H   UNL     1       6.539   2.928  15.619  0.00  0.00    +0.000 HD
ENDBRANCH   7  18
BRANCH   3  20
ATOM     20  O   UNL     1       2.685   7.621  18.404  0.00  0.00    +0.000 OA
BRANCH  20  21
ATOM     21  C   UNL     1       2.040   7.779  19.623  0.00  0.00    +0.000 C 
ATOM     22  O   UNL     1       2.078   6.894  20.468  0.00  0.00    +0.000 OA
ATOM     23  N   UNL     1       1.388   8.985  19.724  0.00  0.00    +0.000 N 
ATOM     24  H   UNL     1       1.434   9.500  18.852  0.00  0.00    +0.000 HD
BRANCH  23  25
ATOM     25  C   UNL     1       0.668   9.516  20.797  0.00  0.00    +0.000 A 
ATOM     26  C   UNL     1       0.687   8.967  22.076  0.00  0.00    +0.000 A 
ATOM     27  C   UNL     1      -0.066   9.542  23.104  0.00  0.00    +0.000 A 
ATOM     28  C   UNL     1      -0.842  10.671  22.858  0.00  0.00    +0.000 A 
ATOM     29  C   UNL     1      -0.852  11.243  21.588  0.00  0.00    +0.000 A 
ATOM     30  C   UNL     1      -0.091  10.673  20.564  0.00  0.00    +0.000 A 
ENDBRANCH  23  25
ENDBRANCH  20  21
ENDBRANCH   3  20
BRANCH   5  31
ATOM     31  C   UNL     1       7.165   7.676  17.356  0.00  0.00    +0.000 C 
BRANCH  31  32
ATOM     32  O   UNL     1       8.240   7.872  18.279  0.00  0.00    +0.000 OA
ATOM     33  H   UNL     1       7.927   8.454  18.994  0.00  0.00    +0.000 HD
ENDBRANCH  31  32
ENDBRANCH   5  31
TORSDOF 10
ENDMDL
MODEL 8
REMARK VINA RESULT:      -7.9      4.049      6.941
REMARK  Name = 
REMARK  12 active torsions:
REMARK  status: ('A' for Active; 'I' for Inactive)
REMARK    1  A    between atoms: C_1  and  C_2
REMARK    2  A    between atoms: C_2  and  C_3
REMARK    3  A    between atoms: C_2  and  C_4
REMARK    4  A    between atoms: C_4  and  C_5
REMARK    5  A    between atoms: N_7  and  C_8
REMARK    6  A    between atoms: N_10  and  O_11
REMARK    7  A    between atoms: O_11  and  C_12
REMARK    8  A    between atoms: N_14  and  C_15
REMARK    9  A    between atoms: C_22  and  C_23
REMARK   10  A    between atoms: C_23  and  O_24
REMARK   11  A    between atoms: C_25  and  O_26
REMARK   12  A    between atoms: C_27  and  O_28
REMARK                            x       y       z     vdW  Elec       q    Type
REMARK                         _______ _______ _______ _____ _____    ______ ____
ROOT
ATOM      1  C   UNL     1       2.815   5.295  18.055  0.00  0.00    +0.000 C 
ATOM      2  C   UNL     1       4.269   4.960  18.360  0.00  0.00    +0.000 C 
ATOM      3  N   UNL     1       5.167   5.828  18.007  0.00  0.00    +0.000 NA
ATOM      4  O   UNL     1       4.599   3.780  18.921  0.00  0.00    +0.000 OA
ATOM      5  C   UNL     1       3.606   2.753  19.172  0.00  0.00    +0.000 C 
ATOM      6  C   UNL     1       2.521   2.796  18.096  0.00  0.00    +0.000 C 
ATOM      7  C   UNL     1       1.814   4.149  18.222  0.00  0.00    +0.000 C 
ENDROOT
BRANCH   1  10
ATOM      8  C   UNL     1       2.439   7.743  18.104  0.00  0.00    +0.000 C 
ATOM      9  O   UNL     1       2.740   7.856  16.919  0.00  0.00    +0.000 OA
ATOM     10  N   UNL     1       2.432   6.528  18.743  0.00  0.00    +0.000 N 
ATOM     11  H   UNL     1       2.236   6.484  19.734  0.00  0.00    +0.000 HD
BRANCH   8  12
ATOM     12  C   UNL     1       2.013   8.920  18.959  0.00  0.00    +0.000 C 
BRANCH  12  14
ATOM     13  C   UNL     1      -0.171  10.140  18.566  0.00  0.00    +0.000 C 
ATOM     14  C   UNL     1       1.302  10.031  18.171  0.00  0.00    +0.000 C 
ATOM     15  C   UNL     1       2.004  11.371  18.403  0.00  0.00    +0.000 C 
ENDBRANCH  12  14
ENDBRANCH   8  12
ENDBRANCH   1  10
BRANCH   6  16
ATOM     16  O   UNL     1       1.591   1.719  18.220  0.00  0.00    +0.000 OA
ATOM     17  H   UNL     1       1.312   1.439  17.328  0.00  0.00    +0.000 HD
ENDBRANCH   6  16
BRANCH   7  18
ATOM     18  O   UNL     1       0.773   4.268  17.237  0.00  0.00    +0.000 OA
ATOM     19  H   UNL     1       0.110   4.906  17.554  0.00  0.00    +0.000 HD
ENDBRANCH   7  18
BRANCH   3  20
ATOM     20  O   UNL     1       6.479   5.364  18.277  0.00  0.00    +0.000 OA
BRANCH  20  21
ATOM     21  C   UNL     1       7.086   4.879  17.126  0.00  0.00    +0.000 C 
ATOM     22  O   UNL     1       8.137   4.254  17.190  0.00  0.00    +0.000 OA
ATOM     23  N   UNL     1       6.385   5.193  15.986  0.00  0.00    +0.000 N 
ATOM     24  H   UNL     1       5.595   5.794  16.196  0.00  0.00    +0.000 HD
BRANCH  23  25
ATOM     25  C   UNL     1       6.652   4.853  14.658  0.00  0.00    +0.000 A 
ATOM     26  C   UNL     1       7.657   5.455  13.903  0.00  0.00    +0.000 A 
ATOM     27  C   UNL     1       7.866   5.076  12.574  0.00  0.00    +0.000 A 
ATOM     28  C   UNL     1       7.072   4.092  11.992  0.00  0.00    +0.000 A 
ATOM     29  C   UNL     1       6.078   3.468  12.743  0.00  0.00    +0.000 A 
ATOM     30  C   UNL     1       5.877   3.841  14.074  0.00  0.00    +0.000 A 
ENDBRANCH  23  25
ENDBRANCH  20  21
ENDBRANCH   3  20
BRANCH   5  31
ATOM     31  C   UNL     1       4.333   1.400  19.201  0.00  0.00    +0.000 C 
BRANCH  31  32
ATOM     32  O   UNL     1       5.343   1.377  20.213  0.00  0.00    +0.000 OA
ATOM     33  H   UNL     1       6.174   1.704  19.823  0.00  0.00    +0.000 HD
ENDBRANCH  31  32
ENDBRANCH   5  31
TORSDOF 10
ENDMDL
MODEL 9
REMARK VINA RESULT:      -7.8      4.020      7.345
REMARK  Name = 
REMARK  12 active torsions:
REMARK  status: ('A' for Active; 'I' for Inactive)
REMARK    1  A    between atoms: C_1  and  C_2
REMARK    2  A    between atoms: C_2  and  C_3
REMARK    3  A    between atoms: C_2  and  C_4
REMARK    4  A    between atoms: C_4  and  C_5
REMARK    5  A    between atoms: N_7  and  C_8
REMARK    6  A    between atoms: N_10  and  O_11
REMARK    7  A    between atoms: O_11  and  C_12
REMARK    8  A    between atoms: N_14  and  C_15
REMARK    9  A    between atoms: C_22  and  C_23
REMARK   10  A    between atoms: C_23  and  O_24
REMARK   11  A    between atoms: C_25  and  O_26
REMARK   12  A    between atoms: C_27  and  O_28
REMARK                            x       y       z     vdW  Elec       q    Type
REMARK                         _______ _______ _______ _____ _____    ______ ____
ROOT
ATOM      1  C   UNL     1       2.852   5.385  18.130  0.00  0.00    +0.000 C 
ATOM      2  C   UNL     1       4.316   5.056  18.395  0.00  0.00    +0.000 C 
ATOM      3  N   UNL     1       5.205   5.880  17.932  0.00  0.00    +0.000 NA
ATOM      4  O   UNL     1       4.660   3.921  19.035  0.00  0.00    +0.000 OA
ATOM      5  C   UNL     1       3.669   2.932  19.415  0.00  0.00    +0.000 C 
ATOM      6  C   UNL     1       2.536   2.903  18.389  0.00  0.00    +0.000 C 
ATOM      7  C   UNL     1       1.849   4.270  18.436  0.00  0.00    +0.000 C 
ENDROOT
BRANCH   1  10
ATOM      8  C   UNL     1       2.085   6.775  20.032  0.00  0.00    +0.000 C 
ATOM      9  O   UNL     1       1.986   5.795  20.764  0.00  0.00    +0.000 OA
ATOM     10  N   UNL     1       2.515   6.676  18.732  0.00  0.00    +0.000 N 
ATOM     11  H   UNL     1       2.527   7.498  18.143  0.00  0.00    +0.000 HD
BRANCH   8  12
ATOM     12  C   UNL     1       1.781   8.184  20.501  0.00  0.00    +0.000 C 
BRANCH  12  14
ATOM     13  C   UNL     1      -0.270   8.529  21.947  0.00  0.00    +0.000 C 
ATOM     14  C   UNL     1       0.282   8.518  20.520  0.00  0.00    +0.000 C 
ATOM     15  C   UNL     1       0.038   9.876  19.857  0.00  0.00    +0.000 C 
ENDBRANCH  12  14
ENDBRANCH   8  12
ENDBRANCH   1  10
BRANCH   6  16
ATOM     16  O   UNL     1       1.601   1.852  18.643  0.00  0.00    +0.000 OA
ATOM     17  H   UNL     1       2.093   1.026  18.807  0.00  0.00    +0.000 HD
ENDBRANCH   6  16
BRANCH   7  18
ATOM     18  O   UNL     1       0.765   4.323  17.493  0.00  0.00    +0.000 OA
ATOM     19  H   UNL     1       1.130   4.292  16.591  0.00  0.00    +0.000 HD
ENDBRANCH   7  18
BRANCH   3  20
ATOM     20  O   UNL     1       6.524   5.421  18.179  0.00  0.00    +0.000 OA
BRANCH  20  21
ATOM     21  C   UNL     1       7.087   4.875  17.033  0.00  0.00    +0.000 C 
ATOM     22  O   UNL     1       8.112   4.207  17.099  0.00  0.00    +0.000 OA
ATOM     23  N   UNL     1       6.380   5.187  15.896  0.00  0.00    +0.000 N 
ATOM     24  H   UNL     1       5.622   5.828  16.101  0.00  0.00    +0.000 HD
BRANCH  23  25
ATOM     25  C   UNL     1       6.608   4.795  14.575  0.00  0.00    +0.000 A 
ATOM     26  C   UNL     1       5.883   3.791  13.939  0.00  0.00    +0.000 A 
ATOM     27  C   UNL     1       6.169   3.440  12.617  0.00  0.00    +0.000 A 
ATOM     28  C   UNL     1       7.183   4.092  11.922  0.00  0.00    +0.000 A 
ATOM     29  C   UNL     1       7.902   5.113  12.540  0.00  0.00    +0.000 A 
ATOM     30  C   UNL     1       7.607   5.470  13.858  0.00  0.00    +0.000 A 
ENDBRANCH  23  25
ENDBRANCH  20  21
ENDBRANCH   3  20
BRANCH   5  31
ATOM     31  C   UNL     1       4.383   1.576  19.522  0.00  0.00    +0.000 C 
BRANCH  31  32
ATOM     32  O   UNL     1       4.242   0.821  18.315  0.00  0.00    +0.000 OA
ATOM     33  H   UNL     1       4.687  -0.037  18.437  0.00  0.00    +0.000 HD
ENDBRANCH  31  32
ENDBRANCH   5  31
TORSDOF 10
ENDMDL
