MODEL 1
REMARK VINA RESULT:      -7.6      0.000      0.000
REMARK  Name = 
REMARK  5 active torsions:
REMARK  status: ('A' for Active; 'I' for Inactive)
REMARK    1  A    between atoms: C_1  and  N_2
REMARK    2  A    between atoms: N_8  and  C_9
REMARK    3  A    between atoms: C_9  and  C_10
REMARK    4  A    between atoms: C_15  and  C_16
REMARK    5  A    between atoms: N_26  and  C_27
REMARK                            x       y       z     vdW  Elec       q    Type
REMARK                         _______ _______ _______ _____ _____    ______ ____
ROOT
ATOM      1  C   UNL     1       0.574  11.569  19.114  0.00  0.00    +0.000 C 
ATOM      2  O   UNL     1       1.588  11.783  19.775  0.00  0.00    +0.000 OA
ATOM      3  N   UNL     1       0.129  10.313  18.716  0.00  0.00    +0.000 N 
ATOM      4  C   UNL     1       0.944   9.241  19.002  0.00  0.00    +0.000 A 
ATOM      5  N   UNL     1       1.515   8.497  18.090  0.00  0.00    +0.000 NA
ATOM      6  C   UNL     1       2.283   7.525  18.722  0.00  0.00    +0.000 A 
ATOM      7  C   UNL     1       2.123   7.459  20.095  0.00  0.00    +0.000 A 
ATOM      8  S   UNL     1       1.097   8.735  20.622  0.00  0.00    +0.000 S 
ATOM      9  H   UNL     1      -0.234  10.265  17.773  0.00  0.00    +0.000 HD
ENDROOT
BRANCH   6  10
ATOM     10  C   UNL     1       3.229   6.702  17.976  0.00  0.00    +0.000 A 
ATOM     11  C   UNL     1       3.080   5.306  17.994  0.00  0.00    +0.000 A 
ATOM     12  C   UNL     1       3.933   4.486  17.249  0.00  0.00    +0.000 A 
ATOM     13  C   UNL     1       4.949   5.058  16.488  0.00  0.00    +0.000 A 
ATOM     14 CL   UNL     1       6.000   4.052  15.570  0.00  0.00    +0.000 Cl
ATOM     15  C   UNL     1       5.117   6.441  16.465  0.00  0.00    +0.000 A 
ATOM     16  C   UNL     1       4.258   7.262  17.205  0.00  0.00    +0.000 A 
ENDBRANCH   6  10
BRANCH   1  17
ATOM     17  C   UNL     1      -0.301  12.714  18.633  0.00  0.00    +0.000 C 
BRANCH  17  25
ATOM     18  C   UNL     1      -6.774  11.591  20.093  0.00  0.00    +0.000 C 
ATOM     19  N   UNL     1      -5.379  11.929  19.878  0.00  0.00    +0.000 N 
ATOM     20  C   UNL     1      -4.721  12.637  20.885  0.00  0.00    +0.000 A 
ATOM     21  O   UNL     1      -5.253  12.990  21.934  0.00  0.00    +0.000 OA
ATOM     22  C   UNL     1      -3.333  12.908  20.585  0.00  0.00    +0.000 A 
ATOM     23  N   UNL     1      -2.436  13.566  21.384  0.00  0.00    +0.000 NA
ATOM     24  C   UNL     1      -1.318  13.558  20.705  0.00  0.00    +0.000 A 
ATOM     25  N   UNL     1      -1.451  12.906  19.493  0.00  0.00    +0.000 N 
ATOM     26  C   UNL     1      -2.757  12.495  19.401  0.00  0.00    +0.000 A 
ATOM     27  N   UNL     1      -3.461  11.813  18.414  0.00  0.00    +0.000 N 
ATOM     28  C   UNL     1      -2.972  11.364  17.126  0.00  0.00    +0.000 C 
ATOM     29  C   UNL     1      -4.815  11.495  18.671  0.00  0.00    +0.000 A 
ATOM     30  O   UNL     1      -5.483  10.848  17.856  0.00  0.00    +0.000 OA
ENDBRANCH  17  25
ENDBRANCH   1  17
TORSDOF 3
ENDMDL
MODEL 2
REMARK VINA RESULT:      -7.5      0.908      1.201
REMARK  Name = 
REMARK  5 active torsions:
REMARK  status: ('A' for Active; 'I' for Inactive)
REMARK    1  A    between atoms: C_1  and  N_2
REMARK    2  A    between atoms: N_8  and  C_9
REMARK    3  A    between atoms: C_9  and  C_10
REMARK    4  A    between atoms: C_15  and  C_16
REMARK    5  A    between atoms: N_26  and  C_27
REMARK                            x       y       z     vdW  Elec       q    Type
REMARK                         _______ _______ _______ _____ _____    ______ ____
ROOT
ATOM      1  C   UNL     1       0.533  11.582  20.163  0.00  0.00    +0.000 C 
ATOM      2  O   UNL     1       1.380  11.633  21.052  0.00  0.00    +0.000 OA
ATOM      3  N   UNL     1       0.148  10.427  19.491  0.00  0.00    +0.000 N 
ATOM      4  C   UNL     1       0.843   9.274  19.778  0.00  0.00    +0.000 A 
ATOM      5  N   UNL     1       1.579   8.631  18.908  0.00  0.00    +0.000 NA
ATOM      6  C   UNL     1       2.153   7.531  19.535  0.00  0.00    +0.000 A 
ATOM      7  C   UNL     1       1.689   7.282  20.814  0.00  0.00    +0.000 A 
ATOM      8  S   UNL     1       0.614   8.534  21.296  0.00  0.00    +0.000 S 
ATOM      9  H   UNL     1       0.003  10.537  18.496  0.00  0.00    +0.000 HD
ENDROOT
BRANCH   6  10
ATOM     10  C   UNL     1       3.215   6.762  18.893  0.00  0.00    +0.000 A 
ATOM     11  C   UNL     1       3.705   7.185  17.647  0.00  0.00    +0.000 A 
ATOM     12  C   UNL     1       4.758   6.506  17.025  0.00  0.00    +0.000 A 
ATOM     13  C   UNL     1       5.321   5.392  17.642  0.00  0.00    +0.000 A 
ATOM     14 CL   UNL     1       6.617   4.556  16.879  0.00  0.00    +0.000 Cl
ATOM     15  C   UNL     1       4.841   4.954  18.874  0.00  0.00    +0.000 A 
ATOM     16  C   UNL     1       3.792   5.638  19.500  0.00  0.00    +0.000 A 
ENDBRANCH   6  10
BRANCH   1  17
ATOM     17  C   UNL     1      -0.174  12.839  19.686  0.00  0.00    +0.000 C 
BRANCH  17  25
ATOM     18  C   UNL     1      -6.793  11.621  19.614  0.00  0.00    +0.000 C 
ATOM     19  N   UNL     1      -5.390  11.972  19.733  0.00  0.00    +0.000 N 
ATOM     20  C   UNL     1      -4.978  12.611  20.904  0.00  0.00    +0.000 A 
ATOM     21  O   UNL     1      -5.732  12.894  21.831  0.00  0.00    +0.000 OA
ATOM     22  C   UNL     1      -3.563  12.902  20.934  0.00  0.00    +0.000 A 
ATOM     23  N   UNL     1      -2.872  13.505  21.952  0.00  0.00    +0.000 NA
ATOM     24  C   UNL     1      -1.633  13.542  21.535  0.00  0.00    +0.000 A 
ATOM     25  N   UNL     1      -1.487  12.973  20.283  0.00  0.00    +0.000 N 
ATOM     26  C   UNL     1      -2.735  12.569  19.880  0.00  0.00    +0.000 A 
ATOM     27  N   UNL     1      -3.197  11.955  18.721  0.00  0.00    +0.000 N 
ATOM     28  C   UNL     1      -2.431  11.593  17.544  0.00  0.00    +0.000 C 
ATOM     29  C   UNL     1      -4.569  11.620  18.653  0.00  0.00    +0.000 A 
ATOM     30  O   UNL     1      -5.034  11.029  17.671  0.00  0.00    +0.000 OA
ENDBRANCH  17  25
ENDBRANCH   1  17
TORSDOF 3
ENDMDL
MODEL 3
REMARK VINA RESULT:      -7.3      0.964      2.409
REMARK  Name = 
REMARK  5 active torsions:
REMARK  status: ('A' for Active; 'I' for Inactive)
REMARK    1  A    between atoms: C_1  and  N_2
REMARK    2  A    between atoms: N_8  and  C_9
REMARK    3  A    between atoms: C_9  and  C_10
REMARK    4  A    between atoms: C_15  and  C_16
REMARK    5  A    between atoms: N_26  and  C_27
REMARK                            x       y       z     vdW  Elec       q    Type
REMARK                         _______ _______ _______ _____ _____    ______ ____
ROOT
ATOM      1  C   UNL     1       0.164  11.521  19.047  0.00  0.00    +0.000 C 
ATOM      2  O   UNL     1       1.072  11.879  19.795  0.00  0.00    +0.000 OA
ATOM      3  N   UNL     1      -0.132  10.202  18.724  0.00  0.00    +0.000 N 
ATOM      4  C   UNL     1       0.721   9.233  19.203  0.00  0.00    +0.000 A 
ATOM      5  N   UNL     1       1.453   8.465  18.438  0.00  0.00    +0.000 NA
ATOM      6  C   UNL     1       2.210   7.622  19.244  0.00  0.00    +0.000 A 
ATOM      7  C   UNL     1       1.891   7.663  20.590  0.00  0.00    +0.000 A 
ATOM      8  S   UNL     1       0.716   8.886  20.871  0.00  0.00    +0.000 S 
ATOM      9  H   UNL     1      -0.374  10.040  17.756  0.00  0.00    +0.000 HD
ENDROOT
BRANCH   6  10
ATOM     10  C   UNL     1       3.300   6.823  18.693  0.00  0.00    +0.000 A 
ATOM     11  C   UNL     1       3.895   7.221  17.486  0.00  0.00    +0.000 A 
ATOM     12  C   UNL     1       4.976   6.513  16.953  0.00  0.00    +0.000 A 
ATOM     13  C   UNL     1       5.463   5.392  17.620  0.00  0.00    +0.000 A 
ATOM     14 CL   UNL     1       6.793   4.518  16.967  0.00  0.00    +0.000 Cl
ATOM     15  C   UNL     1       4.878   4.977  18.815  0.00  0.00    +0.000 A 
ATOM     16  C   UNL     1       3.801   5.691  19.352  0.00  0.00    +0.000 A 
ENDBRANCH   6  10
BRANCH   1  17
ATOM     17  C   UNL     1      -0.730  12.540  18.362  0.00  0.00    +0.000 C 
BRANCH  17  25
ATOM     18  C   UNL     1      -7.035  11.896  20.628  0.00  0.00    +0.000 C 
ATOM     19  N   UNL     1      -5.707  11.942  20.042  0.00  0.00    +0.000 N 
ATOM     20  C   UNL     1      -5.549  11.427  18.754  0.00  0.00    +0.000 A 
ATOM     21  O   UNL     1      -6.463  10.939  18.094  0.00  0.00    +0.000 OA
ATOM     22  C   UNL     1      -4.198  11.536  18.253  0.00  0.00    +0.000 A 
ATOM     23  N   UNL     1      -3.745  11.135  17.024  0.00  0.00    +0.000 NA
ATOM     24  C   UNL     1      -2.474  11.443  17.022  0.00  0.00    +0.000 A 
ATOM     25  N   UNL     1      -2.082  12.044  18.204  0.00  0.00    +0.000 N 
ATOM     26  C   UNL     1      -3.189  12.095  19.013  0.00  0.00    +0.000 A 
ATOM     27  N   UNL     1      -3.390  12.572  20.304  0.00  0.00    +0.000 N 
ATOM     28  C   UNL     1      -2.405  13.142  21.201  0.00  0.00    +0.000 C 
ATOM     29  C   UNL     1      -4.702  12.517  20.830  0.00  0.00    +0.000 A 
ATOM     30  O   UNL     1      -4.958  12.969  21.952  0.00  0.00    +0.000 OA
ENDBRANCH  17  25
ENDBRANCH   1  17
TORSDOF 3
ENDMDL
MODEL 4
REMARK VINA RESULT:      -7.3      1.366      1.705
REMARK  Name = 
REMARK  5 active torsions:
REMARK  status: ('A' for Active; 'I' for Inactive)
REMARK    1  A    between atoms: C_1  and  N_2
REMARK    2  A    between atoms: N_8  and  C_9
REMARK    3  A    between atoms: C_9  and  C_10
REMARK    4  A    between atoms: C_15  and  C_16
REMARK    5  A    between atoms: N_26  and  C_27
REMARK                            x       y       z     vdW  Elec       q    Type
REMARK                         _______ _______ _______ _____ _____    ______ ____
ROOT
ATOM      1  C   UNL     1      -0.532  12.373  20.336  0.00  0.00    +0.000 C 
ATOM      2  O   UNL     1       0.537  12.701  20.845  0.00  0.00    +0.000 OA
ATOM      3  N   UNL     1      -0.933  11.065  20.092  0.00  0.00    +0.000 N 
ATOM      4  C   UNL     1      -0.018  10.070  20.351  0.00  0.00    +0.000 A 
ATOM      5  N   UNL     1       0.489   9.289  19.433  0.00  0.00    +0.000 NA
ATOM      6  C   UNL     1       1.393   8.420  20.033  0.00  0.00    +0.000 A 
ATOM      7  C   UNL     1       1.406   8.458  21.416  0.00  0.00    +0.000 A 
ATOM      8  S   UNL     1       0.366   9.710  21.972  0.00  0.00    +0.000 S 
ATOM      9  H   UNL     1      -1.404  10.917  19.209  0.00  0.00    +0.000 HD
ENDROOT
BRANCH   6  10
ATOM     10  C   UNL     1       2.296   7.596  19.237  0.00  0.00    +0.000 A 
ATOM     11  C   UNL     1       2.568   6.283  19.654  0.00  0.00    +0.000 A 
ATOM     12  C   UNL     1       3.385   5.444  18.890  0.00  0.00    +0.000 A 
ATOM     13  C   UNL     1       3.946   5.918  17.707  0.00  0.00    +0.000 A 
ATOM     14 CL   UNL     1       4.952   4.889  16.765  0.00  0.00    +0.000 Cl
ATOM     15  C   UNL     1       3.695   7.221  17.283  0.00  0.00    +0.000 A 
ATOM     16  C   UNL     1       2.870   8.058  18.044  0.00  0.00    +0.000 A 
ENDBRANCH   6  10
BRANCH   1  17
ATOM     17  C   UNL     1      -1.536  13.421  19.885  0.00  0.00    +0.000 C 
BRANCH  17  25
ATOM     18  C   UNL     1      -7.796  11.029  20.503  0.00  0.00    +0.000 C 
ATOM     19  N   UNL     1      -6.474  11.628  20.476  0.00  0.00    +0.000 N 
ATOM     20  C   UNL     1      -6.062  12.339  21.604  0.00  0.00    +0.000 A 
ATOM     21  O   UNL     1      -6.751  12.488  22.610  0.00  0.00    +0.000 OA
ATOM     22  C   UNL     1      -4.727  12.881  21.487  0.00  0.00    +0.000 A 
ATOM     23  N   UNL     1      -4.052  13.606  22.433  0.00  0.00    +0.000 NA
ATOM     24  C   UNL     1      -2.891  13.863  21.887  0.00  0.00    +0.000 A 
ATOM     25  N   UNL     1      -2.780  13.320  20.620  0.00  0.00    +0.000 N 
ATOM     26  C   UNL     1      -3.970  12.695  20.347  0.00  0.00    +0.000 A 
ATOM     27  N   UNL     1      -4.435  11.999  19.236  0.00  0.00    +0.000 N 
ATOM     28  C   UNL     1      -3.746  11.773  17.981  0.00  0.00    +0.000 C 
ATOM     29  C   UNL     1      -5.724  11.422  19.311  0.00  0.00    +0.000 A 
ATOM     30  O   UNL     1      -6.176  10.750  18.377  0.00  0.00    +0.000 OA
ENDBRANCH  17  25
ENDBRANCH   1  17
TORSDOF 3
ENDMDL
MODEL 5
REMARK VINA RESULT:      -7.2      1.199      2.565
REMARK  Name = 
REMARK  5 active torsions:
REMARK  status: ('A' for Active; 'I' for Inactive)
REMARK    1  A    between atoms: C_1  and  N_2
REMARK    2  A    between atoms: N_8  and  C_9
REMARK    3  A    between atoms: C_9  and  C_10
REMARK    4  A    between atoms: C_15  and  C_16
REMARK    5  A    between atoms: N_26  and  C_27
REMARK                            x       y       z     vdW  Elec       q    Type
REMARK                         _______ _______ _______ _____ _____    ______ ____
ROOT
ATOM      1  C   UNL     1       0.759  11.331  19.139  0.00  0.00    +0.000 C 
ATOM      2  O   UNL     1       1.765  11.509  19.823  0.00  0.00    +0.000 OA
ATOM      3  N   UNL     1       0.318  10.098  18.672  0.00  0.00    +0.000 N 
ATOM      4  C   UNL     1       1.127   9.010  18.914  0.00  0.00    +0.000 A 
ATOM      5  N   UNL     1       1.709   8.312  17.974  0.00  0.00    +0.000 NA
ATOM      6  C   UNL     1       2.467   7.308  18.567  0.00  0.00    +0.000 A 
ATOM      7  C   UNL     1       2.289   7.174  19.932  0.00  0.00    +0.000 A 
ATOM      8  S   UNL     1       1.258   8.423  20.509  0.00  0.00    +0.000 S 
ATOM      9  H   UNL     1      -0.032  10.098  17.724  0.00  0.00    +0.000 HD
ENDROOT
BRANCH   6  10
ATOM     10  C   UNL     1       3.422   6.521  17.792  0.00  0.00    +0.000 A 
ATOM     11  C   UNL     1       3.307   5.122  17.787  0.00  0.00    +0.000 A 
ATOM     12  C   UNL     1       4.169   4.337  17.015  0.00  0.00    +0.000 A 
ATOM     13  C   UNL     1       5.159   4.946  16.251  0.00  0.00    +0.000 A 
ATOM     14 CL   UNL     1       6.221   3.982  15.300  0.00  0.00    +0.000 Cl
ATOM     15  C   UNL     1       5.293   6.333  16.250  0.00  0.00    +0.000 A 
ATOM     16  C   UNL     1       4.426   7.120  17.017  0.00  0.00    +0.000 A 
ENDBRANCH   6  10
BRANCH   1  17
ATOM     17  C   UNL     1      -0.107  12.501  18.705  0.00  0.00    +0.000 C 
BRANCH  17  25
ATOM     18  C   UNL     1      -4.625  13.620  23.567  0.00  0.00    +0.000 C 
ATOM     19  N   UNL     1      -3.744  13.297  22.459  0.00  0.00    +0.000 N 
ATOM     20  C   UNL     1      -4.320  12.744  21.314  0.00  0.00    +0.000 A 
ATOM     21  O   UNL     1      -5.521  12.514  21.193  0.00  0.00    +0.000 OA
ATOM     22  C   UNL     1      -3.366  12.476  20.262  0.00  0.00    +0.000 A 
ATOM     23  N   UNL     1      -3.635  11.952  19.025  0.00  0.00    +0.000 NA
ATOM     24  C   UNL     1      -2.474  11.904  18.425  0.00  0.00    +0.000 A 
ATOM     25  N   UNL     1      -1.455  12.389  19.223  0.00  0.00    +0.000 N 
ATOM     26  C   UNL     1      -2.021  12.748  20.421  0.00  0.00    +0.000 A 
ATOM     27  N   UNL     1      -1.490  13.276  21.592  0.00  0.00    +0.000 N 
ATOM     28  C   UNL     1      -0.100  13.568  21.882  0.00  0.00    +0.000 C 
ATOM     29  C   UNL     1      -2.385  13.587  22.642  0.00  0.00    +0.000 A 
ATOM     30  O   UNL     1      -1.984  14.104  23.691  0.00  0.00    +0.000 OA
ENDBRANCH  17  25
ENDBRANCH   1  17
TORSDOF 3
ENDMDL
MODEL 6
REMARK VINA RESULT:      -7.1      0.994      2.244
REMARK  Name = 
REMARK  5 active torsions:
REMARK  status: ('A' for Active; 'I' for Inactive)
REMARK    1  A    between atoms: C_1  and  N_2
REMARK    2  A    between atoms: N_8  and  C_9
REMARK    3  A    between atoms: C_9  and  C_10
REMARK    4  A    between atoms: C_15  and  C_16
REMARK    5  A    between atoms: N_26  and  C_27
REMARK                            x       y       z     vdW  Elec       q    Type
REMARK                         _______ _______ _______ _____ _____    ______ ____
ROOT
ATOM      1  C   UNL     1       0.592  11.345  19.315  0.00  0.00    +0.000 C 
ATOM      2  O   UNL     1       1.411  11.527  20.213  0.00  0.00    +0.000 OA
ATOM      3  N   UNL     1       0.328  10.122  18.710  0.00  0.00    +0.000 N 
ATOM      4  C   UNL     1       1.117   9.056  19.081  0.00  0.00    +0.000 A 
ATOM      5  N   UNL     1       1.927   8.431  18.265  0.00  0.00    +0.000 NA
ATOM      6  C   UNL     1       2.584   7.429  18.969  0.00  0.00    +0.000 A 
ATOM      7  C   UNL     1       2.116   7.217  20.254  0.00  0.00    +0.000 A 
ATOM      8  S   UNL     1       0.922   8.392  20.638  0.00  0.00    +0.000 S 
ATOM      9  H   UNL     1       0.196  10.157  17.708  0.00  0.00    +0.000 HD
ENDROOT
BRANCH   6  10
ATOM     10  C   UNL     1       3.725   6.722  18.395  0.00  0.00    +0.000 A 
ATOM     11  C   UNL     1       4.321   5.682  19.126  0.00  0.00    +0.000 A 
ATOM     12  C   UNL     1       5.381   4.946  18.588  0.00  0.00    +0.000 A 
ATOM     13  C   UNL     1       5.860   5.253  17.318  0.00  0.00    +0.000 A 
ATOM     14 CL   UNL     1       7.164   4.349  16.653  0.00  0.00    +0.000 Cl
ATOM     15  C   UNL     1       5.287   6.288  16.582  0.00  0.00    +0.000 A 
ATOM     16  C   UNL     1       4.220   7.020  17.118  0.00  0.00    +0.000 A 
ENDBRANCH   6  10
BRANCH   1  17
ATOM     17  C   UNL     1      -0.214  12.501  18.748  0.00  0.00    +0.000 C 
BRANCH  17  25
ATOM     18  C   UNL     1      -6.401  12.480  21.399  0.00  0.00    +0.000 C 
ATOM     19  N   UNL     1      -5.115  12.401  20.728  0.00  0.00    +0.000 N 
ATOM     20  C   UNL     1      -5.099  11.942  19.410  0.00  0.00    +0.000 A 
ATOM     21  O   UNL     1      -6.104  11.600  18.791  0.00  0.00    +0.000 OA
ATOM     22  C   UNL     1      -3.778  11.918  18.825  0.00  0.00    +0.000 A 
ATOM     23  N   UNL     1      -3.453  11.533  17.552  0.00  0.00    +0.000 NA
ATOM     24  C   UNL     1      -2.156  11.690  17.478  0.00  0.00    +0.000 A 
ATOM     25  N   UNL     1      -1.623  12.177  18.658  0.00  0.00    +0.000 N 
ATOM     26  C   UNL     1      -2.665  12.313  19.541  0.00  0.00    +0.000 A 
ATOM     27  N   UNL     1      -2.727  12.740  20.863  0.00  0.00    +0.000 N 
ATOM     28  C   UNL     1      -1.628  13.142  21.718  0.00  0.00    +0.000 C 
ATOM     29  C   UNL     1      -4.001  12.812  21.473  0.00  0.00    +0.000 A 
ATOM     30  O   UNL     1      -4.132  13.229  22.629  0.00  0.00    +0.000 OA
ENDBRANCH  17  25
ENDBRANCH   1  17
TORSDOF 3
ENDMDL
MODEL 7
REMARK VINA RESULT:      -7.0      2.980      4.303
REMARK  Name = 
REMARK  5 active torsions:
REMARK  status: ('A' for Active; 'I' for Inactive)
REMARK    1  A    between atoms: C_1  and  N_2
REMARK    2  A    between atoms: N_8  and  C_9
REMARK    3  A    between atoms: C_9  and  C_10
REMARK    4  A    between atoms: C_15  and  C_16
REMARK    5  A    between atoms: N_26  and  C_27
REMARK                            x       y       z     vdW  Elec       q    Type
REMARK                         _______ _______ _______ _____ _____    ______ ____
ROOT
ATOM      1  C   UNL     1      -0.705  10.444  19.315  0.00  0.00    +0.000 C 
ATOM      2  O   UNL     1      -1.002  10.170  18.154  0.00  0.00    +0.000 OA
ATOM      3  N   UNL     1       0.463  10.046  19.956  0.00  0.00    +0.000 N 
ATOM      4  C   UNL     1       1.298   9.197  19.265  0.00  0.00    +0.000 A 
ATOM      5  N   UNL     1       1.567   7.973  19.642  0.00  0.00    +0.000 NA
ATOM      6  C   UNL     1       2.420   7.395  18.709  0.00  0.00    +0.000 A 
ATOM      7  C   UNL     1       2.907   8.264  17.748  0.00  0.00    +0.000 A 
ATOM      8  S   UNL     1       2.170   9.806  17.934  0.00  0.00    +0.000 S 
ATOM      9  H   UNL     1       0.347   9.754  20.917  0.00  0.00    +0.000 HD
ENDROOT
BRANCH   6  10
ATOM     10  C   UNL     1       2.702   5.963  18.724  0.00  0.00    +0.000 A 
ATOM     11  C   UNL     1       1.899   5.102  17.959  0.00  0.00    +0.000 A 
ATOM     12  C   UNL     1       2.170   3.731  17.906  0.00  0.00    +0.000 A 
ATOM     13  C   UNL     1       3.241   3.210  18.627  0.00  0.00    +0.000 A 
ATOM     14 CL   UNL     1       3.577   1.525  18.563  0.00  0.00    +0.000 Cl
ATOM     15  C   UNL     1       4.042   4.049  19.399  0.00  0.00    +0.000 A 
ATOM     16  C   UNL     1       3.775   5.423  19.447  0.00  0.00    +0.000 A 
ENDBRANCH   6  10
BRANCH   1  17
ATOM     17  C   UNL     1      -1.644  11.255  20.191  0.00  0.00    +0.000 C 
BRANCH  17  25
ATOM     18  C   UNL     1       1.780  17.012  20.844  0.00  0.00    +0.000 C 
ATOM     19  N   UNL     1       1.081  15.740  20.832  0.00  0.00    +0.000 N 
ATOM     20  C   UNL     1       0.843  15.120  22.059  0.00  0.00    +0.000 A 
ATOM     21  O   UNL     1       1.192  15.585  23.141  0.00  0.00    +0.000 OA
ATOM     22  C   UNL     1       0.126  13.870  21.943  0.00  0.00    +0.000 A 
ATOM     23  N   UNL     1      -0.261  13.049  22.970  0.00  0.00    +0.000 NA
ATOM     24  C   UNL     1      -0.881  12.057  22.385  0.00  0.00    +0.000 A 
ATOM     25  N   UNL     1      -0.923  12.206  21.011  0.00  0.00    +0.000 N 
ATOM     26  C   UNL     1      -0.260  13.370  20.715  0.00  0.00    +0.000 A 
ATOM     27  N   UNL     1       0.023  14.013  19.515  0.00  0.00    +0.000 N 
ATOM     28  C   UNL     1      -0.300  13.568  18.174  0.00  0.00    +0.000 C 
ATOM     29  C   UNL     1       0.695  15.256  19.574  0.00  0.00    +0.000 A 
ATOM     30  O   UNL     1       0.933  15.902  18.547  0.00  0.00    +0.000 OA
ENDBRANCH  17  25
ENDBRANCH   1  17
TORSDOF 3
ENDMDL
MODEL 8
REMARK VINA RESULT:      -7.0      1.568      2.339
REMARK  Name = 
REMARK  5 active torsions:
REMARK  status: ('A' for Active; 'I' for Inactive)
REMARK    1  A    between atoms: C_1  and  N_2
REMARK    2  A    between atoms: N_8  and  C_9
REMARK    3  A    between atoms: C_9  and  C_10
REMARK    4  A    between atoms: C_15  and  C_16
REMARK    5  A    between atoms: N_26  and  C_27
REMARK                            x       y       z     vdW  Elec       q    Type
REMARK                         _______ _______ _______ _____ _____    ______ ____
ROOT
ATOM      1  C   UNL     1       0.834  12.046  18.874  0.00  0.00    +0.000 C 
ATOM      2  O   UNL     1       1.803  12.170  19.620  0.00  0.00    +0.000 OA
ATOM      3  N   UNL     1       0.303  10.833  18.448  0.00  0.00    +0.000 N 
ATOM      4  C   UNL     1       0.979   9.691  18.813  0.00  0.00    +0.000 A 
ATOM      5  N   UNL     1       1.550   8.879  17.961  0.00  0.00    +0.000 NA
ATOM      6  C   UNL     1       2.160   7.847  18.665  0.00  0.00    +0.000 A 
ATOM      7  C   UNL     1       1.876   7.820  20.019  0.00  0.00    +0.000 A 
ATOM      8  S   UNL     1       0.940   9.199  20.444  0.00  0.00    +0.000 S 
ATOM      9  H   UNL     1       0.020  10.805  17.478  0.00  0.00    +0.000 HD
ENDROOT
BRANCH   6  10
ATOM     10  C   UNL     1       3.081   6.923  18.011  0.00  0.00    +0.000 A 
ATOM     11  C   UNL     1       2.836   5.543  18.096  0.00  0.00    +0.000 A 
ATOM     12  C   UNL     1       3.664   4.628  17.438  0.00  0.00    +0.000 A 
ATOM     13  C   UNL     1       4.751   5.088  16.700  0.00  0.00    +0.000 A 
ATOM     14 CL   UNL     1       5.772   3.965  15.889  0.00  0.00    +0.000 Cl
ATOM     15  C   UNL     1       5.014   6.454  16.612  0.00  0.00    +0.000 A 
ATOM     16  C   UNL     1       4.180   7.370  17.265  0.00  0.00    +0.000 A 
ENDBRANCH   6  10
BRANCH   1  17
ATOM     17  C   UNL     1       0.122  13.263  18.310  0.00  0.00    +0.000 C 
BRANCH  17  25
ATOM     18  C   UNL     1      -4.282  14.680  23.198  0.00  0.00    +0.000 C 
ATOM     19  N   UNL     1      -3.285  14.503  22.158  0.00  0.00    +0.000 N 
ATOM     20  C   UNL     1      -2.239  15.426  22.099  0.00  0.00    +0.000 A 
ATOM     21  O   UNL     1      -2.117  16.374  22.871  0.00  0.00    +0.000 OA
ATOM     22  C   UNL     1      -1.290  15.154  21.043  0.00  0.00    +0.000 A 
ATOM     23  N   UNL     1      -0.160  15.872  20.753  0.00  0.00    +0.000 NA
ATOM     24  C   UNL     1       0.377  15.248  19.737  0.00  0.00    +0.000 A 
ATOM     25  N   UNL     1      -0.356  14.138  19.360  0.00  0.00    +0.000 N 
ATOM     26  C   UNL     1      -1.446  14.079  20.192  0.00  0.00    +0.000 A 
ATOM     27  N   UNL     1      -2.521  13.199  20.273  0.00  0.00    +0.000 N 
ATOM     28  C   UNL     1      -2.804  12.065  19.417  0.00  0.00    +0.000 C 
ATOM     29  C   UNL     1      -3.462  13.402  21.309  0.00  0.00    +0.000 A 
ATOM     30  O   UNL     1      -4.414  12.628  21.467  0.00  0.00    +0.000 OA
ENDBRANCH  17  25
ENDBRANCH   1  17
TORSDOF 3
ENDMDL
MODEL 9
REMARK VINA RESULT:      -7.0      2.923      4.607
REMARK  Name = 
REMARK  5 active torsions:
REMARK  status: ('A' for Active; 'I' for Inactive)
REMARK    1  A    between atoms: C_1  and  N_2
REMARK    2  A    between atoms: N_8  and  C_9
REMARK    3  A    between atoms: C_9  and  C_10
REMARK    4  A    between atoms: C_15  and  C_16
REMARK    5  A    between atoms: N_26  and  C_27
REMARK                            x       y       z     vdW  Elec       q    Type
REMARK                         _______ _______ _______ _____ _____    ______ ____
ROOT
ATOM      1  C   UNL     1      -0.977  10.755  19.527  0.00  0.00    +0.000 C 
ATOM      2  O   UNL     1      -1.405  10.214  18.509  0.00  0.00    +0.000 OA
ATOM      3  N   UNL     1       0.283  10.544  20.075  0.00  0.00    +0.000 N 
ATOM      4  C   UNL     1       1.070   9.582  19.484  0.00  0.00    +0.000 A 
ATOM      5  N   UNL     1       1.453   8.485  20.085  0.00  0.00    +0.000 NA
ATOM      6  C   UNL     1       2.211   7.730  19.197  0.00  0.00    +0.000 A 
ATOM      7  C   UNL     1       2.522   8.368  18.010  0.00  0.00    +0.000 A 
ATOM      8  S   UNL     1       1.730   9.892  17.944  0.00  0.00    +0.000 S 
ATOM      9  H   UNL     1       0.307  10.478  21.084  0.00  0.00    +0.000 HD
ENDROOT
BRANCH   6  10
ATOM     10  C   UNL     1       2.573   6.348  19.494  0.00  0.00    +0.000 A 
ATOM     11  C   UNL     1       3.642   5.758  18.800  0.00  0.00    +0.000 A 
ATOM     12  C   UNL     1       4.054   4.455  19.094  0.00  0.00    +0.000 A 
ATOM     13  C   UNL     1       3.391   3.727  20.078  0.00  0.00    +0.000 A 
ATOM     14 CL   UNL     1       3.896   2.123  20.442  0.00  0.00    +0.000 Cl
ATOM     15  C   UNL     1       2.323   4.293  20.771  0.00  0.00    +0.000 A 
ATOM     16  C   UNL     1       1.916   5.600  20.482  0.00  0.00    +0.000 A 
ENDBRANCH   6  10
BRANCH   1  17
ATOM     17  C   UNL     1      -1.842  11.720  20.320  0.00  0.00    +0.000 C 
BRANCH  17  25
ATOM     18  C   UNL     1       2.170  17.094  20.886  0.00  0.00    +0.000 C 
ATOM     19  N   UNL     1       1.338  15.905  20.894  0.00  0.00    +0.000 N 
ATOM     20  C   UNL     1       1.007  15.354  22.134  0.00  0.00    +0.000 A 
ATOM     21  O   UNL     1       1.380  15.815  23.210  0.00  0.00    +0.000 OA
ATOM     22  C   UNL     1       0.162  14.186  22.037  0.00  0.00    +0.000 A 
ATOM     23  N   UNL     1      -0.335  13.446  23.077  0.00  0.00    +0.000 NA
ATOM     24  C   UNL     1      -1.045  12.507  22.508  0.00  0.00    +0.000 A 
ATOM     25  N   UNL     1      -1.040  12.615  21.129  0.00  0.00    +0.000 N 
ATOM     26  C   UNL     1      -0.248  13.691  20.815  0.00  0.00    +0.000 A 
ATOM     27  N   UNL     1       0.129  14.260  19.603  0.00  0.00    +0.000 N 
ATOM     28  C   UNL     1      -0.211  13.808  18.269  0.00  0.00    +0.000 C 
ATOM     29  C   UNL     1       0.930  15.424  19.643  0.00  0.00    +0.000 A 
ATOM     30  O   UNL     1       1.260  16.007  18.603  0.00  0.00    +0.000 OA
ENDBRANCH  17  25
ENDBRANCH   1  17
TORSDOF 3
ENDMDL
