MODEL 1
REMARK VINA RESULT:      -8.0      0.000      0.000
REMARK  Name = 
REMARK  5 active torsions:
REMARK  status: ('A' for Active; 'I' for Inactive)
REMARK    1  A    between atoms: C_1  and  C_2
REMARK    2  A    between atoms: C_2  and  C_3
REMARK    3  A    between atoms: C_6  and  C_7
REMARK    4  A    between atoms: C_13  and  C_14
REMARK    5  A    between atoms: C_14  and  C_15
REMARK                            x       y       z     vdW  Elec       q    Type
REMARK                         _______ _______ _______ _____ _____    ______ ____
ROOT
ATOM      1  C   UNL     1       8.054   8.323  18.334  0.00  0.00    +0.000 A 
ATOM      2  N   UNL     1       8.537   7.392  19.186  0.00  0.00    +0.000 NA
ATOM      3  C   UNL     1       8.023   6.152  19.145  0.00  0.00    +0.000 A 
ATOM      4  N   UNL     1       8.558   5.219  20.018  0.00  0.00    +0.000 N 
ATOM      5  C   UNL     1       7.006   5.859  18.224  0.00  0.00    +0.000 A 
ATOM      6  C   UNL     1       6.288   4.657  17.900  0.00  0.00    +0.000 A 
ATOM      7  C   UNL     1       5.372   4.834  16.879  0.00  0.00    +0.000 A 
ATOM      8  S   UNL     1       5.352   6.463  16.344  0.00  0.00    +0.000 S 
ATOM      9  C   UNL     1       6.586   6.913  17.430  0.00  0.00    +0.000 A 
ATOM     10  N   UNL     1       7.063   8.168  17.447  0.00  0.00    +0.000 NA
ATOM     11  H   UNL     1       9.074   5.660  20.770  0.00  0.00    +0.000 HD
ATOM     12  H   UNL     1       7.962   4.444  20.270  0.00  0.00    +0.000 HD
ENDROOT
BRANCH   1  16
ATOM     13  C   UNL     1       9.959  11.201  19.281  0.00  0.00    +0.000 A 
ATOM     14  C   UNL     1       9.691  11.620  17.997  0.00  0.00    +0.000 A 
ATOM     15  C   UNL     1       8.939  10.586  17.393  0.00  0.00    +0.000 A 
ATOM     16  C   UNL     1       8.772   9.595  18.343  0.00  0.00    +0.000 A 
ATOM     17  O   UNL     1       9.406   9.970  19.500  0.00  0.00    +0.000 OA
BRANCH  13  19
ATOM     18  C   UNL     1       9.778  12.334  21.491  0.00  0.00    +0.000 C 
ATOM     19  C   UNL     1      10.708  11.810  20.409  0.00  0.00    +0.000 C 
ENDBRANCH  13  19
ENDBRANCH   1  16
BRANCH   7  20
ATOM     20  C   UNL     1       4.442   3.821  16.276  0.00  0.00    +0.000 C 
BRANCH  20  21
ATOM     21  C   UNL     1       3.343   3.355  17.207  0.00  0.00    +0.000 A 
ATOM     22  C   UNL     1       3.450   2.136  17.893  0.00  0.00    +0.000 A 
ATOM     23  C   UNL     1       2.465   1.743  18.800  0.00  0.00    +0.000 A 
ATOM     24  C   UNL     1       1.357   2.556  19.025  0.00  0.00    +0.000 A 
ATOM     25  C   UNL     1       1.225   3.756  18.328  0.00  0.00    +0.000 A 
ATOM     26  C   UNL     1       2.207   4.150  17.421  0.00  0.00    +0.000 A 
ENDBRANCH  20  21
ENDBRANCH   7  20
TORSDOF 4
ENDMDL
MODEL 2
REMARK VINA RESULT:      -8.0      0.288      1.025
REMARK  Name = 
REMARK  5 active torsions:
REMARK  status: ('A' for Active; 'I' for Inactive)
REMARK    1  A    between atoms: C_1  and  C_2
REMARK    2  A    between atoms: C_2  and  C_3
REMARK    3  A    between atoms: C_6  and  C_7
REMARK    4  A    between atoms: C_13  and  C_14
REMARK    5  A    between atoms: C_14  and  C_15
REMARK                            x       y       z     vdW  Elec       q    Type
REMARK                         _______ _______ _______ _____ _____    ______ ____
ROOT
ATOM      1  C   UNL     1       7.965   8.374  18.268  0.00  0.00    +0.000 A 
ATOM      2  N   UNL     1       8.496   7.464  19.114  0.00  0.00    +0.000 NA
ATOM      3  C   UNL     1       8.017   6.209  19.093  0.00  0.00    +0.000 A 
ATOM      4  N   UNL     1       8.601   5.298  19.960  0.00  0.00    +0.000 N 
ATOM      5  C   UNL     1       6.988   5.880  18.199  0.00  0.00    +0.000 A 
ATOM      6  C   UNL     1       6.298   4.655  17.901  0.00  0.00    +0.000 A 
ATOM      7  C   UNL     1       5.353   4.798  16.901  0.00  0.00    +0.000 A 
ATOM      8  S   UNL     1       5.272   6.421  16.356  0.00  0.00    +0.000 S 
ATOM      9  C   UNL     1       6.518   6.915  17.410  0.00  0.00    +0.000 A 
ATOM     10  N   UNL     1       6.958   8.184  17.406  0.00  0.00    +0.000 NA
ATOM     11  H   UNL     1       9.122   5.759  20.696  0.00  0.00    +0.000 HD
ATOM     12  H   UNL     1       8.034   4.508  20.230  0.00  0.00    +0.000 HD
ENDROOT
BRANCH   1  16
ATOM     13  C   UNL     1      10.051  11.183  19.020  0.00  0.00    +0.000 A 
ATOM     14  C   UNL     1       9.406  11.763  17.951  0.00  0.00    +0.000 A 
ATOM     15  C   UNL     1       8.512  10.787  17.452  0.00  0.00    +0.000 A 
ATOM     16  C   UNL     1       8.645   9.667  18.251  0.00  0.00    +0.000 A 
ATOM     17  O   UNL     1       9.596   9.908  19.210  0.00  0.00    +0.000 OA
BRANCH  13  19
ATOM     18  C   UNL     1      10.531  12.572  21.031  0.00  0.00    +0.000 C 
ATOM     19  C   UNL     1      11.102  11.666  19.952  0.00  0.00    +0.000 C 
ENDBRANCH  13  19
ENDBRANCH   1  16
BRANCH   7  20
ATOM     20  C   UNL     1       4.439   3.753  16.328  0.00  0.00    +0.000 C 
BRANCH  20  21
ATOM     21  C   UNL     1       3.324   3.325  17.258  0.00  0.00    +0.000 A 
ATOM     22  C   UNL     1       2.220   4.160  17.490  0.00  0.00    +0.000 A 
ATOM     23  C   UNL     1       1.164   3.734  18.295  0.00  0.00    +0.000 A 
ATOM     24  C   UNL     1       1.200   2.474  18.888  0.00  0.00    +0.000 A 
ATOM     25  C   UNL     1       2.305   1.646  18.688  0.00  0.00    +0.000 A 
ATOM     26  C   UNL     1       3.361   2.071  17.885  0.00  0.00    +0.000 A 
ENDBRANCH  20  21
ENDBRANCH   7  20
TORSDOF 4
ENDMDL
MODEL 3
REMARK VINA RESULT:      -7.8      5.891      7.607
REMARK  Name = 
REMARK  5 active torsions:
REMARK  status: ('A' for Active; 'I' for Inactive)
REMARK    1  A    between atoms: C_1  and  C_2
REMARK    2  A    between atoms: C_2  and  C_3
REMARK    3  A    between atoms: C_6  and  C_7
REMARK    4  A    between atoms: C_13  and  C_14
REMARK    5  A    between atoms: C_14  and  C_15
REMARK                            x       y       z     vdW  Elec       q    Type
REMARK                         _______ _______ _______ _____ _____    ______ ____
ROOT
ATOM      1  C   UNL     1       0.930   8.929  20.707  0.00  0.00    +0.000 A 
ATOM      2  N   UNL     1       1.204   9.539  19.534  0.00  0.00    +0.000 NA
ATOM      3  C   UNL     1       1.855   8.847  18.584  0.00  0.00    +0.000 A 
ATOM      4  N   UNL     1       2.099   9.499  17.385  0.00  0.00    +0.000 N 
ATOM      5  C   UNL     1       2.228   7.519  18.834  0.00  0.00    +0.000 A 
ATOM      6  C   UNL     1       2.879   6.513  18.040  0.00  0.00    +0.000 A 
ATOM      7  C   UNL     1       3.018   5.308  18.704  0.00  0.00    +0.000 A 
ATOM      8  S   UNL     1       2.400   5.408  20.300  0.00  0.00    +0.000 S 
ATOM      9  C   UNL     1       1.910   7.027  20.088  0.00  0.00    +0.000 A 
ATOM     10  N   UNL     1       1.273   7.686  21.070  0.00  0.00    +0.000 NA
ATOM     11  H   UNL     1       2.005  10.504  17.478  0.00  0.00    +0.000 HD
ATOM     12  H   UNL     1       2.880   9.163  16.841  0.00  0.00    +0.000 HD
ENDROOT
BRANCH   1  16
ATOM     13  C   UNL     1      -0.999  11.504  22.273  0.00  0.00    +0.000 A 
ATOM     14  C   UNL     1      -1.123  10.588  23.294  0.00  0.00    +0.000 A 
ATOM     15  C   UNL     1      -0.433   9.429  22.871  0.00  0.00    +0.000 A 
ATOM     16  C   UNL     1       0.091   9.701  21.621  0.00  0.00    +0.000 A 
ATOM     17  O   UNL     1      -0.263  10.973  21.251  0.00  0.00    +0.000 OA
BRANCH  13  19
ATOM     18  C   UNL     1      -1.158  13.778  23.275  0.00  0.00    +0.000 C 
ATOM     19  C   UNL     1      -1.500  12.890  22.090  0.00  0.00    +0.000 C 
ENDBRANCH  13  19
ENDBRANCH   1  16
BRANCH   7  20
ATOM     20  C   UNL     1       3.647   4.038  18.207  0.00  0.00    +0.000 C 
BRANCH  20  21
ATOM     21  C   UNL     1       4.916   4.244  17.408  0.00  0.00    +0.000 A 
ATOM     22  C   UNL     1       4.909   4.145  16.008  0.00  0.00    +0.000 A 
ATOM     23  C   UNL     1       6.067   4.402  15.273  0.00  0.00    +0.000 A 
ATOM     24  C   UNL     1       7.248   4.749  15.925  0.00  0.00    +0.000 A 
ATOM     25  C   UNL     1       7.274   4.823  17.317  0.00  0.00    +0.000 A 
ATOM     26  C   UNL     1       6.119   4.566  18.054  0.00  0.00    +0.000 A 
ENDBRANCH  20  21
ENDBRANCH   7  20
TORSDOF 4
ENDMDL
MODEL 4
REMARK VINA RESULT:      -7.7      5.881      7.762
REMARK  Name = 
REMARK  5 active torsions:
REMARK  status: ('A' for Active; 'I' for Inactive)
REMARK    1  A    between atoms: C_1  and  C_2
REMARK    2  A    between atoms: C_2  and  C_3
REMARK    3  A    between atoms: C_6  and  C_7
REMARK    4  A    between atoms: C_13  and  C_14
REMARK    5  A    between atoms: C_14  and  C_15
REMARK                            x       y       z     vdW  Elec       q    Type
REMARK                         _______ _______ _______ _____ _____    ______ ____
ROOT
ATOM      1  C   UNL     1       0.908   8.954  20.700  0.00  0.00    +0.000 A 
ATOM      2  N   UNL     1       1.186   9.567  19.528  0.00  0.00    +0.000 NA
ATOM      3  C   UNL     1       1.851   8.882  18.584  0.00  0.00    +0.000 A 
ATOM      4  N   UNL     1       2.099   9.536  17.388  0.00  0.00    +0.000 N 
ATOM      5  C   UNL     1       2.236   7.557  18.838  0.00  0.00    +0.000 A 
ATOM      6  C   UNL     1       2.904   6.558  18.049  0.00  0.00    +0.000 A 
ATOM      7  C   UNL     1       3.050   5.355  18.714  0.00  0.00    +0.000 A 
ATOM      8  S   UNL     1       2.417   5.448  20.305  0.00  0.00    +0.000 S 
ATOM      9  C   UNL     1       1.912   7.062  20.089  0.00  0.00    +0.000 A 
ATOM     10  N   UNL     1       1.260   7.714  21.065  0.00  0.00    +0.000 NA
ATOM     11  H   UNL     1       1.994  10.540  17.480  0.00  0.00    +0.000 HD
ATOM     12  H   UNL     1       2.888   9.209  16.850  0.00  0.00    +0.000 HD
ENDROOT
BRANCH   1  16
ATOM     13  C   UNL     1      -1.186  11.449  22.181  0.00  0.00    +0.000 A 
ATOM     14  C   UNL     1      -1.132  10.629  23.286  0.00  0.00    +0.000 A 
ATOM     15  C   UNL     1      -0.347   9.514  22.914  0.00  0.00    +0.000 A 
ATOM     16  C   UNL     1       0.053   9.717  21.606  0.00  0.00    +0.000 A 
ATOM     17  O   UNL     1      -0.469  10.903  21.154  0.00  0.00    +0.000 OA
BRANCH  13  19
ATOM     18  C   UNL     1      -3.324  12.720  22.297  0.00  0.00    +0.000 C 
ATOM     19  C   UNL     1      -1.853  12.749  21.917  0.00  0.00    +0.000 C 
ENDBRANCH  13  19
ENDBRANCH   1  16
BRANCH   7  20
ATOM     20  C   UNL     1       3.696   4.091  18.222  0.00  0.00    +0.000 C 
BRANCH  20  21
ATOM     21  C   UNL     1       4.928   4.314  17.373  0.00  0.00    +0.000 A 
ATOM     22  C   UNL     1       6.169   4.596  17.964  0.00  0.00    +0.000 A 
ATOM     23  C   UNL     1       7.314   4.735  17.180  0.00  0.00    +0.000 A 
ATOM     24  C   UNL     1       7.235   4.605  15.796  0.00  0.00    +0.000 A 
ATOM     25  C   UNL     1       6.002   4.353  15.194  0.00  0.00    +0.000 A 
ATOM     26  C   UNL     1       4.857   4.214  15.975  0.00  0.00    +0.000 A 
ENDBRANCH  20  21
ENDBRANCH   7  20
TORSDOF 4
ENDMDL
MODEL 5
REMARK VINA RESULT:      -7.6      4.930      6.720
REMARK  Name = 
REMARK  5 active torsions:
REMARK  status: ('A' for Active; 'I' for Inactive)
REMARK    1  A    between atoms: C_1  and  C_2
REMARK    2  A    between atoms: C_2  and  C_3
REMARK    3  A    between atoms: C_6  and  C_7
REMARK    4  A    between atoms: C_13  and  C_14
REMARK    5  A    between atoms: C_14  and  C_15
REMARK                            x       y       z     vdW  Elec       q    Type
REMARK                         _______ _______ _______ _____ _____    ______ ____
ROOT
ATOM      1  C   UNL     1       2.318   7.757  18.695  0.00  0.00    +0.000 A 
ATOM      2  N   UNL     1       2.196   6.707  19.537  0.00  0.00    +0.000 NA
ATOM      3  C   UNL     1       3.045   5.675  19.408  0.00  0.00    +0.000 A 
ATOM      4  N   UNL     1       2.904   4.626  20.303  0.00  0.00    +0.000 N 
ATOM      5  C   UNL     1       4.030   5.715  18.409  0.00  0.00    +0.000 A 
ATOM      6  C   UNL     1       5.093   4.821  18.038  0.00  0.00    +0.000 A 
ATOM      7  C   UNL     1       5.852   5.295  16.984  0.00  0.00    +0.000 A 
ATOM      8  S   UNL     1       5.254   6.798  16.419  0.00  0.00    +0.000 S 
ATOM      9  C   UNL     1       4.024   6.837  17.599  0.00  0.00    +0.000 A 
ATOM     10  N   UNL     1       3.188   7.884  17.685  0.00  0.00    +0.000 NA
ATOM     11  H   UNL     1       2.001   4.643  20.762  0.00  0.00    +0.000 HD
ATOM     12  H   UNL     1       3.243   3.726  19.998  0.00  0.00    +0.000 HD
ENDROOT
BRANCH   1  16
ATOM     13  C   UNL     1       0.221  10.150  20.333  0.00  0.00    +0.000 A 
ATOM     14  C   UNL     1       0.101  10.690  19.072  0.00  0.00    +0.000 A 
ATOM     15  C   UNL     1       0.901   9.892  18.222  0.00  0.00    +0.000 A 
ATOM     16  C   UNL     1       1.457   8.895  19.004  0.00  0.00    +0.000 A 
ATOM     17  O   UNL     1       1.044   9.059  20.302  0.00  0.00    +0.000 OA
BRANCH  13  19
ATOM     18  C   UNL     1      -0.002   9.507  22.729  0.00  0.00    +0.000 C 
ATOM     19  C   UNL     1      -0.348  10.524  21.653  0.00  0.00    +0.000 C 
ENDBRANCH  13  19
ENDBRANCH   1  16
BRANCH   7  20
ATOM     20  C   UNL     1       7.032   4.643  16.321  0.00  0.00    +0.000 C 
BRANCH  20  21
ATOM     21  C   UNL     1       6.916   4.535  14.816  0.00  0.00    +0.000 A 
ATOM     22  C   UNL     1       7.767   5.268  13.974  0.00  0.00    +0.000 A 
ATOM     23  C   UNL     1       7.701   5.114  12.589  0.00  0.00    +0.000 A 
ATOM     24  C   UNL     1       6.777   4.237  12.026  0.00  0.00    +0.000 A 
ATOM     25  C   UNL     1       5.906   3.525  12.850  0.00  0.00    +0.000 A 
ATOM     26  C   UNL     1       5.971   3.677  14.234  0.00  0.00    +0.000 A 
ENDBRANCH  20  21
ENDBRANCH   7  20
TORSDOF 4
ENDMDL
MODEL 6
REMARK VINA RESULT:      -7.5      5.592      7.924
REMARK  Name = 
REMARK  5 active torsions:
REMARK  status: ('A' for Active; 'I' for Inactive)
REMARK    1  A    between atoms: C_1  and  C_2
REMARK    2  A    between atoms: C_2  and  C_3
REMARK    3  A    between atoms: C_6  and  C_7
REMARK    4  A    between atoms: C_13  and  C_14
REMARK    5  A    between atoms: C_14  and  C_15
REMARK                            x       y       z     vdW  Elec       q    Type
REMARK                         _______ _______ _______ _____ _____    ______ ____
ROOT
ATOM      1  C   UNL     1       3.704   6.196  18.055  0.00  0.00    +0.000 A 
ATOM      2  N   UNL     1       3.253   5.702  19.229  0.00  0.00    +0.000 NA
ATOM      3  C   UNL     1       2.399   6.442  19.954  0.00  0.00    +0.000 A 
ATOM      4  N   UNL     1       1.941   5.893  21.142  0.00  0.00    +0.000 N 
ATOM      5  C   UNL     1       2.000   7.699  19.477  0.00  0.00    +0.000 A 
ATOM      6  C   UNL     1       1.092   8.697  19.971  0.00  0.00    +0.000 A 
ATOM      7  C   UNL     1       0.987   9.793  19.134  0.00  0.00    +0.000 A 
ATOM      8  S   UNL     1       2.017   9.631  17.773  0.00  0.00    +0.000 S 
ATOM      9  C   UNL     1       2.560   8.095  18.274  0.00  0.00    +0.000 A 
ATOM     10  N   UNL     1       3.425   7.394  17.523  0.00  0.00    +0.000 NA
ATOM     11  H   UNL     1       2.524   5.124  21.449  0.00  0.00    +0.000 HD
ATOM     12  H   UNL     1       1.635   6.543  21.850  0.00  0.00    +0.000 HD
ENDROOT
BRANCH   1  16
ATOM     13  C   UNL     1       5.688   4.664  15.501  0.00  0.00    +0.000 A 
ATOM     14  C   UNL     1       5.599   3.550  16.305  0.00  0.00    +0.000 A 
ATOM     15  C   UNL     1       4.850   3.939  17.439  0.00  0.00    +0.000 A 
ATOM     16  C   UNL     1       4.505   5.266  17.263  0.00  0.00    +0.000 A 
ATOM     17  O   UNL     1       5.026   5.713  16.075  0.00  0.00    +0.000 OA
BRANCH  13  19
ATOM     18  C   UNL     1       6.164   3.757  13.231  0.00  0.00    +0.000 C 
ATOM     19  C   UNL     1       6.344   4.920  14.193  0.00  0.00    +0.000 C 
ENDBRANCH  13  19
ENDBRANCH   1  16
BRANCH   7  20
ATOM     20  C   UNL     1       0.150  11.027  19.316  0.00  0.00    +0.000 C 
BRANCH  20  21
ATOM     21  C   UNL     1      -1.232  10.936  18.708  0.00  0.00    +0.000 A 
ATOM     22  C   UNL     1      -2.281  11.740  19.181  0.00  0.00    +0.000 A 
ATOM     23  C   UNL     1      -3.536  11.699  18.574  0.00  0.00    +0.000 A 
ATOM     24  C   UNL     1      -3.765  10.848  17.495  0.00  0.00    +0.000 A 
ATOM     25  C   UNL     1      -2.739  10.024  17.034  0.00  0.00    +0.000 A 
ATOM     26  C   UNL     1      -1.484  10.062  17.640  0.00  0.00    +0.000 A 
ENDBRANCH  20  21
ENDBRANCH   7  20
TORSDOF 4
ENDMDL
MODEL 7
REMARK VINA RESULT:      -7.5      4.663      7.086
REMARK  Name = 
REMARK  5 active torsions:
REMARK  status: ('A' for Active; 'I' for Inactive)
REMARK    1  A    between atoms: C_1  and  C_2
REMARK    2  A    between atoms: C_2  and  C_3
REMARK    3  A    between atoms: C_6  and  C_7
REMARK    4  A    between atoms: C_13  and  C_14
REMARK    5  A    between atoms: C_14  and  C_15
REMARK                            x       y       z     vdW  Elec       q    Type
REMARK                         _______ _______ _______ _____ _____    ______ ____
ROOT
ATOM      1  C   UNL     1       6.070   4.899  15.576  0.00  0.00    +0.000 A 
ATOM      2  N   UNL     1       7.074   4.805  16.475  0.00  0.00    +0.000 NA
ATOM      3  C   UNL     1       6.796   5.004  17.774  0.00  0.00    +0.000 A 
ATOM      4  N   UNL     1       7.847   4.878  18.670  0.00  0.00    +0.000 N 
ATOM      5  C   UNL     1       5.480   5.299  18.160  0.00  0.00    +0.000 A 
ATOM      6  C   UNL     1       4.854   5.519  19.434  0.00  0.00    +0.000 A 
ATOM      7  C   UNL     1       3.495   5.756  19.333  0.00  0.00    +0.000 A 
ATOM      8  S   UNL     1       2.988   5.753  17.696  0.00  0.00    +0.000 S 
ATOM      9  C   UNL     1       4.556   5.393  17.133  0.00  0.00    +0.000 A 
ATOM     10  N   UNL     1       4.792   5.215  15.823  0.00  0.00    +0.000 NA
ATOM     11  H   UNL     1       8.745   4.928  18.204  0.00  0.00    +0.000 HD
ATOM     12  H   UNL     1       7.757   5.377  19.542  0.00  0.00    +0.000 HD
ENDROOT
BRANCH   1  16
ATOM     13  C   UNL     1       6.154   3.431  12.314  0.00  0.00    +0.000 A 
ATOM     14  C   UNL     1       7.343   4.115  12.196  0.00  0.00    +0.000 A 
ATOM     15  C   UNL     1       7.514   4.822  13.409  0.00  0.00    +0.000 A 
ATOM     16  C   UNL     1       6.429   4.521  14.212  0.00  0.00    +0.000 A 
ATOM     17  O   UNL     1       5.590   3.672  13.535  0.00  0.00    +0.000 OA
BRANCH  13  19
ATOM     18  C   UNL     1       4.017   3.057  11.091  0.00  0.00    +0.000 C 
ATOM     19  C   UNL     1       5.409   2.529  11.398  0.00  0.00    +0.000 C 
ENDBRANCH  13  19
ENDBRANCH   1  16
BRANCH   7  20
ATOM     20  C   UNL     1       2.513   6.033  20.437  0.00  0.00    +0.000 C 
BRANCH  20  21
ATOM     21  C   UNL     1       1.841   7.385  20.345  0.00  0.00    +0.000 A 
ATOM     22  C   UNL     1       1.972   8.177  19.193  0.00  0.00    +0.000 A 
ATOM     23  C   UNL     1       1.296   9.393  19.087  0.00  0.00    +0.000 A 
ATOM     24  C   UNL     1       0.491   9.840  20.132  0.00  0.00    +0.000 A 
ATOM     25  C   UNL     1       0.375   9.075  21.293  0.00  0.00    +0.000 A 
ATOM     26  C   UNL     1       1.050   7.861  21.401  0.00  0.00    +0.000 A 
ENDBRANCH  20  21
ENDBRANCH   7  20
TORSDOF 4
ENDMDL
MODEL 8
REMARK VINA RESULT:      -7.5      1.039      1.404
REMARK  Name = 
REMARK  5 active torsions:
REMARK  status: ('A' for Active; 'I' for Inactive)
REMARK    1  A    between atoms: C_1  and  C_2
REMARK    2  A    between atoms: C_2  and  C_3
REMARK    3  A    between atoms: C_6  and  C_7
REMARK    4  A    between atoms: C_13  and  C_14
REMARK    5  A    between atoms: C_14  and  C_15
REMARK                            x       y       z     vdW  Elec       q    Type
REMARK                         _______ _______ _______ _____ _____    ______ ____
ROOT
ATOM      1  C   UNL     1       7.935   8.449  18.194  0.00  0.00    +0.000 A 
ATOM      2  N   UNL     1       8.470   7.539  19.036  0.00  0.00    +0.000 NA
ATOM      3  C   UNL     1       7.998   6.282  19.013  0.00  0.00    +0.000 A 
ATOM      4  N   UNL     1       8.586   5.371  19.876  0.00  0.00    +0.000 N 
ATOM      5  C   UNL     1       6.969   5.950  18.119  0.00  0.00    +0.000 A 
ATOM      6  C   UNL     1       6.285   4.723  17.817  0.00  0.00    +0.000 A 
ATOM      7  C   UNL     1       5.338   4.864  16.819  0.00  0.00    +0.000 A 
ATOM      8  S   UNL     1       5.249   6.488  16.279  0.00  0.00    +0.000 S 
ATOM      9  C   UNL     1       6.494   6.985  17.332  0.00  0.00    +0.000 A 
ATOM     10  N   UNL     1       6.928   8.256  17.332  0.00  0.00    +0.000 NA
ATOM     11  H   UNL     1       9.106   5.833  20.613  0.00  0.00    +0.000 HD
ATOM     12  H   UNL     1       8.024   4.577  20.145  0.00  0.00    +0.000 HD
ENDROOT
BRANCH   1  16
ATOM     13  C   UNL     1       8.756  11.903  17.746  0.00  0.00    +0.000 A 
ATOM     14  C   UNL     1       9.983  11.525  18.243  0.00  0.00    +0.000 A 
ATOM     15  C   UNL     1       9.885  10.144  18.531  0.00  0.00    +0.000 A 
ATOM     16  C   UNL     1       8.608   9.745  18.180  0.00  0.00    +0.000 A 
ATOM     17  O   UNL     1       7.913  10.828  17.705  0.00  0.00    +0.000 OA
BRANCH  13  19
ATOM     18  C   UNL     1       8.403  14.303  18.307  0.00  0.00    +0.000 C 
ATOM     19  C   UNL     1       8.210  13.202  17.277  0.00  0.00    +0.000 C 
ENDBRANCH  13  19
ENDBRANCH   1  16
BRANCH   7  20
ATOM     20  C   UNL     1       4.428   3.816  16.244  0.00  0.00    +0.000 C 
BRANCH  20  21
ATOM     21  C   UNL     1       3.352   3.338  17.194  0.00  0.00    +0.000 A 
ATOM     22  C   UNL     1       3.493   2.128  17.891  0.00  0.00    +0.000 A 
ATOM     23  C   UNL     1       2.529   1.724  18.815  0.00  0.00    +0.000 A 
ATOM     24  C   UNL     1       1.408   2.517  19.048  0.00  0.00    +0.000 A 
ATOM     25  C   UNL     1       1.243   3.708  18.342  0.00  0.00    +0.000 A 
ATOM     26  C   UNL     1       2.204   4.113  17.418  0.00  0.00    +0.000 A 
ENDBRANCH  20  21
ENDBRANCH   7  20
TORSDOF 4
ENDMDL
MODEL 9
REMARK VINA RESULT:      -7.4      4.864      6.841
REMARK  Name = 
REMARK  5 active torsions:
REMARK  status: ('A' for Active; 'I' for Inactive)
REMARK    1  A    between atoms: C_1  and  C_2
REMARK    2  A    between atoms: C_2  and  C_3
REMARK    3  A    between atoms: C_6  and  C_7
REMARK    4  A    between atoms: C_13  and  C_14
REMARK    5  A    between atoms: C_14  and  C_15
REMARK                            x       y       z     vdW  Elec       q    Type
REMARK                         _______ _______ _______ _____ _____    ______ ____
ROOT
ATOM      1  C   UNL     1       2.537   7.000  19.144  0.00  0.00    +0.000 A 
ATOM      2  N   UNL     1       2.431   5.765  19.680  0.00  0.00    +0.000 NA
ATOM      3  C   UNL     1       3.281   4.809  19.270  0.00  0.00    +0.000 A 
ATOM      4  N   UNL     1       3.157   3.560  19.858  0.00  0.00    +0.000 N 
ATOM      5  C   UNL     1       4.250   5.119  18.303  0.00  0.00    +0.000 A 
ATOM      6  C   UNL     1       5.309   4.362  17.694  0.00  0.00    +0.000 A 
ATOM      7  C   UNL     1       6.051   5.103  16.792  0.00  0.00    +0.000 A 
ATOM      8  S   UNL     1       5.439   6.698  16.652  0.00  0.00    +0.000 S 
ATOM      9  C   UNL     1       4.228   6.415  17.819  0.00  0.00    +0.000 A 
ATOM     10  N   UNL     1       3.390   7.396  18.191  0.00  0.00    +0.000 NA
ATOM     11  H   UNL     1       2.262   3.449  20.318  0.00  0.00    +0.000 HD
ATOM     12  H   UNL     1       3.494   2.775  19.321  0.00  0.00    +0.000 HD
ENDROOT
BRANCH   1  16
ATOM     13  C   UNL     1       0.431   9.831  19.742  0.00  0.00    +0.000 A 
ATOM     14  C   UNL     1       0.484   9.410  21.052  0.00  0.00    +0.000 A 
ATOM     15  C   UNL     1       1.274   8.238  21.059  0.00  0.00    +0.000 A 
ATOM     16  C   UNL     1       1.677   8.011  19.756  0.00  0.00    +0.000 A 
ATOM     17  O   UNL     1       1.152   8.986  18.946  0.00  0.00    +0.000 OA
BRANCH  13  19
ATOM     18  C   UNL     1      -1.435  10.527  18.246  0.00  0.00    +0.000 C 
ATOM     19  C   UNL     1      -0.240  10.974  19.072  0.00  0.00    +0.000 C 
ENDBRANCH  13  19
ENDBRANCH   1  16
BRANCH   7  20
ATOM     20  C   UNL     1       7.222   4.659  15.962  0.00  0.00    +0.000 C 
BRANCH  20  21
ATOM     21  C   UNL     1       6.904   4.460  14.496  0.00  0.00    +0.000 A 
ATOM     22  C   UNL     1       7.713   5.030  13.501  0.00  0.00    +0.000 A 
ATOM     23  C   UNL     1       7.455   4.789  12.151  0.00  0.00    +0.000 A 
ATOM     24  C   UNL     1       6.380   3.986  11.777  0.00  0.00    +0.000 A 
ATOM     25  C   UNL     1       5.551   3.438  12.756  0.00  0.00    +0.000 A 
ATOM     26  C   UNL     1       5.807   3.678  14.104  0.00  0.00    +0.000 A 
ENDBRANCH  20  21
ENDBRANCH   7  20
TORSDOF 4
ENDMDL
