MODEL 1
REMARK VINA RESULT:      -8.2      0.000      0.000
REMARK  Name = 
REMARK  9 active torsions:
REMARK  status: ('A' for Active; 'I' for Inactive)
REMARK    1  A    between atoms: C_2  and  O_3
REMARK    2  A    between atoms: C_2  and  C_4
REMARK    3  A    between atoms: C_6  and  C_7
REMARK    4  A    between atoms: C_15  and  O_16
REMARK    5  A    between atoms: O_16  and  C_17
REMARK    6  A    between atoms: C_17  and  C_18
REMARK    7  A    between atoms: C_18  and  C_19
REMARK    8  A    between atoms: C_19  and  C_20
REMARK    9  A    between atoms: C_20  and  O_21
REMARK                            x       y       z     vdW  Elec       q    Type
REMARK                         _______ _______ _______ _____ _____    ______ ____
ROOT
ATOM      1  C   UNL     1       6.797   5.692  17.989  0.00  0.00    +0.000 C 
ATOM      2  C   UNL     1       5.468   5.707  18.190  0.00  0.00    +0.000 C 
ATOM      3  C   UNL     1       4.487   5.399  17.103  0.00  0.00    +0.000 C 
ATOM      4  C   UNL     1       5.193   4.902  15.844  0.00  0.00    +0.000 C 
ATOM      5  C   UNL     1       6.488   5.680  15.638  0.00  0.00    +0.000 C 
ATOM      6  O   UNL     1       7.383   5.462  16.750  0.00  0.00    +0.000 OA
ENDROOT
BRANCH   3   7
ATOM      7  C   UNL     1       3.427   4.398  17.528  0.00  0.00    +0.000 A 
ATOM      8  C   UNL     1       3.729   3.028  17.565  0.00  0.00    +0.000 A 
ATOM      9  C   UNL     1       2.766   2.107  17.974  0.00  0.00    +0.000 A 
ATOM     10  C   UNL     1       1.504   2.553  18.350  0.00  0.00    +0.000 A 
ATOM     11  F   UNL     1       0.584   1.663  18.744  0.00  0.00    +0.000 F 
ATOM     12  C   UNL     1       1.185   3.902  18.328  0.00  0.00    +0.000 A 
ATOM     13  C   UNL     1       2.144   4.825  17.916  0.00  0.00    +0.000 A 
ENDBRANCH   3   7
BRANCH   1  15
ATOM     14  O   UNL     1       7.700   5.287  20.191  0.00  0.00    +0.000 OA
ATOM     15  C   UNL     1       7.696   5.931  19.160  0.00  0.00    +0.000 C 
BRANCH  15  16
ATOM     16  O   UNL     1       8.517   6.982  18.923  0.00  0.00    +0.000 OA
ATOM     17  H   UNL     1       8.066   7.824  19.141  0.00  0.00    +0.000 HD
ENDBRANCH  15  16
ENDBRANCH   1  15
BRANCH   5  18
ATOM     18  O   UNL     1       7.139   5.260  14.433  0.00  0.00    +0.000 OA
BRANCH  18  19
ATOM     19  C   UNL     1       6.717   3.970  13.991  0.00  0.00    +0.000 C 
BRANCH  19  20
ATOM     20  C   UNL     1       6.674   3.921  12.470  0.00  0.00    +0.000 C 
BRANCH  20  21
ATOM     21  C   UNL     1       5.438   3.172  11.976  0.00  0.00    +0.000 C 
BRANCH  21  22
ATOM     22  C   UNL     1       5.790   1.782  11.471  0.00  0.00    +0.000 C 
BRANCH  22  23
ATOM     23  O   UNL     1       7.195   1.688  11.279  0.00  0.00    +0.000 OA
ATOM     24  H   UNL     1       7.350   1.029  10.581  0.00  0.00    +0.000 HD
ENDBRANCH  22  23
ENDBRANCH  21  22
ENDBRANCH  20  21
ENDBRANCH  19  20
ENDBRANCH  18  19
ENDBRANCH   5  18
TORSDOF 9
ENDMDL
MODEL 2
REMARK VINA RESULT:      -7.7      1.237      1.763
REMARK  Name = 
REMARK  9 active torsions:
REMARK  status: ('A' for Active; 'I' for Inactive)
REMARK    1  A    between atoms: C_2  and  O_3
REMARK    2  A    between atoms: C_2  and  C_4
REMARK    3  A    between atoms: C_6  and  C_7
REMARK    4  A    between atoms: C_15  and  O_16
REMARK    5  A    between atoms: O_16  and  C_17
REMARK    6  A    between atoms: C_17  and  C_18
REMARK    7  A    between atoms: C_18  and  C_19
REMARK    8  A    between atoms: C_19  and  C_20
REMARK    9  A    between atoms: C_20  and  O_21
REMARK                            x       y       z     vdW  Elec       q    Type
REMARK                         _______ _______ _______ _____ _____    ______ ____
ROOT
ATOM      1  C   UNL     1       6.898   6.649  17.199  0.00  0.00    +0.000 C 
ATOM      2  C   UNL     1       5.578   6.767  17.425  0.00  0.00    +0.000 C 
ATOM      3  C   UNL     1       4.560   5.958  16.684  0.00  0.00    +0.000 C 
ATOM      4  C   UNL     1       5.225   4.895  15.813  0.00  0.00    +0.000 C 
ATOM      5  C   UNL     1       6.495   5.460  15.187  0.00  0.00    +0.000 C 
ATOM      6  O   UNL     1       7.438   5.827  16.217  0.00  0.00    +0.000 OA
ENDROOT
BRANCH   3   7
ATOM      7  C   UNL     1       3.539   5.308  17.600  0.00  0.00    +0.000 A 
ATOM      8  C   UNL     1       3.118   5.968  18.764  0.00  0.00    +0.000 A 
ATOM      9  C   UNL     1       2.165   5.385  19.598  0.00  0.00    +0.000 A 
ATOM     10  C   UNL     1       1.629   4.145  19.268  0.00  0.00    +0.000 A 
ATOM     11  F   UNL     1       0.713   3.590  20.071  0.00  0.00    +0.000 F 
ATOM     12  C   UNL     1       2.026   3.477  18.119  0.00  0.00    +0.000 A 
ATOM     13  C   UNL     1       2.980   4.055  17.285  0.00  0.00    +0.000 A 
ENDBRANCH   3   7
BRANCH   1  15
ATOM     14  O   UNL     1       8.113   8.614  17.898  0.00  0.00    +0.000 OA
ATOM     15  C   UNL     1       7.839   7.440  18.051  0.00  0.00    +0.000 C 
BRANCH  15  16
ATOM     16  O   UNL     1       8.364   6.663  19.028  0.00  0.00    +0.000 OA
ATOM     17  H   UNL     1       7.686   6.460  19.706  0.00  0.00    +0.000 HD
ENDBRANCH  15  16
ENDBRANCH   1  15
BRANCH   5  18
ATOM     18  O   UNL     1       7.106   4.491  14.327  0.00  0.00    +0.000 OA
BRANCH  18  19
ATOM     19  C   UNL     1       6.162   3.595  13.738  0.00  0.00    +0.000 C 
BRANCH  19  20
ATOM     20  C   UNL     1       6.324   3.577  12.225  0.00  0.00    +0.000 C 
BRANCH  20  21
ATOM     21  C   UNL     1       5.626   2.366  11.609  0.00  0.00    +0.000 C 
BRANCH  21  22
ATOM     22  C   UNL     1       6.624   1.318  11.147  0.00  0.00    +0.000 C 
BRANCH  22  23
ATOM     23  O   UNL     1       6.100   0.021  11.396  0.00  0.00    +0.000 OA
ATOM     24  H   UNL     1       6.777  -0.478  11.883  0.00  0.00    +0.000 HD
ENDBRANCH  22  23
ENDBRANCH  21  22
ENDBRANCH  20  21
ENDBRANCH  19  20
ENDBRANCH  18  19
ENDBRANCH   5  18
TORSDOF 9
ENDMDL
MODEL 3
REMARK VINA RESULT:      -7.6      1.560      1.799
REMARK  Name = 
REMARK  9 active torsions:
REMARK  status: ('A' for Active; 'I' for Inactive)
REMARK    1  A    between atoms: C_2  and  O_3
REMARK    2  A    between atoms: C_2  and  C_4
REMARK    3  A    between atoms: C_6  and  C_7
REMARK    4  A    between atoms: C_15  and  O_16
REMARK    5  A    between atoms: O_16  and  C_17
REMARK    6  A    between atoms: C_17  and  C_18
REMARK    7  A    between atoms: C_18  and  C_19
REMARK    8  A    between atoms: C_19  and  C_20
REMARK    9  A    between atoms: C_20  and  O_21
REMARK                            x       y       z     vdW  Elec       q    Type
REMARK                         _______ _______ _______ _____ _____    ______ ____
ROOT
ATOM      1  C   UNL     1       6.498   5.418  18.296  0.00  0.00    +0.000 C 
ATOM      2  C   UNL     1       5.240   5.607  18.730  0.00  0.00    +0.000 C 
ATOM      3  C   UNL     1       4.061   4.942  18.092  0.00  0.00    +0.000 C 
ATOM      4  C   UNL     1       4.501   3.917  17.048  0.00  0.00    +0.000 C 
ATOM      5  C   UNL     1       5.708   4.447  16.282  0.00  0.00    +0.000 C 
ATOM      6  O   UNL     1       6.819   4.652  17.181  0.00  0.00    +0.000 OA
ENDROOT
BRANCH   3   7
ATOM      7  C   UNL     1       3.135   4.284  19.099  0.00  0.00    +0.000 A 
ATOM      8  C   UNL     1       2.503   3.072  18.786  0.00  0.00    +0.000 A 
ATOM      9  C   UNL     1       1.667   2.453  19.715  0.00  0.00    +0.000 A 
ATOM     10  C   UNL     1       1.467   3.043  20.959  0.00  0.00    +0.000 A 
ATOM     11  F   UNL     1       0.665   2.444  21.848  0.00  0.00    +0.000 F 
ATOM     12  C   UNL     1       2.087   4.238  21.293  0.00  0.00    +0.000 A 
ATOM     13  C   UNL     1       2.919   4.860  20.365  0.00  0.00    +0.000 A 
ENDBRANCH   3   7
BRANCH   1  15
ATOM     14  O   UNL     1       8.245   7.036  18.693  0.00  0.00    +0.000 OA
ATOM     15  C   UNL     1       7.616   6.060  19.054  0.00  0.00    +0.000 C 
BRANCH  15  16
ATOM     16  O   UNL     1       7.850   5.398  20.211  0.00  0.00    +0.000 OA
ATOM     17  H   UNL     1       7.318   4.575  20.248  0.00  0.00    +0.000 HD
ENDBRANCH  15  16
ENDBRANCH   1  15
BRANCH   5  18
ATOM     18  O   UNL     1       6.103   3.519  15.265  0.00  0.00    +0.000 OA
BRANCH  18  19
ATOM     19  C   UNL     1       6.520   4.159  14.058  0.00  0.00    +0.000 C 
BRANCH  19  20
ATOM     20  C   UNL     1       5.651   3.707  12.893  0.00  0.00    +0.000 C 
BRANCH  20  21
ATOM     21  C   UNL     1       6.465   2.916  11.871  0.00  0.00    +0.000 C 
BRANCH  21  22
ATOM     22  C   UNL     1       5.703   1.700  11.369  0.00  0.00    +0.000 C 
BRANCH  22  23
ATOM     23  O   UNL     1       6.587   0.592  11.273  0.00  0.00    +0.000 OA
ATOM     24  H   UNL     1       6.329   0.079  10.489  0.00  0.00    +0.000 HD
ENDBRANCH  22  23
ENDBRANCH  21  22
ENDBRANCH  20  21
ENDBRANCH  19  20
ENDBRANCH  18  19
ENDBRANCH   5  18
TORSDOF 9
ENDMDL
MODEL 4
REMARK VINA RESULT:      -7.5      3.768      5.997
REMARK  Name = 
REMARK  9 active torsions:
REMARK  status: ('A' for Active; 'I' for Inactive)
REMARK    1  A    between atoms: C_2  and  O_3
REMARK    2  A    between atoms: C_2  and  C_4
REMARK    3  A    between atoms: C_6  and  C_7
REMARK    4  A    between atoms: C_15  and  O_16
REMARK    5  A    between atoms: O_16  and  C_17
REMARK    6  A    between atoms: C_17  and  C_18
REMARK    7  A    between atoms: C_18  and  C_19
REMARK    8  A    between atoms: C_19  and  C_20
REMARK    9  A    between atoms: C_20  and  O_21
REMARK                            x       y       z     vdW  Elec       q    Type
REMARK                         _______ _______ _______ _____ _____    ______ ____
ROOT
ATOM      1  C   UNL     1       5.203   4.959  18.332  0.00  0.00    +0.000 C 
ATOM      2  C   UNL     1       4.640   6.151  18.071  0.00  0.00    +0.000 C 
ATOM      3  C   UNL     1       3.211   6.291  17.650  0.00  0.00    +0.000 C 
ATOM      4  C   UNL     1       2.474   4.957  17.742  0.00  0.00    +0.000 C 
ATOM      5  C   UNL     1       3.395   3.826  17.298  0.00  0.00    +0.000 C 
ATOM      6  O   UNL     1       4.543   3.746  18.169  0.00  0.00    +0.000 OA
ENDROOT
BRANCH   3   7
ATOM      7  C   UNL     1       2.462   7.349  18.438  0.00  0.00    +0.000 A 
ATOM      8  C   UNL     1       2.203   7.157  19.804  0.00  0.00    +0.000 A 
ATOM      9  C   UNL     1       1.533   8.135  20.538  0.00  0.00    +0.000 A 
ATOM     10  C   UNL     1       1.125   9.307  19.910  0.00  0.00    +0.000 A 
ATOM     11  F   UNL     1       0.484  10.243  20.620  0.00  0.00    +0.000 F 
ATOM     12  C   UNL     1       1.376   9.521  18.563  0.00  0.00    +0.000 A 
ATOM     13  C   UNL     1       2.042   8.545  17.826  0.00  0.00    +0.000 A 
ENDBRANCH   3   7
BRANCH   1  15
ATOM     14  O   UNL     1       7.009   5.435  19.861  0.00  0.00    +0.000 OA
ATOM     15  C   UNL     1       6.613   4.931  18.829  0.00  0.00    +0.000 C 
BRANCH  15  16
ATOM     16  O   UNL     1       7.411   4.266  17.960  0.00  0.00    +0.000 OA
ATOM     17  H   UNL     1       7.510   4.775  17.128  0.00  0.00    +0.000 HD
ENDBRANCH  15  16
ENDBRANCH   1  15
BRANCH   5  18
ATOM     18  O   UNL     1       2.702   2.573  17.331  0.00  0.00    +0.000 OA
BRANCH  18  19
ATOM     19  C   UNL     1       3.064   1.765  18.451  0.00  0.00    +0.000 C 
BRANCH  19  20
ATOM     20  C   UNL     1       2.018   1.884  19.549  0.00  0.00    +0.000 C 
BRANCH  20  21
ATOM     21  C   UNL     1       2.535   2.721  20.718  0.00  0.00    +0.000 C 
BRANCH  21  22
ATOM     22  C   UNL     1       1.481   3.696  21.218  0.00  0.00    +0.000 C 
BRANCH  22  23
ATOM     23  O   UNL     1       0.455   3.827  20.244  0.00  0.00    +0.000 OA
ATOM     24  H   UNL     1      -0.255   3.208  20.484  0.00  0.00    +0.000 HD
ENDBRANCH  22  23
ENDBRANCH  21  22
ENDBRANCH  20  21
ENDBRANCH  19  20
ENDBRANCH  18  19
ENDBRANCH   5  18
TORSDOF 9
ENDMDL
MODEL 5
REMARK VINA RESULT:      -7.5      3.769      6.061
REMARK  Name = 
REMARK  9 active torsions:
REMARK  status: ('A' for Active; 'I' for Inactive)
REMARK    1  A    between atoms: C_2  and  O_3
REMARK    2  A    between atoms: C_2  and  C_4
REMARK    3  A    between atoms: C_6  and  C_7
REMARK    4  A    between atoms: C_15  and  O_16
REMARK    5  A    between atoms: O_16  and  C_17
REMARK    6  A    between atoms: C_17  and  C_18
REMARK    7  A    between atoms: C_18  and  C_19
REMARK    8  A    between atoms: C_19  and  C_20
REMARK    9  A    between atoms: C_20  and  O_21
REMARK                            x       y       z     vdW  Elec       q    Type
REMARK                         _______ _______ _______ _____ _____    ______ ____
ROOT
ATOM      1  C   UNL     1       5.517   5.377  18.239  0.00  0.00    +0.000 C 
ATOM      2  C   UNL     1       4.793   6.458  17.900  0.00  0.00    +0.000 C 
ATOM      3  C   UNL     1       3.324   6.387  17.623  0.00  0.00    +0.000 C 
ATOM      4  C   UNL     1       2.764   5.006  17.955  0.00  0.00    +0.000 C 
ATOM      5  C   UNL     1       3.768   3.931  17.552  0.00  0.00    +0.000 C 
ATOM      6  O   UNL     1       4.995   4.090  18.296  0.00  0.00    +0.000 OA
ENDROOT
BRANCH   3   7
ATOM      7  C   UNL     1       2.531   7.453  18.356  0.00  0.00    +0.000 A 
ATOM      8  C   UNL     1       2.188   7.272  19.705  0.00  0.00    +0.000 A 
ATOM      9  C   UNL     1       1.478   8.258  20.389  0.00  0.00    +0.000 A 
ATOM     10  C   UNL     1       1.114   9.426  19.728  0.00  0.00    +0.000 A 
ATOM     11  F   UNL     1       0.433  10.370  20.391  0.00  0.00    +0.000 F 
ATOM     12  C   UNL     1       1.448   9.630  18.398  0.00  0.00    +0.000 A 
ATOM     13  C   UNL     1       2.155   8.646  17.711  0.00  0.00    +0.000 A 
ENDBRANCH   3   7
BRANCH   1  15
ATOM     14  O   UNL     1       7.843   5.840  17.788  0.00  0.00    +0.000 OA
ATOM     15  C   UNL     1       6.961   5.566  18.579  0.00  0.00    +0.000 C 
BRANCH  15  16
ATOM     16  O   UNL     1       7.167   5.380  19.904  0.00  0.00    +0.000 OA
ATOM     17  H   UNL     1       7.444   6.219  20.328  0.00  0.00    +0.000 HD
ENDBRANCH  15  16
ENDBRANCH   1  15
BRANCH   5  18
ATOM     18  O   UNL     1       3.237   2.626  17.811  0.00  0.00    +0.000 OA
BRANCH  18  19
ATOM     19  C   UNL     1       1.845   2.642  18.125  0.00  0.00    +0.000 C 
BRANCH  19  20
ATOM     20  C   UNL     1       1.612   2.090  19.524  0.00  0.00    +0.000 C 
BRANCH  20  21
ATOM     21  C   UNL     1       1.051   3.163  20.456  0.00  0.00    +0.000 C 
BRANCH  21  22
ATOM     22  C   UNL     1       2.109   3.676  21.420  0.00  0.00    +0.000 C 
BRANCH  22  23
ATOM     23  O   UNL     1       2.731   2.576  22.070  0.00  0.00    +0.000 OA
ATOM     24  H   UNL     1       2.892   1.893  21.398  0.00  0.00    +0.000 HD
ENDBRANCH  22  23
ENDBRANCH  21  22
ENDBRANCH  20  21
ENDBRANCH  19  20
ENDBRANCH  18  19
ENDBRANCH   5  18
TORSDOF 9
ENDMDL
MODEL 6
REMARK VINA RESULT:      -7.5      3.319      6.352
REMARK  Name = 
REMARK  9 active torsions:
REMARK  status: ('A' for Active; 'I' for Inactive)
REMARK    1  A    between atoms: C_2  and  O_3
REMARK    2  A    between atoms: C_2  and  C_4
REMARK    3  A    between atoms: C_6  and  C_7
REMARK    4  A    between atoms: C_15  and  O_16
REMARK    5  A    between atoms: O_16  and  C_17
REMARK    6  A    between atoms: C_17  and  C_18
REMARK    7  A    between atoms: C_18  and  C_19
REMARK    8  A    between atoms: C_19  and  C_20
REMARK    9  A    between atoms: C_20  and  O_21
REMARK                            x       y       z     vdW  Elec       q    Type
REMARK                         _______ _______ _______ _____ _____    ______ ____
ROOT
ATOM      1  C   UNL     1       6.612   5.402  18.305  0.00  0.00    +0.000 C 
ATOM      2  C   UNL     1       6.992   4.620  17.280  0.00  0.00    +0.000 C 
ATOM      3  C   UNL     1       6.010   3.988  16.344  0.00  0.00    +0.000 C 
ATOM      4  C   UNL     1       4.594   4.496  16.602  0.00  0.00    +0.000 C 
ATOM      5  C   UNL     1       4.369   4.660  18.101  0.00  0.00    +0.000 C 
ATOM      6  O   UNL     1       5.284   5.640  18.638  0.00  0.00    +0.000 OA
ENDROOT
BRANCH   3   7
ATOM      7  C   UNL     1       6.371   4.189  14.883  0.00  0.00    +0.000 A 
ATOM      8  C   UNL     1       7.397   5.078  14.528  0.00  0.00    +0.000 A 
ATOM      9  C   UNL     1       7.747   5.251  13.189  0.00  0.00    +0.000 A 
ATOM     10  C   UNL     1       7.075   4.533  12.206  0.00  0.00    +0.000 A 
ATOM     11  F   UNL     1       7.416   4.702  10.922  0.00  0.00    +0.000 F 
ATOM     12  C   UNL     1       6.063   3.644  12.534  0.00  0.00    +0.000 A 
ATOM     13  C   UNL     1       5.709   3.472  13.870  0.00  0.00    +0.000 A 
ENDBRANCH   3   7
BRANCH   1  15
ATOM     14  O   UNL     1       8.340   7.014  18.798  0.00  0.00    +0.000 OA
ATOM     15  C   UNL     1       7.673   6.055  19.133  0.00  0.00    +0.000 C 
BRANCH  15  16
ATOM     16  O   UNL     1       7.803   5.424  20.324  0.00  0.00    +0.000 OA
ATOM     17  H   UNL     1       8.596   4.848  20.321  0.00  0.00    +0.000 HD
ENDBRANCH  15  16
ENDBRANCH   1  15
BRANCH   5  18
ATOM     18  O   UNL     1       3.028   5.089  18.363  0.00  0.00    +0.000 OA
BRANCH  18  19
ATOM     19  C   UNL     1       2.044   4.222  17.799  0.00  0.00    +0.000 C 
BRANCH  19  20
ATOM     20  C   UNL     1       1.634   3.160  18.809  0.00  0.00    +0.000 C 
BRANCH  20  21
ATOM     21  C   UNL     1       0.948   3.787  20.022  0.00  0.00    +0.000 C 
BRANCH  21  22
ATOM     22  C   UNL     1       1.871   3.825  21.229  0.00  0.00    +0.000 C 
BRANCH  22  23
ATOM     23  O   UNL     1       2.509   5.092  21.299  0.00  0.00    +0.000 OA
ATOM     24  H   UNL     1       1.829   5.749  21.530  0.00  0.00    +0.000 HD
ENDBRANCH  22  23
ENDBRANCH  21  22
ENDBRANCH  20  21
ENDBRANCH  19  20
ENDBRANCH  18  19
ENDBRANCH   5  18
TORSDOF 9
ENDMDL
MODEL 7
REMARK VINA RESULT:      -7.5      1.525      1.912
REMARK  Name = 
REMARK  9 active torsions:
REMARK  status: ('A' for Active; 'I' for Inactive)
REMARK    1  A    between atoms: C_2  and  O_3
REMARK    2  A    between atoms: C_2  and  C_4
REMARK    3  A    between atoms: C_6  and  C_7
REMARK    4  A    between atoms: C_15  and  O_16
REMARK    5  A    between atoms: O_16  and  C_17
REMARK    6  A    between atoms: C_17  and  C_18
REMARK    7  A    between atoms: C_18  and  C_19
REMARK    8  A    between atoms: C_19  and  C_20
REMARK    9  A    between atoms: C_20  and  O_21
REMARK                            x       y       z     vdW  Elec       q    Type
REMARK                         _______ _______ _______ _____ _____    ______ ____
ROOT
ATOM      1  C   UNL     1       6.489   6.070  17.274  0.00  0.00    +0.000 C 
ATOM      2  C   UNL     1       5.252   6.090  17.799  0.00  0.00    +0.000 C 
ATOM      3  C   UNL     1       4.166   5.170  17.334  0.00  0.00    +0.000 C 
ATOM      4  C   UNL     1       4.704   4.128  16.356  0.00  0.00    +0.000 C 
ATOM      5  C   UNL     1       5.741   4.768  15.439  0.00  0.00    +0.000 C 
ATOM      6  O   UNL     1       6.859   5.253  16.212  0.00  0.00    +0.000 OA
ENDROOT
BRANCH   3   7
ATOM      7  C   UNL     1       3.446   4.479  18.477  0.00  0.00    +0.000 A 
ATOM      8  C   UNL     1       2.171   4.914  18.870  0.00  0.00    +0.000 A 
ATOM      9  C   UNL     1       1.495   4.269  19.906  0.00  0.00    +0.000 A 
ATOM     10  C   UNL     1       2.091   3.188  20.547  0.00  0.00    +0.000 A 
ATOM     11  F   UNL     1       1.437   2.573  21.540  0.00  0.00    +0.000 F 
ATOM     12  C   UNL     1       3.348   2.738  20.171  0.00  0.00    +0.000 A 
ATOM     13  C   UNL     1       4.026   3.381  19.139  0.00  0.00    +0.000 A 
ENDBRANCH   3   7
BRANCH   1  15
ATOM     14  O   UNL     1       8.172   6.741  18.869  0.00  0.00    +0.000 OA
ATOM     15  C   UNL     1       7.527   6.970  17.865  0.00  0.00    +0.000 C 
BRANCH  15  16
ATOM     16  O   UNL     1       7.653   8.099  17.128  0.00  0.00    +0.000 OA
ATOM     17  H   UNL     1       6.895   8.193  16.514  0.00  0.00    +0.000 HD
ENDBRANCH  15  16
ENDBRANCH   1  15
BRANCH   5  18
ATOM     18  O   UNL     1       6.220   3.815  14.482  0.00  0.00    +0.000 OA
BRANCH  18  19
ATOM     19  C   UNL     1       5.457   3.805  13.275  0.00  0.00    +0.000 C 
BRANCH  19  20
ATOM     20  C   UNL     1       6.291   3.251  12.129  0.00  0.00    +0.000 C 
BRANCH  20  21
ATOM     21  C   UNL     1       5.601   2.057  11.471  0.00  0.00    +0.000 C 
BRANCH  21  22
ATOM     22  C   UNL     1       6.605   1.004  11.030  0.00  0.00    +0.000 C 
BRANCH  22  23
ATOM     23  O   UNL     1       6.135  -0.284  11.403  0.00  0.00    +0.000 OA
ATOM     24  H   UNL     1       6.715  -0.940  10.979  0.00  0.00    +0.000 HD
ENDBRANCH  22  23
ENDBRANCH  21  22
ENDBRANCH  20  21
ENDBRANCH  19  20
ENDBRANCH  18  19
ENDBRANCH   5  18
TORSDOF 9
ENDMDL
MODEL 8
REMARK VINA RESULT:      -7.4      1.541      1.624
REMARK  Name = 
REMARK  9 active torsions:
REMARK  status: ('A' for Active; 'I' for Inactive)
REMARK    1  A    between atoms: C_2  and  O_3
REMARK    2  A    between atoms: C_2  and  C_4
REMARK    3  A    between atoms: C_6  and  C_7
REMARK    4  A    between atoms: C_15  and  O_16
REMARK    5  A    between atoms: O_16  and  C_17
REMARK    6  A    between atoms: C_17  and  C_18
REMARK    7  A    between atoms: C_18  and  C_19
REMARK    8  A    between atoms: C_19  and  C_20
REMARK    9  A    between atoms: C_20  and  O_21
REMARK                            x       y       z     vdW  Elec       q    Type
REMARK                         _______ _______ _______ _____ _____    ______ ____
ROOT
ATOM      1  C   UNL     1       6.248   5.926  17.328  0.00  0.00    +0.000 C 
ATOM      2  C   UNL     1       5.074   5.971  17.979  0.00  0.00    +0.000 C 
ATOM      3  C   UNL     1       3.894   5.147  17.567  0.00  0.00    +0.000 C 
ATOM      4  C   UNL     1       4.268   4.156  16.467  0.00  0.00    +0.000 C 
ATOM      5  C   UNL     1       5.243   4.809  15.494  0.00  0.00    +0.000 C 
ATOM      6  O   UNL     1       6.461   5.175  16.178  0.00  0.00    +0.000 OA
ENDROOT
BRANCH   3   7
ATOM      7  C   UNL     1       3.252   4.409  18.728  0.00  0.00    +0.000 A 
ATOM      8  C   UNL     1       3.930   3.349  19.349  0.00  0.00    +0.000 A 
ATOM      9  C   UNL     1       3.354   2.682  20.429  0.00  0.00    +0.000 A 
ATOM     10  C   UNL     1       2.103   3.075  20.892  0.00  0.00    +0.000 A 
ATOM     11  F   UNL     1       1.556   2.432  21.930  0.00  0.00    +0.000 F 
ATOM     12  C   UNL     1       1.418   4.124  20.298  0.00  0.00    +0.000 A 
ATOM     13  C   UNL     1       1.989   4.791  19.217  0.00  0.00    +0.000 A 
ENDBRANCH   3   7
BRANCH   1  15
ATOM     14  O   UNL     1       7.999   6.483  18.894  0.00  0.00    +0.000 OA
ATOM     15  C   UNL     1       7.392   6.723  17.868  0.00  0.00    +0.000 C 
BRANCH  15  16
ATOM     16  O   UNL     1       7.666   7.773  17.058  0.00  0.00    +0.000 OA
ATOM     17  H   UNL     1       7.149   8.560  17.330  0.00  0.00    +0.000 HD
ENDBRANCH  15  16
ENDBRANCH   1  15
BRANCH   5  18
ATOM     18  O   UNL     1       5.566   3.908  14.427  0.00  0.00    +0.000 OA
BRANCH  18  19
ATOM     19  C   UNL     1       6.770   4.260  13.746  0.00  0.00    +0.000 C 
BRANCH  19  20
ATOM     20  C   UNL     1       6.679   3.870  12.278  0.00  0.00    +0.000 C 
BRANCH  20  21
ATOM     21  C   UNL     1       5.454   2.996  12.012  0.00  0.00    +0.000 C 
BRANCH  21  22
ATOM     22  C   UNL     1       5.840   1.666  11.386  0.00  0.00    +0.000 C 
BRANCH  22  23
ATOM     23  O   UNL     1       7.255   1.579  11.291  0.00  0.00    +0.000 OA
ATOM     24  H   UNL     1       7.576   1.153  12.104  0.00  0.00    +0.000 HD
ENDBRANCH  22  23
ENDBRANCH  21  22
ENDBRANCH  20  21
ENDBRANCH  19  20
ENDBRANCH  18  19
ENDBRANCH   5  18
TORSDOF 9
ENDMDL
MODEL 9
REMARK VINA RESULT:      -7.4      3.836      5.429
REMARK  Name = 
REMARK  9 active torsions:
REMARK  status: ('A' for Active; 'I' for Inactive)
REMARK    1  A    between atoms: C_2  and  O_3
REMARK    2  A    between atoms: C_2  and  C_4
REMARK    3  A    between atoms: C_6  and  C_7
REMARK    4  A    between atoms: C_15  and  O_16
REMARK    5  A    between atoms: O_16  and  C_17
REMARK    6  A    between atoms: C_17  and  C_18
REMARK    7  A    between atoms: C_18  and  C_19
REMARK    8  A    between atoms: C_19  and  C_20
REMARK    9  A    between atoms: C_20  and  O_21
REMARK                            x       y       z     vdW  Elec       q    Type
REMARK                         _______ _______ _______ _____ _____    ______ ____
ROOT
ATOM      1  C   UNL     1       2.732   3.584  18.828  0.00  0.00    +0.000 C 
ATOM      2  C   UNL     1       2.191   4.626  19.483  0.00  0.00    +0.000 C 
ATOM      3  C   UNL     1       2.991   5.825  19.885  0.00  0.00    +0.000 C 
ATOM      4  C   UNL     1       4.400   5.774  19.299  0.00  0.00    +0.000 C 
ATOM      5  C   UNL     1       4.922   4.342  19.334  0.00  0.00    +0.000 C 
ATOM      6  O   UNL     1       4.086   3.486  18.526  0.00  0.00    +0.000 OA
ENDROOT
BRANCH   3   7
ATOM      7  C   UNL     1       2.323   7.135  19.507  0.00  0.00    +0.000 A 
ATOM      8  C   UNL     1       1.629   7.877  20.475  0.00  0.00    +0.000 A 
ATOM      9  C   UNL     1       1.032   9.090  20.138  0.00  0.00    +0.000 A 
ATOM     10  C   UNL     1       1.132   9.567  18.835  0.00  0.00    +0.000 A 
ATOM     11  F   UNL     1       0.558  10.734  18.518  0.00  0.00    +0.000 F 
ATOM     12  C   UNL     1       1.818   8.855  17.863  0.00  0.00    +0.000 A 
ATOM     13  C   UNL     1       2.413   7.640  18.196  0.00  0.00    +0.000 A 
ENDBRANCH   3   7
BRANCH   1  15
ATOM     14  O   UNL     1       0.620   2.523  18.340  0.00  0.00    +0.000 OA
ATOM     15  C   UNL     1       1.833   2.470  18.396  0.00  0.00    +0.000 C 
BRANCH  15  16
ATOM     16  O   UNL     1       2.556   1.371  18.078  0.00  0.00    +0.000 OA
ATOM     17  H   UNL     1       2.577   1.245  17.106  0.00  0.00    +0.000 HD
ENDBRANCH  15  16
ENDBRANCH   1  15
BRANCH   5  18
ATOM     18  O   UNL     1       6.262   4.284  18.833  0.00  0.00    +0.000 OA
BRANCH  18  19
ATOM     19  C   UNL     1       6.490   5.180  17.745  0.00  0.00    +0.000 C 
BRANCH  19  20
ATOM     20  C   UNL     1       7.201   4.460  16.608  0.00  0.00    +0.000 C 
BRANCH  20  21
ATOM     21  C   UNL     1       6.219   4.051  15.512  0.00  0.00    +0.000 C 
BRANCH  21  22
ATOM     22  C   UNL     1       6.684   4.513  14.141  0.00  0.00    +0.000 C 
BRANCH  22  23
ATOM     23  O   UNL     1       7.719   5.475  14.291  0.00  0.00    +0.000 OA
ATOM     24  H   UNL     1       8.567   5.009  14.200  0.00  0.00    +0.000 HD
ENDBRANCH  22  23
ENDBRANCH  21  22
ENDBRANCH  20  21
ENDBRANCH  19  20
ENDBRANCH  18  19
ENDBRANCH   5  18
TORSDOF 9
ENDMDL
