MODEL 1
REMARK VINA RESULT:      -7.7      0.000      0.000
REMARK  Name = 
REMARK  4 active torsions:
REMARK  status: ('A' for Active; 'I' for Inactive)
REMARK    1  A    between atoms: C_2  and  C_3
REMARK    2  A    between atoms: C_15  and  O_16
REMARK    3  A    between atoms: O_16  and  C_17
REMARK    4  A    between atoms: C_17  and  C_18
REMARK                            x       y       z     vdW  Elec       q    Type
REMARK                         _______ _______ _______ _____ _____    ______ ____
ROOT
ATOM      1  O   UNL     1       7.527   4.024  18.149  0.00  0.00    +0.000 OA
ATOM      2  C   UNL     1       6.682   4.905  18.295  0.00  0.00    +0.000 C 
ATOM      3  N   UNL     1       5.370   4.633  18.656  0.00  0.00    +0.000 N 
ATOM      4  C   UNL     1       4.884   3.278  18.918  0.00  0.00    +0.000 C 
ATOM      5  C   UNL     1       3.391   3.504  19.130  0.00  0.00    +0.000 C 
ATOM      6  C   UNL     1       2.581   2.471  19.888  0.00  0.00    +0.000 C 
ATOM      7  C   UNL     1       1.124   2.954  19.933  0.00  0.00    +0.000 C 
ATOM      8  C   UNL     1       0.964   4.380  20.489  0.00  0.00    +0.000 C 
ATOM      9  C   UNL     1       1.958   5.429  19.938  0.00  0.00    +0.000 C 
ATOM     10  C   UNL     1       3.367   4.822  19.912  0.00  0.00    +0.000 C 
ATOM     11  C   UNL     1       4.442   5.611  19.185  0.00  0.00    +0.000 C 
ENDROOT
BRANCH   2  12
ATOM     12  C   UNL     1       7.105   6.326  18.143  0.00  0.00    +0.000 A 
ATOM     13  C   UNL     1       8.126   6.915  18.888  0.00  0.00    +0.000 A 
ATOM     14  C   UNL     1       8.490   8.212  18.588  0.00  0.00    +0.000 A 
ATOM     15  N   UNL     1       7.869   8.935  17.638  0.00  0.00    +0.000 NA
ATOM     16  N   UNL     1       6.825   8.387  16.953  0.00  0.00    +0.000 NA
ATOM     17  C   UNL     1       6.456   7.111  17.210  0.00  0.00    +0.000 A 
ENDBRANCH   2  12
BRANCH   9  18
ATOM     18  O   UNL     1       1.859   6.585  20.794  0.00  0.00    +0.000 OA
BRANCH  18  19
ATOM     19  C   UNL     1       1.781   7.833  20.110  0.00  0.00    +0.000 C 
BRANCH  19  20
ATOM     20  C   UNL     1       0.924   8.851  20.795  0.00  0.00    +0.000 A 
ATOM     21  C   UNL     1       0.755   8.805  22.188  0.00  0.00    +0.000 A 
ATOM     22  C   UNL     1      -0.002   9.776  22.829  0.00  0.00    +0.000 A 
ATOM     23  C   UNL     1      -0.557  10.776  22.052  0.00  0.00    +0.000 A 
ATOM     24  N   UNL     1      -0.408  10.862  20.712  0.00  0.00    +0.000 NA
ATOM     25  C   UNL     1       0.326   9.897  20.113  0.00  0.00    +0.000 A 
ENDBRANCH  19  20
ENDBRANCH  18  19
ENDBRANCH   9  18
TORSDOF 4
ENDMDL
MODEL 2
REMARK VINA RESULT:      -7.6      4.344      6.742
REMARK  Name = 
REMARK  4 active torsions:
REMARK  status: ('A' for Active; 'I' for Inactive)
REMARK    1  A    between atoms: C_2  and  C_3
REMARK    2  A    between atoms: C_15  and  O_16
REMARK    3  A    between atoms: O_16  and  C_17
REMARK    4  A    between atoms: C_17  and  C_18
REMARK                            x       y       z     vdW  Elec       q    Type
REMARK                         _______ _______ _______ _____ _____    ______ ____
ROOT
ATOM      1  O   UNL     1       7.874   5.528  12.492  0.00  0.00    +0.000 OA
ATOM      2  C   UNL     1       7.222   4.663  13.074  0.00  0.00    +0.000 C 
ATOM      3  N   UNL     1       6.970   4.705  14.437  0.00  0.00    +0.000 N 
ATOM      4  C   UNL     1       7.435   5.794  15.297  0.00  0.00    +0.000 C 
ATOM      5  C   UNL     1       7.030   5.307  16.685  0.00  0.00    +0.000 C 
ATOM      6  C   UNL     1       6.883   6.310  17.812  0.00  0.00    +0.000 C 
ATOM      7  C   UNL     1       6.485   5.540  19.079  0.00  0.00    +0.000 C 
ATOM      8  C   UNL     1       5.246   4.646  18.895  0.00  0.00    +0.000 C 
ATOM      9  C   UNL     1       5.223   3.791  17.605  0.00  0.00    +0.000 C 
ATOM     10  C   UNL     1       5.668   4.658  16.420  0.00  0.00    +0.000 C 
ATOM     11  C   UNL     1       5.937   3.942  15.108  0.00  0.00    +0.000 C 
ENDROOT
BRANCH   2  12
ATOM     12  C   UNL     1       6.624   3.563  12.267  0.00  0.00    +0.000 A 
ATOM     13  C   UNL     1       7.363   2.525  11.700  0.00  0.00    +0.000 A 
ATOM     14  C   UNL     1       6.682   1.512  11.055  0.00  0.00    +0.000 A 
ATOM     15  N   UNL     1       5.343   1.514  10.920  0.00  0.00    +0.000 NA
ATOM     16  N   UNL     1       4.621   2.561  11.413  0.00  0.00    +0.000 NA
ATOM     17  C   UNL     1       5.256   3.560  12.067  0.00  0.00    +0.000 A 
ENDBRANCH   2  12
BRANCH   9  18
ATOM     18  O   UNL     1       3.878   3.290  17.462  0.00  0.00    +0.000 OA
BRANCH  18  19
ATOM     19  C   UNL     1       3.576   2.149  18.260  0.00  0.00    +0.000 C 
BRANCH  19  20
ATOM     20  C   UNL     1       2.809   2.461  19.506  0.00  0.00    +0.000 A 
ATOM     21  C   UNL     1       1.469   2.876  19.421  0.00  0.00    +0.000 A 
ATOM     22  C   UNL     1       0.743   3.121  20.579  0.00  0.00    +0.000 A 
ATOM     23  C   UNL     1       1.379   2.929  21.791  0.00  0.00    +0.000 A 
ATOM     24  N   UNL     1       2.661   2.519  21.915  0.00  0.00    +0.000 NA
ATOM     25  C   UNL     1       3.348   2.298  20.770  0.00  0.00    +0.000 A 
ENDBRANCH  19  20
ENDBRANCH  18  19
ENDBRANCH   9  18
TORSDOF 4
ENDMDL
MODEL 3
REMARK VINA RESULT:      -7.6      0.788      1.358
REMARK  Name = 
REMARK  4 active torsions:
REMARK  status: ('A' for Active; 'I' for Inactive)
REMARK    1  A    between atoms: C_2  and  C_3
REMARK    2  A    between atoms: C_15  and  O_16
REMARK    3  A    between atoms: O_16  and  C_17
REMARK    4  A    between atoms: C_17  and  C_18
REMARK                            x       y       z     vdW  Elec       q    Type
REMARK                         _______ _______ _______ _____ _____    ______ ____
ROOT
ATOM      1  O   UNL     1       7.417   3.903  17.983  0.00  0.00    +0.000 OA
ATOM      2  C   UNL     1       6.618   4.819  18.166  0.00  0.00    +0.000 C 
ATOM      3  N   UNL     1       5.302   4.601  18.550  0.00  0.00    +0.000 N 
ATOM      4  C   UNL     1       4.758   3.265  18.795  0.00  0.00    +0.000 C 
ATOM      5  C   UNL     1       3.282   3.557  19.045  0.00  0.00    +0.000 C 
ATOM      6  C   UNL     1       2.441   2.547  19.799  0.00  0.00    +0.000 C 
ATOM      7  C   UNL     1       1.009   3.097  19.886  0.00  0.00    +0.000 C 
ATOM      8  C   UNL     1       0.929   4.516  20.475  0.00  0.00    +0.000 C 
ATOM      9  C   UNL     1       1.960   5.530  19.924  0.00  0.00    +0.000 C 
ATOM     10  C   UNL     1       3.337   4.857  19.854  0.00  0.00    +0.000 C 
ATOM     11  C   UNL     1       4.433   5.610  19.120  0.00  0.00    +0.000 C 
ENDROOT
BRANCH   2  12
ATOM     12  C   UNL     1       7.104   6.221  18.035  0.00  0.00    +0.000 A 
ATOM     13  C   UNL     1       6.565   7.151  17.146  0.00  0.00    +0.000 A 
ATOM     14  C   UNL     1       7.038   8.447  17.187  0.00  0.00    +0.000 A 
ATOM     15  N   UNL     1       8.024   8.830  18.019  0.00  0.00    +0.000 NA
ATOM     16  N   UNL     1       8.602   7.909  18.842  0.00  0.00    +0.000 NA
ATOM     17  C   UNL     1       8.148   6.635  18.840  0.00  0.00    +0.000 A 
ENDBRANCH   2  12
BRANCH   9  18
ATOM     18  O   UNL     1       1.935   6.670  20.806  0.00  0.00    +0.000 OA
BRANCH  18  19
ATOM     19  C   UNL     1       1.729   7.923  20.160  0.00  0.00    +0.000 C 
BRANCH  19  20
ATOM     20  C   UNL     1       0.993   8.925  20.993  0.00  0.00    +0.000 A 
ATOM     21  C   UNL     1       0.063   9.790  20.394  0.00  0.00    +0.000 A 
ATOM     22  C   UNL     1      -0.654  10.688  21.174  0.00  0.00    +0.000 A 
ATOM     23  C   UNL     1      -0.426  10.681  22.537  0.00  0.00    +0.000 A 
ATOM     24  N   UNL     1       0.450   9.856  23.153  0.00  0.00    +0.000 NA
ATOM     25  C   UNL     1       1.142   9.000  22.368  0.00  0.00    +0.000 A 
ENDBRANCH  19  20
ENDBRANCH  18  19
ENDBRANCH   9  18
TORSDOF 4
ENDMDL
MODEL 4
REMARK VINA RESULT:      -7.1      1.246      1.855
REMARK  Name = 
REMARK  4 active torsions:
REMARK  status: ('A' for Active; 'I' for Inactive)
REMARK    1  A    between atoms: C_2  and  C_3
REMARK    2  A    between atoms: C_15  and  O_16
REMARK    3  A    between atoms: O_16  and  C_17
REMARK    4  A    between atoms: C_17  and  C_18
REMARK                            x       y       z     vdW  Elec       q    Type
REMARK                         _______ _______ _______ _____ _____    ______ ____
ROOT
ATOM      1  O   UNL     1       6.832   3.818  16.540  0.00  0.00    +0.000 OA
ATOM      2  C   UNL     1       6.179   4.647  17.172  0.00  0.00    +0.000 C 
ATOM      3  N   UNL     1       4.898   4.392  17.641  0.00  0.00    +0.000 N 
ATOM      4  C   UNL     1       4.222   3.109  17.447  0.00  0.00    +0.000 C 
ATOM      5  C   UNL     1       2.832   3.387  18.009  0.00  0.00    +0.000 C 
ATOM      6  C   UNL     1       1.961   2.227  18.448  0.00  0.00    +0.000 C 
ATOM      7  C   UNL     1       0.628   2.801  18.950  0.00  0.00    +0.000 C 
ATOM      8  C   UNL     1       0.792   3.883  20.033  0.00  0.00    +0.000 C 
ATOM      9  C   UNL     1       1.873   4.953  19.752  0.00  0.00    +0.000 C 
ATOM     10  C   UNL     1       3.139   4.263  19.227  0.00  0.00    +0.000 C 
ATOM     11  C   UNL     1       4.231   5.161  18.672  0.00  0.00    +0.000 C 
ENDROOT
BRANCH   2  12
ATOM     12  C   UNL     1       6.819   5.951  17.503  0.00  0.00    +0.000 A 
ATOM     13  C   UNL     1       7.773   6.114  18.507  0.00  0.00    +0.000 A 
ATOM     14  C   UNL     1       8.364   7.353  18.654  0.00  0.00    +0.000 A 
ATOM     15  N   UNL     1       8.021   8.410  17.894  0.00  0.00    +0.000 NA
ATOM     16  N   UNL     1       7.041   8.273  16.957  0.00  0.00    +0.000 NA
ATOM     17  C   UNL     1       6.456   7.068  16.775  0.00  0.00    +0.000 A 
ENDBRANCH   2  12
BRANCH   9  18
ATOM     18  O   UNL     1       2.090   5.661  20.990  0.00  0.00    +0.000 OA
BRANCH  18  19
ATOM     19  C   UNL     1       1.194   6.743  21.226  0.00  0.00    +0.000 C 
BRANCH  19  20
ATOM     20  C   UNL     1       1.373   7.898  20.290  0.00  0.00    +0.000 A 
ATOM     21  C   UNL     1       2.028   7.712  19.061  0.00  0.00    +0.000 A 
ATOM     22  C   UNL     1       2.154   8.771  18.173  0.00  0.00    +0.000 A 
ATOM     23  C   UNL     1       1.604   9.986  18.538  0.00  0.00    +0.000 A 
ATOM     24  N   UNL     1       0.955  10.202  19.704  0.00  0.00    +0.000 NA
ATOM     25  C   UNL     1       0.858   9.155  20.555  0.00  0.00    +0.000 A 
ENDBRANCH  19  20
ENDBRANCH  18  19
ENDBRANCH   9  18
TORSDOF 4
ENDMDL
MODEL 5
REMARK VINA RESULT:      -7.1      2.708      7.309
REMARK  Name = 
REMARK  4 active torsions:
REMARK  status: ('A' for Active; 'I' for Inactive)
REMARK    1  A    between atoms: C_2  and  C_3
REMARK    2  A    between atoms: C_15  and  O_16
REMARK    3  A    between atoms: O_16  and  C_17
REMARK    4  A    between atoms: C_17  and  C_18
REMARK                            x       y       z     vdW  Elec       q    Type
REMARK                         _______ _______ _______ _____ _____    ______ ____
ROOT
ATOM      1  O   UNL     1       0.061   7.745  21.490  0.00  0.00    +0.000 OA
ATOM      2  C   UNL     1       0.993   7.805  20.691  0.00  0.00    +0.000 C 
ATOM      3  N   UNL     1       1.803   6.717  20.402  0.00  0.00    +0.000 N 
ATOM      4  C   UNL     1       1.605   5.397  21.003  0.00  0.00    +0.000 C 
ATOM      5  C   UNL     1       2.807   4.618  20.478  0.00  0.00    +0.000 C 
ATOM      6  C   UNL     1       2.758   3.103  20.453  0.00  0.00    +0.000 C 
ATOM      7  C   UNL     1       4.097   2.598  19.895  0.00  0.00    +0.000 C 
ATOM      8  C   UNL     1       4.473   3.218  18.537  0.00  0.00    +0.000 C 
ATOM      9  C   UNL     1       4.281   4.749  18.424  0.00  0.00    +0.000 C 
ATOM     10  C   UNL     1       2.930   5.133  19.041  0.00  0.00    +0.000 C 
ATOM     11  C   UNL     1       2.662   6.615  19.239  0.00  0.00    +0.000 C 
ENDROOT
BRANCH   2  12
ATOM     12  C   UNL     1       1.215   9.081  19.954  0.00  0.00    +0.000 A 
ATOM     13  C   UNL     1       1.652   9.148  18.632  0.00  0.00    +0.000 A 
ATOM     14  C   UNL     1       1.726  10.388  18.029  0.00  0.00    +0.000 A 
ATOM     15  N   UNL     1       1.435  11.528  18.683  0.00  0.00    +0.000 NA
ATOM     16  N   UNL     1       1.073  11.473  19.997  0.00  0.00    +0.000 NA
ATOM     17  C   UNL     1       0.971  10.273  20.611  0.00  0.00    +0.000 A 
ENDBRANCH   2  12
BRANCH   9  18
ATOM     18  O   UNL     1       4.374   5.077  17.023  0.00  0.00    +0.000 OA
BRANCH  18  19
ATOM     19  C   UNL     1       4.715   3.986  16.173  0.00  0.00    +0.000 C 
BRANCH  19  20
ATOM     20  C   UNL     1       5.769   4.309  15.160  0.00  0.00    +0.000 A 
ATOM     21  C   UNL     1       5.654   3.822  13.847  0.00  0.00    +0.000 A 
ATOM     22  C   UNL     1       6.607   4.160  12.895  0.00  0.00    +0.000 A 
ATOM     23  C   UNL     1       7.642   4.989  13.286  0.00  0.00    +0.000 A 
ATOM     24  N   UNL     1       7.781   5.488  14.535  0.00  0.00    +0.000 NA
ATOM     25  C   UNL     1       6.844   5.134  15.445  0.00  0.00    +0.000 A 
ENDBRANCH  19  20
ENDBRANCH  18  19
ENDBRANCH   9  18
TORSDOF 4
ENDMDL
MODEL 6
REMARK VINA RESULT:      -7.0      2.666      6.929
REMARK  Name = 
REMARK  4 active torsions:
REMARK  status: ('A' for Active; 'I' for Inactive)
REMARK    1  A    between atoms: C_2  and  C_3
REMARK    2  A    between atoms: C_15  and  O_16
REMARK    3  A    between atoms: O_16  and  C_17
REMARK    4  A    between atoms: C_17  and  C_18
REMARK                            x       y       z     vdW  Elec       q    Type
REMARK                         _______ _______ _______ _____ _____    ______ ____
ROOT
ATOM      1  O   UNL     1       2.124   3.791  22.122  0.00  0.00    +0.000 OA
ATOM      2  C   UNL     1       2.321   4.011  20.928  0.00  0.00    +0.000 C 
ATOM      3  N   UNL     1       2.079   5.246  20.345  0.00  0.00    +0.000 N 
ATOM      4  C   UNL     1       1.594   6.400  21.102  0.00  0.00    +0.000 C 
ATOM      5  C   UNL     1       1.366   7.435  20.005  0.00  0.00    +0.000 C 
ATOM      6  C   UNL     1       1.324   8.906  20.366  0.00  0.00    +0.000 C 
ATOM      7  C   UNL     1       1.069   9.701  19.077  0.00  0.00    +0.000 C 
ATOM      8  C   UNL     1       2.064   9.381  17.947  0.00  0.00    +0.000 C 
ATOM      9  C   UNL     1       2.351   7.878  17.714  0.00  0.00    +0.000 C 
ATOM     10  C   UNL     1       2.555   7.189  19.070  0.00  0.00    +0.000 C 
ATOM     11  C   UNL     1       2.614   5.671  19.067  0.00  0.00    +0.000 C 
ENDROOT
BRANCH   2  12
ATOM     12  C   UNL     1       2.907   2.924  20.094  0.00  0.00    +0.000 A 
ATOM     13  C   UNL     1       2.256   2.346  19.005  0.00  0.00    +0.000 A 
ATOM     14  C   UNL     1       2.942   1.415  18.251  0.00  0.00    +0.000 A 
ATOM     15  N   UNL     1       4.192   1.019  18.556  0.00  0.00    +0.000 NA
ATOM     16  N   UNL     1       4.807   1.531  19.659  0.00  0.00    +0.000 NA
ATOM     17  C   UNL     1       4.170   2.460  20.407  0.00  0.00    +0.000 A 
ENDBRANCH   2  12
BRANCH   9  18
ATOM     18  O   UNL     1       3.513   7.804  16.864  0.00  0.00    +0.000 OA
BRANCH  18  19
ATOM     19  C   UNL     1       4.721   7.449  17.531  0.00  0.00    +0.000 C 
BRANCH  19  20
ATOM     20  C   UNL     1       5.528   6.409  16.818  0.00  0.00    +0.000 A 
ATOM     21  C   UNL     1       5.149   5.983  15.534  0.00  0.00    +0.000 A 
ATOM     22  C   UNL     1       5.923   5.053  14.853  0.00  0.00    +0.000 A 
ATOM     23  C   UNL     1       7.066   4.587  15.476  0.00  0.00    +0.000 A 
ATOM     24  N   UNL     1       7.471   4.981  16.704  0.00  0.00    +0.000 NA
ATOM     25  C   UNL     1       6.692   5.880  17.348  0.00  0.00    +0.000 A 
ENDBRANCH  19  20
ENDBRANCH  18  19
ENDBRANCH   9  18
TORSDOF 4
ENDMDL
MODEL 7
REMARK VINA RESULT:      -7.0      0.806      1.298
REMARK  Name = 
REMARK  4 active torsions:
REMARK  status: ('A' for Active; 'I' for Inactive)
REMARK    1  A    between atoms: C_2  and  C_3
REMARK    2  A    between atoms: C_15  and  O_16
REMARK    3  A    between atoms: O_16  and  C_17
REMARK    4  A    between atoms: C_17  and  C_18
REMARK                            x       y       z     vdW  Elec       q    Type
REMARK                         _______ _______ _______ _____ _____    ______ ____
ROOT
ATOM      1  O   UNL     1       7.653   4.005  17.930  0.00  0.00    +0.000 OA
ATOM      2  C   UNL     1       6.786   4.862  18.087  0.00  0.00    +0.000 C 
ATOM      3  N   UNL     1       5.466   4.548  18.377  0.00  0.00    +0.000 N 
ATOM      4  C   UNL     1       4.996   3.173  18.546  0.00  0.00    +0.000 C 
ATOM      5  C   UNL     1       3.491   3.361  18.707  0.00  0.00    +0.000 C 
ATOM      6  C   UNL     1       2.672   2.275  19.374  0.00  0.00    +0.000 C 
ATOM      7  C   UNL     1       1.205   2.729  19.383  0.00  0.00    +0.000 C 
ATOM      8  C   UNL     1       0.994   4.120  20.008  0.00  0.00    +0.000 C 
ATOM      9  C   UNL     1       1.989   5.215  19.556  0.00  0.00    +0.000 C 
ATOM     10  C   UNL     1       3.410   4.634  19.557  0.00  0.00    +0.000 C 
ATOM     11  C   UNL     1       4.498   5.480  18.919  0.00  0.00    +0.000 C 
ENDROOT
BRANCH   2  12
ATOM     12  C   UNL     1       7.187   6.296  18.030  0.00  0.00    +0.000 A 
ATOM     13  C   UNL     1       8.185   6.855  18.827  0.00  0.00    +0.000 A 
ATOM     14  C   UNL     1       8.532   8.174  18.613  0.00  0.00    +0.000 A 
ATOM     15  N   UNL     1       7.915   8.944  17.697  0.00  0.00    +0.000 NA
ATOM     16  N   UNL     1       6.892   8.421  16.962  0.00  0.00    +0.000 NA
ATOM     17  C   UNL     1       6.541   7.127  17.134  0.00  0.00    +0.000 A 
ENDBRANCH   2  12
BRANCH   9  18
ATOM     18  O   UNL     1       1.833   6.321  20.468  0.00  0.00    +0.000 OA
BRANCH  18  19
ATOM     19  C   UNL     1       2.327   7.568  19.988  0.00  0.00    +0.000 C 
BRANCH  19  20
ATOM     20  C   UNL     1       1.289   8.644  19.908  0.00  0.00    +0.000 A 
ATOM     21  C   UNL     1       0.995   9.247  18.674  0.00  0.00    +0.000 A 
ATOM     22  C   UNL     1      -0.000  10.212  18.592  0.00  0.00    +0.000 A 
ATOM     23  C   UNL     1      -0.682  10.534  19.751  0.00  0.00    +0.000 A 
ATOM     24  N   UNL     1      -0.437   9.968  20.953  0.00  0.00    +0.000 NA
ATOM     25  C   UNL     1       0.544   9.039  21.006  0.00  0.00    +0.000 A 
ENDBRANCH  19  20
ENDBRANCH  18  19
ENDBRANCH   9  18
TORSDOF 4
ENDMDL
MODEL 8
REMARK VINA RESULT:      -7.0      2.491      5.479
REMARK  Name = 
REMARK  4 active torsions:
REMARK  status: ('A' for Active; 'I' for Inactive)
REMARK    1  A    between atoms: C_2  and  C_3
REMARK    2  A    between atoms: C_15  and  O_16
REMARK    3  A    between atoms: O_16  and  C_17
REMARK    4  A    between atoms: C_17  and  C_18
REMARK                            x       y       z     vdW  Elec       q    Type
REMARK                         _______ _______ _______ _____ _____    ______ ____
ROOT
ATOM      1  O   UNL     1       4.576   7.587  15.251  0.00  0.00    +0.000 OA
ATOM      2  C   UNL     1       4.671   7.047  16.352  0.00  0.00    +0.000 C 
ATOM      3  N   UNL     1       3.837   7.362  17.415  0.00  0.00    +0.000 N 
ATOM      4  C   UNL     1       2.758   8.346  17.314  0.00  0.00    +0.000 C 
ATOM      5  C   UNL     1       2.252   8.421  18.750  0.00  0.00    +0.000 C 
ATOM      6  C   UNL     1       0.855   8.942  19.021  0.00  0.00    +0.000 C 
ATOM      7  C   UNL     1       0.628   8.916  20.540  0.00  0.00    +0.000 C 
ATOM      8  C   UNL     1       0.900   7.544  21.181  0.00  0.00    +0.000 C 
ATOM      9  C   UNL     1       2.200   6.838  20.727  0.00  0.00    +0.000 C 
ATOM     10  C   UNL     1       2.331   6.959  19.203  0.00  0.00    +0.000 C 
ATOM     11  C   UNL     1       3.656   6.536  18.591  0.00  0.00    +0.000 C 
ENDROOT
BRANCH   2  12
ATOM     12  C   UNL     1       5.677   5.962  16.525  0.00  0.00    +0.000 A 
ATOM     13  C   UNL     1       5.572   4.704  15.934  0.00  0.00    +0.000 A 
ATOM     14  C   UNL     1       6.618   3.817  16.091  0.00  0.00    +0.000 A 
ATOM     15  N   UNL     1       7.707   4.108  16.827  0.00  0.00    +0.000 NA
ATOM     16  N   UNL     1       7.784   5.311  17.463  0.00  0.00    +0.000 NA
ATOM     17  C   UNL     1       6.785   6.210  17.313  0.00  0.00    +0.000 A 
ENDBRANCH   2  12
BRANCH   9  18
ATOM     18  O   UNL     1       2.111   5.472  21.178  0.00  0.00    +0.000 OA
BRANCH  18  19
ATOM     19  C   UNL     1       1.290   4.628  20.375  0.00  0.00    +0.000 C 
BRANCH  19  20
ATOM     20  C   UNL     1       2.046   3.573  19.630  0.00  0.00    +0.000 A 
ATOM     21  C   UNL     1       1.701   3.266  18.303  0.00  0.00    +0.000 A 
ATOM     22  C   UNL     1       2.431   2.320  17.596  0.00  0.00    +0.000 A 
ATOM     23  C   UNL     1       3.498   1.719  18.238  0.00  0.00    +0.000 A 
ATOM     24  N   UNL     1       3.869   1.995  19.508  0.00  0.00    +0.000 NA
ATOM     25  C   UNL     1       3.133   2.913  20.177  0.00  0.00    +0.000 A 
ENDBRANCH  19  20
ENDBRANCH  18  19
ENDBRANCH   9  18
TORSDOF 4
ENDMDL
MODEL 9
REMARK VINA RESULT:      -7.0      4.224      5.909
REMARK  Name = 
REMARK  4 active torsions:
REMARK  status: ('A' for Active; 'I' for Inactive)
REMARK    1  A    between atoms: C_2  and  C_3
REMARK    2  A    between atoms: C_15  and  O_16
REMARK    3  A    between atoms: O_16  and  C_17
REMARK    4  A    between atoms: C_17  and  C_18
REMARK                            x       y       z     vdW  Elec       q    Type
REMARK                         _______ _______ _______ _____ _____    ______ ____
ROOT
ATOM      1  O   UNL     1       7.757   5.449  12.716  0.00  0.00    +0.000 OA
ATOM      2  C   UNL     1       7.025   4.669  13.323  0.00  0.00    +0.000 C 
ATOM      3  N   UNL     1       6.884   4.695  14.703  0.00  0.00    +0.000 N 
ATOM      4  C   UNL     1       7.574   5.666  15.554  0.00  0.00    +0.000 C 
ATOM      5  C   UNL     1       7.202   5.192  16.955  0.00  0.00    +0.000 C 
ATOM      6  C   UNL     1       7.295   6.159  18.118  0.00  0.00    +0.000 C 
ATOM      7  C   UNL     1       6.879   5.408  19.390  0.00  0.00    +0.000 C 
ATOM      8  C   UNL     1       5.506   4.720  19.280  0.00  0.00    +0.000 C 
ATOM      9  C   UNL     1       5.257   3.930  17.973  0.00  0.00    +0.000 C 
ATOM     10  C   UNL     1       5.741   4.766  16.781  0.00  0.00    +0.000 C 
ATOM     11  C   UNL     1       5.799   4.070  15.432  0.00  0.00    +0.000 C 
ENDROOT
BRANCH   2  12
ATOM     12  C   UNL     1       6.207   3.705  12.536  0.00  0.00    +0.000 A 
ATOM     13  C   UNL     1       4.863   3.904  12.220  0.00  0.00    +0.000 A 
ATOM     14  C   UNL     1       4.240   2.983  11.402  0.00  0.00    +0.000 A 
ATOM     15  N   UNL     1       4.868   1.887  10.938  0.00  0.00    +0.000 NA
ATOM     16  N   UNL     1       6.162   1.653  11.299  0.00  0.00    +0.000 NA
ATOM     17  C   UNL     1       6.808   2.545  12.083  0.00  0.00    +0.000 A 
ENDBRANCH   2  12
BRANCH   9  18
ATOM     18  O   UNL     1       3.845   3.644  17.923  0.00  0.00    +0.000 OA
BRANCH  18  19
ATOM     19  C   UNL     1       3.035   4.707  17.429  0.00  0.00    +0.000 C 
BRANCH  19  20
ATOM     20  C   UNL     1       2.601   5.681  18.480  0.00  0.00    +0.000 A 
ATOM     21  C   UNL     1       2.624   7.060  18.212  0.00  0.00    +0.000 A 
ATOM     22  C   UNL     1       2.179   7.961  19.170  0.00  0.00    +0.000 A 
ATOM     23  C   UNL     1       1.708   7.450  20.365  0.00  0.00    +0.000 A 
ATOM     24  N   UNL     1       1.658   6.132  20.656  0.00  0.00    +0.000 NA
ATOM     25  C   UNL     1       2.109   5.277  19.709  0.00  0.00    +0.000 A 
ENDBRANCH  19  20
ENDBRANCH  18  19
ENDBRANCH   9  18
TORSDOF 4
ENDMDL
