MODEL 1
REMARK VINA RESULT:      -7.5      0.000      0.000
REMARK  Name = 
REMARK  6 active torsions:
REMARK  status: ('A' for Active; 'I' for Inactive)
REMARK    1  A    between atoms: C_1  and  C_2
REMARK    2  A    between atoms: C_2  and  C_3
REMARK    3  A    between atoms: C_2  and  O_4
REMARK    4  A    between atoms: O_4  and  C_5
REMARK    5  A    between atoms: C_5  and  C_7
REMARK    6  A    between atoms: N_13  and  C_14
REMARK                            x       y       z     vdW  Elec       q    Type
REMARK                         _______ _______ _______ _____ _____    ______ ____
ROOT
ATOM      1  C   UNL     1       1.470   8.375  19.856  0.00  0.00    +0.000 A 
ATOM      2  N   UNL     1       1.645   9.315  18.855  0.00  0.00    +0.000 NA
ATOM      3  C   UNL     1       2.399   8.735  17.948  0.00  0.00    +0.000 A 
ATOM      4  N   UNL     1       2.702   7.438  18.282  0.00  0.00    +0.000 N 
ATOM      5  C   UNL     1       2.169   7.220  19.533  0.00  0.00    +0.000 A 
ATOM      6  C   UNL     1       2.442   5.974  20.284  0.00  0.00    +0.000 C 
ATOM      7  N   UNL     1       1.757   4.895  19.610  0.00  0.00    +0.000 N 
ATOM      8  C   UNL     1       0.971   3.972  20.408  0.00  0.00    +0.000 C 
ATOM      9  C   UNL     1       2.035   4.519  18.304  0.00  0.00    +0.000 C 
ATOM     10  O   UNL     1       1.418   3.631  17.720  0.00  0.00    +0.000 OA
ATOM     11  C   UNL     1       3.197   5.134  17.611  0.00  0.00    +0.000 A 
ATOM     12  C   UNL     1       4.029   4.226  16.939  0.00  0.00    +0.000 A 
ATOM     13  C   UNL     1       5.144   4.682  16.250  0.00  0.00    +0.000 A 
ATOM     14 CL   UNL     1       6.210   3.552  15.514  0.00  0.00    +0.000 Cl
ATOM     15  C   UNL     1       5.412   6.047  16.169  0.00  0.00    +0.000 A 
ATOM     16  C   UNL     1       4.565   6.970  16.793  0.00  0.00    +0.000 A 
ATOM     17  C   UNL     1       3.474   6.511  17.546  0.00  0.00    +0.000 A 
ENDROOT
BRANCH   1  18
ATOM     18  C   UNL     1       0.700   8.614  21.077  0.00  0.00    +0.000 C 
ATOM     19  O   UNL     1      -0.046   7.777  21.578  0.00  0.00    +0.000 OA
BRANCH  18  20
ATOM     20  O   UNL     1       0.915   9.855  21.610  0.00  0.00    +0.000 OA
BRANCH  20  22
ATOM     21  C   UNL     1      -0.835  10.851  22.952  0.00  0.00    +0.000 C 
ATOM     22  C   UNL     1      -0.203  10.759  21.567  0.00  0.00    +0.000 C 
ATOM     23  C   UNL     1       0.323  12.121  21.128  0.00  0.00    +0.000 C 
ENDBRANCH  20  22
ENDBRANCH  18  20
ENDBRANCH   1  18
TORSDOF 3
ENDMDL
MODEL 2
REMARK VINA RESULT:      -6.8      3.458      7.254
REMARK  Name = 
REMARK  6 active torsions:
REMARK  status: ('A' for Active; 'I' for Inactive)
REMARK    1  A    between atoms: C_1  and  C_2
REMARK    2  A    between atoms: C_2  and  C_3
REMARK    3  A    between atoms: C_2  and  O_4
REMARK    4  A    between atoms: O_4  and  C_5
REMARK    5  A    between atoms: C_5  and  C_7
REMARK    6  A    between atoms: N_13  and  C_14
REMARK                            x       y       z     vdW  Elec       q    Type
REMARK                         _______ _______ _______ _____ _____    ______ ____
ROOT
ATOM      1  C   UNL     1       5.211   5.210  15.958  0.00  0.00    +0.000 A 
ATOM      2  N   UNL     1       5.784   6.470  16.002  0.00  0.00    +0.000 NA
ATOM      3  C   UNL     1       5.108   7.138  16.910  0.00  0.00    +0.000 A 
ATOM      4  N   UNL     1       4.136   6.369  17.500  0.00  0.00    +0.000 N 
ATOM      5  C   UNL     1       4.149   5.154  16.850  0.00  0.00    +0.000 A 
ATOM      6  C   UNL     1       3.118   4.125  17.114  0.00  0.00    +0.000 C 
ATOM      7  N   UNL     1       3.338   3.614  18.447  0.00  0.00    +0.000 N 
ATOM      8  C   UNL     1       3.336   2.176  18.644  0.00  0.00    +0.000 C 
ATOM      9  C   UNL     1       3.263   4.405  19.585  0.00  0.00    +0.000 C 
ATOM     10  O   UNL     1       3.496   3.975  20.712  0.00  0.00    +0.000 OA
ATOM     11  C   UNL     1       2.775   5.803  19.457  0.00  0.00    +0.000 A 
ATOM     12  C   UNL     1       1.813   6.178  20.407  0.00  0.00    +0.000 A 
ATOM     13  C   UNL     1       1.286   7.463  20.393  0.00  0.00    +0.000 A 
ATOM     14 CL   UNL     1       0.038   7.881  21.498  0.00  0.00    +0.000 Cl
ATOM     15  C   UNL     1       1.750   8.404  19.476  0.00  0.00    +0.000 A 
ATOM     16  C   UNL     1       2.743   8.059  18.553  0.00  0.00    +0.000 A 
ATOM     17  C   UNL     1       3.233   6.745  18.518  0.00  0.00    +0.000 A 
ENDROOT
BRANCH   1  18
ATOM     18  C   UNL     1       5.651   4.143  15.061  0.00  0.00    +0.000 C 
ATOM     19  O   UNL     1       6.289   3.164  15.439  0.00  0.00    +0.000 OA
BRANCH  18  20
ATOM     20  O   UNL     1       5.260   4.338  13.764  0.00  0.00    +0.000 OA
BRANCH  20  22
ATOM     21  C   UNL     1       4.784   3.116  11.731  0.00  0.00    +0.000 C 
ATOM     22  C   UNL     1       5.827   3.439  12.795  0.00  0.00    +0.000 C 
ATOM     23  C   UNL     1       7.030   4.136  12.169  0.00  0.00    +0.000 C 
ENDBRANCH  20  22
ENDBRANCH  18  20
ENDBRANCH   1  18
TORSDOF 3
ENDMDL
MODEL 3
REMARK VINA RESULT:      -6.8      3.526      5.270
REMARK  Name = 
REMARK  6 active torsions:
REMARK  status: ('A' for Active; 'I' for Inactive)
REMARK    1  A    between atoms: C_1  and  C_2
REMARK    2  A    between atoms: C_2  and  C_3
REMARK    3  A    between atoms: C_2  and  O_4
REMARK    4  A    between atoms: O_4  and  C_5
REMARK    5  A    between atoms: C_5  and  C_7
REMARK    6  A    between atoms: N_13  and  C_14
REMARK                            x       y       z     vdW  Elec       q    Type
REMARK                         _______ _______ _______ _____ _____    ______ ____
ROOT
ATOM      1  C   UNL     1       3.694   3.263  19.185  0.00  0.00    +0.000 A 
ATOM      2  N   UNL     1       3.182   2.240  18.405  0.00  0.00    +0.000 NA
ATOM      3  C   UNL     1       3.761   2.362  17.232  0.00  0.00    +0.000 A 
ATOM      4  N   UNL     1       4.663   3.396  17.206  0.00  0.00    +0.000 N 
ATOM      5  C   UNL     1       4.578   4.022  18.431  0.00  0.00    +0.000 A 
ATOM      6  C   UNL     1       5.294   5.288  18.704  0.00  0.00    +0.000 C 
ATOM      7  N   UNL     1       6.708   4.990  18.757  0.00  0.00    +0.000 N 
ATOM      8  C   UNL     1       7.484   5.523  19.861  0.00  0.00    +0.000 C 
ATOM      9  C   UNL     1       7.415   4.478  17.679  0.00  0.00    +0.000 C 
ATOM     10  O   UNL     1       8.607   4.184  17.743  0.00  0.00    +0.000 OA
ATOM     11  C   UNL     1       6.742   4.379  16.358  0.00  0.00    +0.000 A 
ATOM     12  C   UNL     1       7.494   4.862  15.277  0.00  0.00    +0.000 A 
ATOM     13  C   UNL     1       6.972   4.818  13.991  0.00  0.00    +0.000 A 
ATOM     14 CL   UNL     1       7.862   5.502  12.689  0.00  0.00    +0.000 Cl
ATOM     15  C   UNL     1       5.726   4.241  13.757  0.00  0.00    +0.000 A 
ATOM     16  C   UNL     1       4.983   3.711  14.818  0.00  0.00    +0.000 A 
ATOM     17  C   UNL     1       5.475   3.812  16.128  0.00  0.00    +0.000 A 
ENDROOT
BRANCH   1  18
ATOM     18  C   UNL     1       3.302   3.508  20.573  0.00  0.00    +0.000 C 
ATOM     19  O   UNL     1       3.294   2.634  21.436  0.00  0.00    +0.000 OA
BRANCH  18  20
ATOM     20  O   UNL     1       2.966   4.812  20.812  0.00  0.00    +0.000 OA
BRANCH  20  22
ATOM     21  C   UNL     1       0.652   4.302  20.325  0.00  0.00    +0.000 C 
ATOM     22  C   UNL     1       1.794   5.294  20.133  0.00  0.00    +0.000 C 
ATOM     23  C   UNL     1       1.434   6.646  20.738  0.00  0.00    +0.000 C 
ENDBRANCH  20  22
ENDBRANCH  18  20
ENDBRANCH   1  18
TORSDOF 3
ENDMDL
MODEL 4
REMARK VINA RESULT:      -6.7      2.855      4.641
REMARK  Name = 
REMARK  6 active torsions:
REMARK  status: ('A' for Active; 'I' for Inactive)
REMARK    1  A    between atoms: C_1  and  C_2
REMARK    2  A    between atoms: C_2  and  C_3
REMARK    3  A    between atoms: C_2  and  O_4
REMARK    4  A    between atoms: O_4  and  C_5
REMARK    5  A    between atoms: C_5  and  C_7
REMARK    6  A    between atoms: N_13  and  C_14
REMARK                            x       y       z     vdW  Elec       q    Type
REMARK                         _______ _______ _______ _____ _____    ______ ____
ROOT
ATOM      1  C   UNL     1       3.106   4.338  18.692  0.00  0.00    +0.000 A 
ATOM      2  N   UNL     1       2.454   3.380  17.933  0.00  0.00    +0.000 NA
ATOM      3  C   UNL     1       3.144   3.279  16.818  0.00  0.00    +0.000 A 
ATOM      4  N   UNL     1       4.245   4.098  16.816  0.00  0.00    +0.000 N 
ATOM      5  C   UNL     1       4.192   4.830  17.982  0.00  0.00    +0.000 A 
ATOM      6  C   UNL     1       5.138   5.938  18.244  0.00  0.00    +0.000 C 
ATOM      7  N   UNL     1       6.445   5.361  18.457  0.00  0.00    +0.000 N 
ATOM      8  C   UNL     1       7.221   5.813  19.597  0.00  0.00    +0.000 C 
ATOM      9  C   UNL     1       7.115   4.623  17.492  0.00  0.00    +0.000 C 
ATOM     10  O   UNL     1       8.206   4.095  17.695  0.00  0.00    +0.000 OA
ATOM     11  C   UNL     1       6.550   4.554  16.119  0.00  0.00    +0.000 A 
ATOM     12  C   UNL     1       7.477   4.777  15.090  0.00  0.00    +0.000 A 
ATOM     13  C   UNL     1       7.068   4.733  13.764  0.00  0.00    +0.000 A 
ATOM     14 CL   UNL     1       8.190   5.105  12.516  0.00  0.00    +0.000 Cl
ATOM     15  C   UNL     1       5.752   4.409  13.443  0.00  0.00    +0.000 A 
ATOM     16  C   UNL     1       4.826   4.136  14.456  0.00  0.00    +0.000 A 
ATOM     17  C   UNL     1       5.215   4.243  15.800  0.00  0.00    +0.000 A 
ENDROOT
BRANCH   1  18
ATOM     18  C   UNL     1       2.659   4.776  20.014  0.00  0.00    +0.000 C 
ATOM     19  O   UNL     1       3.106   4.318  21.062  0.00  0.00    +0.000 OA
BRANCH  18  20
ATOM     20  O   UNL     1       1.711   5.759  19.960  0.00  0.00    +0.000 OA
BRANCH  20  22
ATOM     21  C   UNL     1       2.148   7.818  18.767  0.00  0.00    +0.000 C 
ATOM     22  C   UNL     1       2.192   7.106  20.115  0.00  0.00    +0.000 C 
ATOM     23  C   UNL     1       1.286   7.807  21.119  0.00  0.00    +0.000 C 
ENDBRANCH  20  22
ENDBRANCH  18  20
ENDBRANCH   1  18
TORSDOF 3
ENDMDL
MODEL 5
REMARK VINA RESULT:      -6.7      3.240      6.980
REMARK  Name = 
REMARK  6 active torsions:
REMARK  status: ('A' for Active; 'I' for Inactive)
REMARK    1  A    between atoms: C_1  and  C_2
REMARK    2  A    between atoms: C_2  and  C_3
REMARK    3  A    between atoms: C_2  and  O_4
REMARK    4  A    between atoms: O_4  and  C_5
REMARK    5  A    between atoms: C_5  and  C_7
REMARK    6  A    between atoms: N_13  and  C_14
REMARK                            x       y       z     vdW  Elec       q    Type
REMARK                         _______ _______ _______ _____ _____    ______ ____
ROOT
ATOM      1  C   UNL     1       4.613   5.291  16.689  0.00  0.00    +0.000 A 
ATOM      2  N   UNL     1       5.249   6.521  16.670  0.00  0.00    +0.000 NA
ATOM      3  C   UNL     1       4.583   7.280  17.511  0.00  0.00    +0.000 A 
ATOM      4  N   UNL     1       3.556   6.600  18.118  0.00  0.00    +0.000 N 
ATOM      5  C   UNL     1       3.524   5.347  17.548  0.00  0.00    +0.000 A 
ATOM      6  C   UNL     1       2.434   4.389  17.843  0.00  0.00    +0.000 C 
ATOM      7  N   UNL     1       2.589   3.956  19.213  0.00  0.00    +0.000 N 
ATOM      8  C   UNL     1       2.507   2.536  19.501  0.00  0.00    +0.000 C 
ATOM      9  C   UNL     1       2.522   4.822  20.294  0.00  0.00    +0.000 C 
ATOM     10  O   UNL     1       2.700   4.456  21.454  0.00  0.00    +0.000 OA
ATOM     11  C   UNL     1       2.110   6.232  20.062  0.00  0.00    +0.000 A 
ATOM     12  C   UNL     1       1.143   6.716  20.955  0.00  0.00    +0.000 A 
ATOM     13  C   UNL     1       0.683   8.021  20.841  0.00  0.00    +0.000 A 
ATOM     14 CL   UNL     1      -0.574   8.573  21.877  0.00  0.00    +0.000 Cl
ATOM     15  C   UNL     1       1.221   8.876  19.881  0.00  0.00    +0.000 A 
ATOM     16  C   UNL     1       2.222   8.423  19.015  0.00  0.00    +0.000 A 
ATOM     17  C   UNL     1       2.644   7.086  19.080  0.00  0.00    +0.000 A 
ENDROOT
BRANCH   1  18
ATOM     18  C   UNL     1       5.023   4.146  15.876  0.00  0.00    +0.000 C 
ATOM     19  O   UNL     1       5.227   3.028  16.341  0.00  0.00    +0.000 OA
BRANCH  18  20
ATOM     20  O   UNL     1       5.134   4.446  14.546  0.00  0.00    +0.000 OA
BRANCH  20  22
ATOM     21  C   UNL     1       5.837   3.408  12.477  0.00  0.00    +0.000 C 
ATOM     22  C   UNL     1       6.263   3.873  13.865  0.00  0.00    +0.000 C 
ATOM     23  C   UNL     1       7.335   4.952  13.761  0.00  0.00    +0.000 C 
ENDBRANCH  20  22
ENDBRANCH  18  20
ENDBRANCH   1  18
TORSDOF 3
ENDMDL
MODEL 6
REMARK VINA RESULT:      -6.4      3.954      5.398
REMARK  Name = 
REMARK  6 active torsions:
REMARK  status: ('A' for Active; 'I' for Inactive)
REMARK    1  A    between atoms: C_1  and  C_2
REMARK    2  A    between atoms: C_2  and  C_3
REMARK    3  A    between atoms: C_2  and  O_4
REMARK    4  A    between atoms: O_4  and  C_5
REMARK    5  A    between atoms: C_5  and  C_7
REMARK    6  A    between atoms: N_13  and  C_14
REMARK                            x       y       z     vdW  Elec       q    Type
REMARK                         _______ _______ _______ _____ _____    ______ ____
ROOT
ATOM      1  C   UNL     1       3.258   4.386  18.595  0.00  0.00    +0.000 A 
ATOM      2  N   UNL     1       2.595   3.422  17.854  0.00  0.00    +0.000 NA
ATOM      3  C   UNL     1       3.260   3.321  16.724  0.00  0.00    +0.000 A 
ATOM      4  N   UNL     1       4.356   4.146  16.694  0.00  0.00    +0.000 N 
ATOM      5  C   UNL     1       4.325   4.882  17.859  0.00  0.00    +0.000 A 
ATOM      6  C   UNL     1       5.270   5.997  18.094  0.00  0.00    +0.000 C 
ATOM      7  N   UNL     1       6.585   5.428  18.280  0.00  0.00    +0.000 N 
ATOM      8  C   UNL     1       7.384   5.889  19.401  0.00  0.00    +0.000 C 
ATOM      9  C   UNL     1       7.237   4.690  17.303  0.00  0.00    +0.000 C 
ATOM     10  O   UNL     1       8.336   4.169  17.483  0.00  0.00    +0.000 OA
ATOM     11  C   UNL     1       6.642   4.613  15.943  0.00  0.00    +0.000 A 
ATOM     12  C   UNL     1       7.544   4.837  14.893  0.00  0.00    +0.000 A 
ATOM     13  C   UNL     1       7.105   4.785  13.577  0.00  0.00    +0.000 A 
ATOM     14 CL   UNL     1       8.197   5.159  12.302  0.00  0.00    +0.000 Cl
ATOM     15  C   UNL     1       5.784   4.452  13.287  0.00  0.00    +0.000 A 
ATOM     16  C   UNL     1       4.883   4.178  14.322  0.00  0.00    +0.000 A 
ATOM     17  C   UNL     1       5.302   4.293  15.656  0.00  0.00    +0.000 A 
ENDROOT
BRANCH   1  18
ATOM     18  C   UNL     1       2.839   4.827  19.925  0.00  0.00    +0.000 C 
ATOM     19  O   UNL     1       2.554   5.991  20.191  0.00  0.00    +0.000 OA
BRANCH  18  20
ATOM     20  O   UNL     1       2.779   3.805  20.833  0.00  0.00    +0.000 OA
BRANCH  20  22
ATOM     21  C   UNL     1       0.499   3.329  20.177  0.00  0.00    +0.000 C 
ATOM     22  C   UNL     1       1.471   3.493  21.341  0.00  0.00    +0.000 C 
ATOM     23  C   UNL     1       1.581   2.193  22.130  0.00  0.00    +0.000 C 
ENDBRANCH  20  22
ENDBRANCH  18  20
ENDBRANCH   1  18
TORSDOF 3
ENDMDL
MODEL 7
REMARK VINA RESULT:      -6.3      3.366      5.340
REMARK  Name = 
REMARK  6 active torsions:
REMARK  status: ('A' for Active; 'I' for Inactive)
REMARK    1  A    between atoms: C_1  and  C_2
REMARK    2  A    between atoms: C_2  and  C_3
REMARK    3  A    between atoms: C_2  and  O_4
REMARK    4  A    between atoms: O_4  and  C_5
REMARK    5  A    between atoms: C_5  and  C_7
REMARK    6  A    between atoms: N_13  and  C_14
REMARK                            x       y       z     vdW  Elec       q    Type
REMARK                         _______ _______ _______ _____ _____    ______ ____
ROOT
ATOM      1  C   UNL     1      -0.984  10.968  22.298  0.00  0.00    +0.000 A 
ATOM      2  N   UNL     1      -0.300  10.388  23.354  0.00  0.00    +0.000 NA
ATOM      3  C   UNL     1       0.529   9.525  22.810  0.00  0.00    +0.000 A 
ATOM      4  N   UNL     1       0.455   9.531  21.440  0.00  0.00    +0.000 N 
ATOM      5  C   UNL     1      -0.558  10.402  21.105  0.00  0.00    +0.000 A 
ATOM      6  C   UNL     1      -1.032  10.539  19.709  0.00  0.00    +0.000 C 
ATOM      7  N   UNL     1       0.014  11.185  18.951  0.00  0.00    +0.000 N 
ATOM      8  C   UNL     1      -0.346  12.291  18.082  0.00  0.00    +0.000 C 
ATOM      9  C   UNL     1       1.278  10.638  18.781  0.00  0.00    +0.000 C 
ATOM     10  O   UNL     1       2.178  11.213  18.174  0.00  0.00    +0.000 OA
ATOM     11  C   UNL     1       1.529   9.251  19.255  0.00  0.00    +0.000 A 
ATOM     12  C   UNL     1       2.197   8.428  18.336  0.00  0.00    +0.000 A 
ATOM     13  C   UNL     1       2.493   7.113  18.667  0.00  0.00    +0.000 A 
ATOM     14 CL   UNL     1       3.222   6.085  17.497  0.00  0.00    +0.000 Cl
ATOM     15  C   UNL     1       2.184   6.619  19.933  0.00  0.00    +0.000 A 
ATOM     16  C   UNL     1       1.562   7.441  20.878  0.00  0.00    +0.000 A 
ATOM     17  C   UNL     1       1.200   8.752  20.528  0.00  0.00    +0.000 A 
ENDROOT
BRANCH   1  18
ATOM     18  C   UNL     1      -2.025  11.984  22.458  0.00  0.00    +0.000 C 
ATOM     19  O   UNL     1      -2.338  12.774  21.572  0.00  0.00    +0.000 OA
BRANCH  18  20
ATOM     20  O   UNL     1      -2.625  11.947  23.686  0.00  0.00    +0.000 OA
BRANCH  20  22
ATOM     21  C   UNL     1      -4.748  12.289  24.795  0.00  0.00    +0.000 C 
ATOM     22  C   UNL     1      -3.676  12.904  23.901  0.00  0.00    +0.000 C 
ATOM     23  C   UNL     1      -3.057  14.125  24.573  0.00  0.00    +0.000 C 
ENDBRANCH  20  22
ENDBRANCH  18  20
ENDBRANCH   1  18
TORSDOF 3
ENDMDL
MODEL 8
REMARK VINA RESULT:      -6.2      3.374      5.226
REMARK  Name = 
REMARK  6 active torsions:
REMARK  status: ('A' for Active; 'I' for Inactive)
REMARK    1  A    between atoms: C_1  and  C_2
REMARK    2  A    between atoms: C_2  and  C_3
REMARK    3  A    between atoms: C_2  and  O_4
REMARK    4  A    between atoms: O_4  and  C_5
REMARK    5  A    between atoms: C_5  and  C_7
REMARK    6  A    between atoms: N_13  and  C_14
REMARK                            x       y       z     vdW  Elec       q    Type
REMARK                         _______ _______ _______ _____ _____    ______ ____
ROOT
ATOM      1  C   UNL     1      -0.861  10.859  22.549  0.00  0.00    +0.000 A 
ATOM      2  N   UNL     1      -0.110  10.258  23.546  0.00  0.00    +0.000 NA
ATOM      3  C   UNL     1       0.709   9.436  22.929  0.00  0.00    +0.000 A 
ATOM      4  N   UNL     1       0.565   9.491  21.565  0.00  0.00    +0.000 N 
ATOM      5  C   UNL     1      -0.484  10.348  21.315  0.00  0.00    +0.000 A 
ATOM      6  C   UNL     1      -1.032  10.524  19.951  0.00  0.00    +0.000 C 
ATOM      7  N   UNL     1      -0.042  11.223  19.166  0.00  0.00    +0.000 N 
ATOM      8  C   UNL     1      -0.471  12.351  18.359  0.00  0.00    +0.000 C 
ATOM      9  C   UNL     1       1.224  10.714  18.912  0.00  0.00    +0.000 C 
ATOM     10  O   UNL     1       2.078  11.333  18.282  0.00  0.00    +0.000 OA
ATOM     11  C   UNL     1       1.531   9.318  19.319  0.00  0.00    +0.000 A 
ATOM     12  C   UNL     1       2.169   8.546  18.337  0.00  0.00    +0.000 A 
ATOM     13  C   UNL     1       2.512   7.227  18.603  0.00  0.00    +0.000 A 
ATOM     14 CL   UNL     1       3.203   6.261  17.360  0.00  0.00    +0.000 Cl
ATOM     15  C   UNL     1       2.280   6.680  19.863  0.00  0.00    +0.000 A 
ATOM     16  C   UNL     1       1.689   7.451  20.869  0.00  0.00    +0.000 A 
ATOM     17  C   UNL     1       1.280   8.764  20.587  0.00  0.00    +0.000 A 
ENDROOT
BRANCH   1  18
ATOM     18  C   UNL     1      -1.915  11.842  22.799  0.00  0.00    +0.000 C 
ATOM     19  O   UNL     1      -2.885  11.621  23.519  0.00  0.00    +0.000 OA
BRANCH  18  20
ATOM     20  O   UNL     1      -1.697  13.034  22.166  0.00  0.00    +0.000 OA
BRANCH  20  22
ATOM     21  C   UNL     1       0.314  14.369  22.003  0.00  0.00    +0.000 C 
ATOM     22  C   UNL     1      -0.877  13.980  22.873  0.00  0.00    +0.000 C 
ATOM     23  C   UNL     1      -1.737  15.202  23.175  0.00  0.00    +0.000 C 
ENDBRANCH  20  22
ENDBRANCH  18  20
ENDBRANCH   1  18
TORSDOF 3
ENDMDL
MODEL 9
REMARK VINA RESULT:      -6.2      4.458      5.781
REMARK  Name = 
REMARK  6 active torsions:
REMARK  status: ('A' for Active; 'I' for Inactive)
REMARK    1  A    between atoms: C_1  and  C_2
REMARK    2  A    between atoms: C_2  and  C_3
REMARK    3  A    between atoms: C_2  and  O_4
REMARK    4  A    between atoms: O_4  and  C_5
REMARK    5  A    between atoms: C_5  and  C_7
REMARK    6  A    between atoms: N_13  and  C_14
REMARK                            x       y       z     vdW  Elec       q    Type
REMARK                         _______ _______ _______ _____ _____    ______ ____
ROOT
ATOM      1  C   UNL     1       3.822   3.015  19.012  0.00  0.00    +0.000 A 
ATOM      2  N   UNL     1       3.373   1.983  18.205  0.00  0.00    +0.000 NA
ATOM      3  C   UNL     1       3.950   2.166  17.038  0.00  0.00    +0.000 A 
ATOM      4  N   UNL     1       4.791   3.250  17.043  0.00  0.00    +0.000 N 
ATOM      5  C   UNL     1       4.664   3.841  18.281  0.00  0.00    +0.000 A 
ATOM      6  C   UNL     1       5.306   5.139  18.589  0.00  0.00    +0.000 C 
ATOM      7  N   UNL     1       6.733   4.922  18.643  0.00  0.00    +0.000 N 
ATOM      8  C   UNL     1       7.473   5.472  19.764  0.00  0.00    +0.000 C 
ATOM      9  C   UNL     1       7.474   4.477  17.558  0.00  0.00    +0.000 C 
ATOM     10  O   UNL     1       8.680   4.250  17.622  0.00  0.00    +0.000 OA
ATOM     11  C   UNL     1       6.813   4.371  16.230  0.00  0.00    +0.000 A 
ATOM     12  C   UNL     1       7.542   4.922  15.166  0.00  0.00    +0.000 A 
ATOM     13  C   UNL     1       7.029   4.879  13.876  0.00  0.00    +0.000 A 
ATOM     14 CL   UNL     1       7.884   5.644  12.595  0.00  0.00    +0.000 Cl
ATOM     15  C   UNL     1       5.819   4.237  13.621  0.00  0.00    +0.000 A 
ATOM     16  C   UNL     1       5.103   3.640  14.664  0.00  0.00    +0.000 A 
ATOM     17  C   UNL     1       5.583   3.738  15.980  0.00  0.00    +0.000 A 
ENDROOT
BRANCH   1  18
ATOM     18  C   UNL     1       3.410   3.204  20.403  0.00  0.00    +0.000 C 
ATOM     19  O   UNL     1       3.837   2.522  21.331  0.00  0.00    +0.000 OA
BRANCH  18  20
ATOM     20  O   UNL     1       2.519   4.228  20.563  0.00  0.00    +0.000 OA
BRANCH  20  22
ATOM     21  C   UNL     1       0.516   3.412  19.478  0.00  0.00    +0.000 C 
ATOM     22  C   UNL     1       1.153   3.843  20.795  0.00  0.00    +0.000 C 
ATOM     23  C   UNL     1       1.163   2.685  21.787  0.00  0.00    +0.000 C 
ENDBRANCH  20  22
ENDBRANCH  18  20
ENDBRANCH   1  18
TORSDOF 3
ENDMDL
