MODEL 1
REMARK VINA RESULT:      -7.2      0.000      0.000
REMARK  Name = 
REMARK  4 active torsions:
REMARK  status: ('A' for Active; 'I' for Inactive)
REMARK    1  A    between atoms: O_1  and  C_2
REMARK    2  A    between atoms: C_5  and  C_6
REMARK    3  A    between atoms: C_6  and  C_7
REMARK    4  A    between atoms: C_14  and  O_15
REMARK                            x       y       z     vdW  Elec       q    Type
REMARK                         _______ _______ _______ _____ _____    ______ ____
ROOT
ATOM      1  C   UNL     1       7.121   5.273  15.056  0.00  0.00    +0.000 A 
ATOM      2  N   UNL     1       5.891   5.776  14.953  0.00  0.00    +0.000 NA
ATOM      3  C   UNL     1       5.174   5.739  16.092  0.00  0.00    +0.000 A 
ATOM      4  C   UNL     1       5.643   5.231  17.290  0.00  0.00    +0.000 A 
ATOM      5  C   UNL     1       6.929   4.727  17.230  0.00  0.00    +0.000 A 
ATOM      6  N   UNL     1       7.696   4.746  16.133  0.00  0.00    +0.000 NA
ENDROOT
BRANCH   1   7
ATOM      7  O   UNL     1       7.844   5.316  13.907  0.00  0.00    +0.000 OA
ATOM      8  H   UNL     1       8.043   4.370  13.821  0.00  0.00    +0.000 HD
ENDBRANCH   1   7
BRANCH   5   9
ATOM      9  O   UNL     1       7.543   4.174  18.315  0.00  0.00    +0.000 OA
ATOM     10  H   UNL     1       6.917   3.572  18.750  0.00  0.00    +0.000 HD
ENDBRANCH   5   9
BRANCH   4  11
ATOM     11  C   UNL     1       4.778   5.228  18.516  0.00  0.00    +0.000 C 
BRANCH  11  12
ATOM     12  C   UNL     1       3.698   4.178  18.462  0.00  0.00    +0.000 A 
ATOM     13  C   UNL     1       3.979   2.833  18.738  0.00  0.00    +0.000 A 
ATOM     14  C   UNL     1       2.947   1.891  18.778  0.00  0.00    +0.000 A 
ATOM     15  C   UNL     1       1.629   2.281  18.537  0.00  0.00    +0.000 A 
ATOM     16  C   UNL     1       1.342   3.611  18.242  0.00  0.00    +0.000 A 
ATOM     17  C   UNL     1       2.373   4.543  18.208  0.00  0.00    +0.000 A 
ATOM     18  F   UNL     1       2.082   5.828  17.954  0.00  0.00    +0.000 F 
ENDBRANCH  11  12
ENDBRANCH   4  11
TORSDOF 4
ENDMDL
MODEL 2
REMARK VINA RESULT:      -7.2      1.159      1.662
REMARK  Name = 
REMARK  4 active torsions:
REMARK  status: ('A' for Active; 'I' for Inactive)
REMARK    1  A    between atoms: O_1  and  C_2
REMARK    2  A    between atoms: C_5  and  C_6
REMARK    3  A    between atoms: C_6  and  C_7
REMARK    4  A    between atoms: C_14  and  O_15
REMARK                            x       y       z     vdW  Elec       q    Type
REMARK                         _______ _______ _______ _____ _____    ______ ____
ROOT
ATOM      1  C   UNL     1       6.974   5.333  15.205  0.00  0.00    +0.000 A 
ATOM      2  N   UNL     1       5.781   5.923  15.117  0.00  0.00    +0.000 NA
ATOM      3  C   UNL     1       5.079   5.940  16.265  0.00  0.00    +0.000 A 
ATOM      4  C   UNL     1       5.526   5.400  17.458  0.00  0.00    +0.000 A 
ATOM      5  C   UNL     1       6.772   4.805  17.382  0.00  0.00    +0.000 A 
ATOM      6  N   UNL     1       7.524   4.768  16.275  0.00  0.00    +0.000 NA
ENDROOT
BRANCH   1   7
ATOM      7  O   UNL     1       7.683   5.323  14.046  0.00  0.00    +0.000 OA
ATOM      8  H   UNL     1       7.467   6.214  13.732  0.00  0.00    +0.000 HD
ENDBRANCH   1   7
BRANCH   5   9
ATOM      9  O   UNL     1       7.359   4.211  18.460  0.00  0.00    +0.000 OA
ATOM     10  H   UNL     1       8.281   4.511  18.514  0.00  0.00    +0.000 HD
ENDBRANCH   5   9
BRANCH   4  11
ATOM     11  C   UNL     1       4.680   5.461  18.696  0.00  0.00    +0.000 C 
BRANCH  11  12
ATOM     12  C   UNL     1       3.539   4.476  18.667  0.00  0.00    +0.000 A 
ATOM     13  C   UNL     1       2.298   4.820  18.114  0.00  0.00    +0.000 A 
ATOM     14  C   UNL     1       1.285   3.864  18.008  0.00  0.00    +0.000 A 
ATOM     15  C   UNL     1       1.498   2.560  18.457  0.00  0.00    +0.000 A 
ATOM     16  C   UNL     1       2.721   2.213  19.026  0.00  0.00    +0.000 A 
ATOM     17  C   UNL     1       3.725   3.169  19.126  0.00  0.00    +0.000 A 
ATOM     18  F   UNL     1       4.910   2.817  19.646  0.00  0.00    +0.000 F 
ENDBRANCH  11  12
ENDBRANCH   4  11
TORSDOF 4
ENDMDL
MODEL 3
REMARK VINA RESULT:      -7.1      1.754      2.659
REMARK  Name = 
REMARK  4 active torsions:
REMARK  status: ('A' for Active; 'I' for Inactive)
REMARK    1  A    between atoms: O_1  and  C_2
REMARK    2  A    between atoms: C_5  and  C_6
REMARK    3  A    between atoms: C_6  and  C_7
REMARK    4  A    between atoms: C_14  and  O_15
REMARK                            x       y       z     vdW  Elec       q    Type
REMARK                         _______ _______ _______ _____ _____    ______ ____
ROOT
ATOM      1  C   UNL     1       7.348   4.456  17.782  0.00  0.00    +0.000 A 
ATOM      2  N   UNL     1       6.844   4.831  18.958  0.00  0.00    +0.000 NA
ATOM      3  C   UNL     1       5.560   5.230  18.915  0.00  0.00    +0.000 A 
ATOM      4  C   UNL     1       4.793   5.260  17.764  0.00  0.00    +0.000 A 
ATOM      5  C   UNL     1       5.464   4.862  16.622  0.00  0.00    +0.000 A 
ATOM      6  N   UNL     1       6.735   4.442  16.603  0.00  0.00    +0.000 NA
ENDROOT
BRANCH   1   7
ATOM      7  O   UNL     1       8.643   4.048  17.830  0.00  0.00    +0.000 OA
ATOM      8  H   UNL     1       9.062   4.840  17.459  0.00  0.00    +0.000 HD
ENDBRANCH   1   7
BRANCH   5   9
ATOM      9  O   UNL     1       4.866   4.844  15.397  0.00  0.00    +0.000 OA
ATOM     10  H   UNL     1       5.353   4.230  14.824  0.00  0.00    +0.000 HD
ENDBRANCH   5   9
BRANCH   4  11
ATOM     11  C   UNL     1       3.365   5.719  17.801  0.00  0.00    +0.000 C 
BRANCH  11  12
ATOM     12  C   UNL     1       2.473   4.775  18.567  0.00  0.00    +0.000 A 
ATOM     13  C   UNL     1       2.013   5.093  19.852  0.00  0.00    +0.000 A 
ATOM     14  C   UNL     1       1.110   4.250  20.506  0.00  0.00    +0.000 A 
ATOM     15  C   UNL     1       0.662   3.083  19.887  0.00  0.00    +0.000 A 
ATOM     16  C   UNL     1       1.128   2.747  18.618  0.00  0.00    +0.000 A 
ATOM     17  C   UNL     1       2.024   3.592  17.972  0.00  0.00    +0.000 A 
ATOM     18  F   UNL     1       2.442   3.276  16.737  0.00  0.00    +0.000 F 
ENDBRANCH  11  12
ENDBRANCH   4  11
TORSDOF 4
ENDMDL
MODEL 4
REMARK VINA RESULT:      -7.1      1.731      2.594
REMARK  Name = 
REMARK  4 active torsions:
REMARK  status: ('A' for Active; 'I' for Inactive)
REMARK    1  A    between atoms: O_1  and  C_2
REMARK    2  A    between atoms: C_5  and  C_6
REMARK    3  A    between atoms: C_6  and  C_7
REMARK    4  A    between atoms: C_14  and  O_15
REMARK                            x       y       z     vdW  Elec       q    Type
REMARK                         _______ _______ _______ _____ _____    ______ ____
ROOT
ATOM      1  C   UNL     1       7.269   4.528  17.822  0.00  0.00    +0.000 A 
ATOM      2  N   UNL     1       6.764   4.817  19.022  0.00  0.00    +0.000 NA
ATOM      3  C   UNL     1       5.500   5.277  19.002  0.00  0.00    +0.000 A 
ATOM      4  C   UNL     1       4.752   5.447  17.850  0.00  0.00    +0.000 A 
ATOM      5  C   UNL     1       5.422   5.124  16.684  0.00  0.00    +0.000 A 
ATOM      6  N   UNL     1       6.673   4.651  16.640  0.00  0.00    +0.000 NA
ENDROOT
BRANCH   1   7
ATOM      7  O   UNL     1       8.544   4.060  17.846  0.00  0.00    +0.000 OA
ATOM      8  H   UNL     1       8.550   3.693  18.743  0.00  0.00    +0.000 HD
ENDBRANCH   1   7
BRANCH   5   9
ATOM      9  O   UNL     1       4.841   5.246  15.456  0.00  0.00    +0.000 OA
ATOM     10  H   UNL     1       4.061   4.670  15.425  0.00  0.00    +0.000 HD
ENDBRANCH   5   9
BRANCH   4  11
ATOM     11  C   UNL     1       3.345   5.964  17.914  0.00  0.00    +0.000 C 
BRANCH  11  12
ATOM     12  C   UNL     1       2.390   4.973  18.529  0.00  0.00    +0.000 A 
ATOM     13  C   UNL     1       2.024   3.802  17.850  0.00  0.00    +0.000 A 
ATOM     14  C   UNL     1       1.215   2.849  18.475  0.00  0.00    +0.000 A 
ATOM     15  C   UNL     1       0.762   3.057  19.779  0.00  0.00    +0.000 A 
ATOM     16  C   UNL     1       1.104   4.225  20.455  0.00  0.00    +0.000 A 
ATOM     17  C   UNL     1       1.912   5.168  19.828  0.00  0.00    +0.000 A 
ATOM     18  F   UNL     1       2.262   6.275  20.499  0.00  0.00    +0.000 F 
ENDBRANCH  11  12
ENDBRANCH   4  11
TORSDOF 4
ENDMDL
MODEL 5
REMARK VINA RESULT:      -7.0      1.655      1.865
REMARK  Name = 
REMARK  4 active torsions:
REMARK  status: ('A' for Active; 'I' for Inactive)
REMARK    1  A    between atoms: O_1  and  C_2
REMARK    2  A    between atoms: C_5  and  C_6
REMARK    3  A    between atoms: C_6  and  C_7
REMARK    4  A    between atoms: C_14  and  O_15
REMARK                            x       y       z     vdW  Elec       q    Type
REMARK                         _______ _______ _______ _____ _____    ______ ____
ROOT
ATOM      1  C   UNL     1       6.563   5.486  16.170  0.00  0.00    +0.000 A 
ATOM      2  N   UNL     1       5.697   6.498  16.094  0.00  0.00    +0.000 NA
ATOM      3  C   UNL     1       4.830   6.571  17.121  0.00  0.00    +0.000 A 
ATOM      4  C   UNL     1       4.808   5.687  18.186  0.00  0.00    +0.000 A 
ATOM      5  C   UNL     1       5.754   4.681  18.108  0.00  0.00    +0.000 A 
ATOM      6  N   UNL     1       6.651   4.563  17.122  0.00  0.00    +0.000 NA
ENDROOT
BRANCH   1   7
ATOM      7  O   UNL     1       7.440   5.419  15.136  0.00  0.00    +0.000 OA
ATOM      8  H   UNL     1       7.031   6.075  14.551  0.00  0.00    +0.000 HD
ENDBRANCH   1   7
BRANCH   5   9
ATOM      9  O   UNL     1       5.864   3.715  19.065  0.00  0.00    +0.000 OA
ATOM     10  H   UNL     1       5.169   3.053  18.916  0.00  0.00    +0.000 HD
ENDBRANCH   5   9
BRANCH   4  11
ATOM     11  C   UNL     1       3.807   5.839  19.293  0.00  0.00    +0.000 C 
BRANCH  11  12
ATOM     12  C   UNL     1       2.704   4.815  19.220  0.00  0.00    +0.000 A 
ATOM     13  C   UNL     1       2.322   4.245  17.997  0.00  0.00    +0.000 A 
ATOM     14  C   UNL     1       1.364   3.228  17.963  0.00  0.00    +0.000 A 
ATOM     15  C   UNL     1       0.777   2.773  19.144  0.00  0.00    +0.000 A 
ATOM     16  C   UNL     1       1.135   3.345  20.362  0.00  0.00    +0.000 A 
ATOM     17  C   UNL     1       2.091   4.356  20.389  0.00  0.00    +0.000 A 
ATOM     18  F   UNL     1       2.452   4.879  21.570  0.00  0.00    +0.000 F 
ENDBRANCH  11  12
ENDBRANCH   4  11
TORSDOF 4
ENDMDL
MODEL 6
REMARK VINA RESULT:      -7.0      2.131      3.047
REMARK  Name = 
REMARK  4 active torsions:
REMARK  status: ('A' for Active; 'I' for Inactive)
REMARK    1  A    between atoms: O_1  and  C_2
REMARK    2  A    between atoms: C_5  and  C_6
REMARK    3  A    between atoms: C_6  and  C_7
REMARK    4  A    between atoms: C_14  and  O_15
REMARK                            x       y       z     vdW  Elec       q    Type
REMARK                         _______ _______ _______ _____ _____    ______ ____
ROOT
ATOM      1  C   UNL     1       7.539   6.480  18.252  0.00  0.00    +0.000 A 
ATOM      2  N   UNL     1       7.300   5.344  18.909  0.00  0.00    +0.000 NA
ATOM      3  C   UNL     1       6.393   4.540  18.324  0.00  0.00    +0.000 A 
ATOM      4  C   UNL     1       5.743   4.833  17.138  0.00  0.00    +0.000 A 
ATOM      5  C   UNL     1       6.083   6.056  16.590  0.00  0.00    +0.000 A 
ATOM      6  N   UNL     1       6.986   6.893  17.117  0.00  0.00    +0.000 NA
ENDROOT
BRANCH   1   7
ATOM      7  O   UNL     1       8.459   7.287  18.842  0.00  0.00    +0.000 OA
ATOM      8  H   UNL     1       7.965   8.121  18.812  0.00  0.00    +0.000 HD
ENDBRANCH   1   7
BRANCH   5   9
ATOM      9  O   UNL     1       5.527   6.512  15.431  0.00  0.00    +0.000 OA
ATOM     10  H   UNL     1       6.056   6.184  14.686  0.00  0.00    +0.000 HD
ENDBRANCH   5   9
BRANCH   4  11
ATOM     11  C   UNL     1       4.744   3.880  16.551  0.00  0.00    +0.000 C 
BRANCH  11  12
ATOM     12  C   UNL     1       3.532   3.697  17.430  0.00  0.00    +0.000 A 
ATOM     13  C   UNL     1       2.699   4.777  17.750  0.00  0.00    +0.000 A 
ATOM     14  C   UNL     1       1.528   4.570  18.484  0.00  0.00    +0.000 A 
ATOM     15  C   UNL     1       1.181   3.286  18.909  0.00  0.00    +0.000 A 
ATOM     16  C   UNL     1       2.013   2.209  18.614  0.00  0.00    +0.000 A 
ATOM     17  C   UNL     1       3.175   2.423  17.880  0.00  0.00    +0.000 A 
ATOM     18  F   UNL     1       3.953   1.374  17.573  0.00  0.00    +0.000 F 
ENDBRANCH  11  12
ENDBRANCH   4  11
TORSDOF 4
ENDMDL
MODEL 7
REMARK VINA RESULT:      -7.0      1.720      2.238
REMARK  Name = 
REMARK  4 active torsions:
REMARK  status: ('A' for Active; 'I' for Inactive)
REMARK    1  A    between atoms: O_1  and  C_2
REMARK    2  A    between atoms: C_5  and  C_6
REMARK    3  A    between atoms: C_6  and  C_7
REMARK    4  A    between atoms: C_14  and  O_15
REMARK                            x       y       z     vdW  Elec       q    Type
REMARK                         _______ _______ _______ _____ _____    ______ ____
ROOT
ATOM      1  C   UNL     1       6.975   4.507  17.296  0.00  0.00    +0.000 A 
ATOM      2  N   UNL     1       6.202   4.549  16.210  0.00  0.00    +0.000 NA
ATOM      3  C   UNL     1       4.947   4.983  16.432  0.00  0.00    +0.000 A 
ATOM      4  C   UNL     1       4.464   5.364  17.672  0.00  0.00    +0.000 A 
ATOM      5  C   UNL     1       5.380   5.244  18.701  0.00  0.00    +0.000 A 
ATOM      6  N   UNL     1       6.644   4.832  18.541  0.00  0.00    +0.000 NA
ENDROOT
BRANCH   1   7
ATOM      7  O   UNL     1       8.242   4.074  17.068  0.00  0.00    +0.000 OA
ATOM      8  H   UNL     1       8.510   4.738  16.414  0.00  0.00    +0.000 HD
ENDBRANCH   1   7
BRANCH   5   9
ATOM      9  O   UNL     1       5.068   5.562  19.990  0.00  0.00    +0.000 OA
ATOM     10  H   UNL     1       5.871   5.479  20.530  0.00  0.00    +0.000 HD
ENDBRANCH   5   9
BRANCH   4  11
ATOM     11  C   UNL     1       3.050   5.838  17.834  0.00  0.00    +0.000 C 
BRANCH  11  12
ATOM     12  C   UNL     1       2.173   4.821  18.518  0.00  0.00    +0.000 A 
ATOM     13  C   UNL     1       1.829   3.618  17.886  0.00  0.00    +0.000 A 
ATOM     14  C   UNL     1       1.096   2.645  18.572  0.00  0.00    +0.000 A 
ATOM     15  C   UNL     1       0.696   2.866  19.891  0.00  0.00    +0.000 A 
ATOM     16  C   UNL     1       1.015   4.066  20.521  0.00  0.00    +0.000 A 
ATOM     17  C   UNL     1       1.747   5.027  19.833  0.00  0.00    +0.000 A 
ATOM     18  F   UNL     1       2.077   6.166  20.460  0.00  0.00    +0.000 F 
ENDBRANCH  11  12
ENDBRANCH   4  11
TORSDOF 4
ENDMDL
MODEL 8
REMARK VINA RESULT:      -6.9      2.344      2.735
REMARK  Name = 
REMARK  4 active torsions:
REMARK  status: ('A' for Active; 'I' for Inactive)
REMARK    1  A    between atoms: O_1  and  C_2
REMARK    2  A    between atoms: C_5  and  C_6
REMARK    3  A    between atoms: C_6  and  C_7
REMARK    4  A    between atoms: C_14  and  O_15
REMARK                            x       y       z     vdW  Elec       q    Type
REMARK                         _______ _______ _______ _____ _____    ______ ____
ROOT
ATOM      1  C   UNL     1       7.244   6.196  18.513  0.00  0.00    +0.000 A 
ATOM      2  N   UNL     1       6.549   6.857  17.587  0.00  0.00    +0.000 NA
ATOM      3  C   UNL     1       5.423   6.240  17.186  0.00  0.00    +0.000 A 
ATOM      4  C   UNL     1       4.989   5.019  17.672  0.00  0.00    +0.000 A 
ATOM      5  C   UNL     1       5.829   4.450  18.611  0.00  0.00    +0.000 A 
ATOM      6  N   UNL     1       6.954   5.020  19.060  0.00  0.00    +0.000 NA
ENDROOT
BRANCH   1   7
ATOM      7  O   UNL     1       8.378   6.824  18.921  0.00  0.00    +0.000 OA
ATOM      8  H   UNL     1       8.225   7.688  18.509  0.00  0.00    +0.000 HD
ENDBRANCH   1   7
BRANCH   5   9
ATOM      9  O   UNL     1       5.564   3.241  19.185  0.00  0.00    +0.000 OA
ATOM     10  H   UNL     1       6.360   2.689  19.122  0.00  0.00    +0.000 HD
ENDBRANCH   5   9
BRANCH   4  11
ATOM     11  C   UNL     1       3.719   4.398  17.171  0.00  0.00    +0.000 C 
BRANCH  11  12
ATOM     12  C   UNL     1       2.747   4.090  18.282  0.00  0.00    +0.000 A 
ATOM     13  C   UNL     1       2.433   5.047  19.257  0.00  0.00    +0.000 A 
ATOM     14  C   UNL     1       1.458   4.777  20.221  0.00  0.00    +0.000 A 
ATOM     15  C   UNL     1       0.792   3.551  20.224  0.00  0.00    +0.000 A 
ATOM     16  C   UNL     1       1.110   2.586  19.272  0.00  0.00    +0.000 A 
ATOM     17  C   UNL     1       2.079   2.862  18.314  0.00  0.00    +0.000 A 
ATOM     18  F   UNL     1       2.356   1.939  17.382  0.00  0.00    +0.000 F 
ENDBRANCH  11  12
ENDBRANCH   4  11
TORSDOF 4
ENDMDL
MODEL 9
REMARK VINA RESULT:      -6.9      3.389      5.411
REMARK  Name = 
REMARK  4 active torsions:
REMARK  status: ('A' for Active; 'I' for Inactive)
REMARK    1  A    between atoms: O_1  and  C_2
REMARK    2  A    between atoms: C_5  and  C_6
REMARK    3  A    between atoms: C_6  and  C_7
REMARK    4  A    between atoms: C_14  and  O_15
REMARK                            x       y       z     vdW  Elec       q    Type
REMARK                         _______ _______ _______ _____ _____    ______ ____
ROOT
ATOM      1  C   UNL     1       1.528   3.249  19.226  0.00  0.00    +0.000 A 
ATOM      2  N   UNL     1       1.577   4.494  18.751  0.00  0.00    +0.000 NA
ATOM      3  C   UNL     1       2.591   4.727  17.898  0.00  0.00    +0.000 A 
ATOM      4  C   UNL     1       3.525   3.779  17.520  0.00  0.00    +0.000 A 
ATOM      5  C   UNL     1       3.351   2.542  18.114  0.00  0.00    +0.000 A 
ATOM      6  N   UNL     1       2.356   2.245  18.959  0.00  0.00    +0.000 NA
ENDROOT
BRANCH   1   7
ATOM      7  O   UNL     1       0.500   3.014  20.082  0.00  0.00    +0.000 OA
ATOM      8  H   UNL     1      -0.233   3.054  19.449  0.00  0.00    +0.000 HD
ENDBRANCH   1   7
BRANCH   5   9
ATOM      9  O   UNL     1       4.189   1.495  17.867  0.00  0.00    +0.000 OA
ATOM     10  H   UNL     1       5.062   1.704  18.237  0.00  0.00    +0.000 HD
ENDBRANCH   5   9
BRANCH   4  11
ATOM     11  C   UNL     1       4.626   4.121  16.561  0.00  0.00    +0.000 C 
BRANCH  11  12
ATOM     12  C   UNL     1       5.652   5.047  17.163  0.00  0.00    +0.000 A 
ATOM     13  C   UNL     1       6.559   4.594  18.131  0.00  0.00    +0.000 A 
ATOM     14  C   UNL     1       7.564   5.441  18.606  0.00  0.00    +0.000 A 
ATOM     15  C   UNL     1       7.670   6.747  18.124  0.00  0.00    +0.000 A 
ATOM     16  C   UNL     1       6.761   7.213  17.178  0.00  0.00    +0.000 A 
ATOM     17  C   UNL     1       5.766   6.364  16.708  0.00  0.00    +0.000 A 
ATOM     18  F   UNL     1       4.915   6.812  15.773  0.00  0.00    +0.000 F 
ENDBRANCH  11  12
ENDBRANCH   4  11
TORSDOF 4
ENDMDL
