MODEL 1
REMARK VINA RESULT:      -7.8      0.000      0.000
REMARK  Name = 
REMARK  9 active torsions:
REMARK  status: ('A' for Active; 'I' for Inactive)
REMARK    1  A    between atoms: C_1  and  C_2
REMARK    2  A    between atoms: C_2  and  O_3
REMARK    3  A    between atoms: O_3  and  C_4
REMARK    4  A    between atoms: C_4  and  C_6
REMARK    5  A    between atoms: C_8  and  C_9
REMARK    6  A    between atoms: C_9  and  C_10
REMARK    7  A    between atoms: C_12  and  N_13
REMARK    8  A    between atoms: C_14  and  C_16
REMARK    9  A    between atoms: C_16  and  C_17
REMARK                            x       y       z     vdW  Elec       q    Type
REMARK                         _______ _______ _______ _____ _____    ______ ____
ROOT
ATOM      1  C   UNL     1       6.760   5.422  17.593  0.00  0.00    +0.000 A 
ATOM      2  C   UNL     1       7.408   5.238  16.318  0.00  0.00    +0.000 A 
ATOM      3  C   UNL     1       6.595   4.633  15.378  0.00  0.00    +0.000 A 
ATOM      4  S   UNL     1       5.057   4.265  16.038  0.00  0.00    +0.000 S 
ATOM      5  C   UNL     1       5.435   5.037  17.502  0.00  0.00    +0.000 A 
ENDROOT
BRANCH   5   6
ATOM      6  N   UNL     1       4.364   5.163  18.362  0.00  0.00    +0.000 N 
ATOM      7  C   UNL     1       3.594   6.318  18.335  0.00  0.00    +0.000 C 
ATOM      8  O   UNL     1       3.709   7.226  17.512  0.00  0.00    +0.000 OA
ATOM      9  H   UNL     1       3.896   4.311  18.641  0.00  0.00    +0.000 HD
BRANCH   7  10
ATOM     10  C   UNL     1       2.523   6.358  19.408  0.00  0.00    +0.000 C 
BRANCH  10  11
ATOM     11  C   UNL     1       2.100   5.001  19.922  0.00  0.00    +0.000 A 
ATOM     12  C   UNL     1       2.448   4.600  21.219  0.00  0.00    +0.000 A 
ATOM     13  C   UNL     1       2.018   3.368  21.722  0.00  0.00    +0.000 A 
ATOM     14  C   UNL     1       1.230   2.530  20.937  0.00  0.00    +0.000 A 
ATOM     15  C   UNL     1       0.871   2.922  19.650  0.00  0.00    +0.000 A 
ATOM     16  C   UNL     1       1.299   4.152  19.145  0.00  0.00    +0.000 A 
ENDBRANCH  10  11
ENDBRANCH   7  10
ENDBRANCH   5   6
BRANCH   1  17
ATOM     17  C   UNL     1       7.387   5.924  18.809  0.00  0.00    +0.000 C 
ATOM     18  O   UNL     1       7.183   5.459  19.928  0.00  0.00    +0.000 OA
BRANCH  17  19
ATOM     19  O   UNL     1       8.220   6.978  18.559  0.00  0.00    +0.000 OA
BRANCH  19  21
ATOM     20  C   UNL     1       8.378   9.322  18.098  0.00  0.00    +0.000 C 
ATOM     21  C   UNL     1       7.628   8.036  17.796  0.00  0.00    +0.000 C 
ENDBRANCH  19  21
ENDBRANCH  17  19
ENDBRANCH   1  17
BRANCH   3  22
ATOM     22  C   UNL     1       6.933   4.261  13.966  0.00  0.00    +0.000 C 
ATOM     23  C   UNL     1       5.731   3.713  13.208  0.00  0.00    +0.000 C 
ENDBRANCH   3  22
TORSDOF 7
ENDMDL
MODEL 2
REMARK VINA RESULT:      -7.6      1.117      1.684
REMARK  Name = 
REMARK  9 active torsions:
REMARK  status: ('A' for Active; 'I' for Inactive)
REMARK    1  A    between atoms: C_1  and  C_2
REMARK    2  A    between atoms: C_2  and  O_3
REMARK    3  A    between atoms: O_3  and  C_4
REMARK    4  A    between atoms: C_4  and  C_6
REMARK    5  A    between atoms: C_8  and  C_9
REMARK    6  A    between atoms: C_9  and  C_10
REMARK    7  A    between atoms: C_12  and  N_13
REMARK    8  A    between atoms: C_14  and  C_16
REMARK    9  A    between atoms: C_16  and  C_17
REMARK                            x       y       z     vdW  Elec       q    Type
REMARK                         _______ _______ _______ _____ _____    ______ ____
ROOT
ATOM      1  C   UNL     1       6.768   4.604  16.476  0.00  0.00    +0.000 A 
ATOM      2  C   UNL     1       7.267   4.396  15.140  0.00  0.00    +0.000 A 
ATOM      3  C   UNL     1       6.267   4.155  14.218  0.00  0.00    +0.000 A 
ATOM      4  S   UNL     1       4.726   4.155  14.966  0.00  0.00    +0.000 S 
ATOM      5  C   UNL     1       5.386   4.617  16.460  0.00  0.00    +0.000 A 
ENDROOT
BRANCH   5   6
ATOM      6  N   UNL     1       4.443   4.935  17.416  0.00  0.00    +0.000 N 
ATOM      7  C   UNL     1       3.999   6.246  17.532  0.00  0.00    +0.000 C 
ATOM      8  O   UNL     1       4.292   7.163  16.764  0.00  0.00    +0.000 OA
ATOM      9  H   UNL     1       3.789   4.210  17.676  0.00  0.00    +0.000 HD
BRANCH   7  10
ATOM     10  C   UNL     1       3.048   6.464  18.693  0.00  0.00    +0.000 C 
BRANCH  10  11
ATOM     11  C   UNL     1       2.260   5.238  19.096  0.00  0.00    +0.000 A 
ATOM     12  C   UNL     1       1.713   4.399  18.116  0.00  0.00    +0.000 A 
ATOM     13  C   UNL     1       1.028   3.236  18.477  0.00  0.00    +0.000 A 
ATOM     14  C   UNL     1       0.889   2.896  19.821  0.00  0.00    +0.000 A 
ATOM     15  C   UNL     1       1.437   3.717  20.804  0.00  0.00    +0.000 A 
ATOM     16  C   UNL     1       2.122   4.880  20.445  0.00  0.00    +0.000 A 
ENDBRANCH  10  11
ENDBRANCH   7  10
ENDBRANCH   5   6
BRANCH   1  17
ATOM     17  C   UNL     1       7.577   4.768  17.678  0.00  0.00    +0.000 C 
ATOM     18  O   UNL     1       8.553   4.071  17.948  0.00  0.00    +0.000 OA
BRANCH  17  19
ATOM     19  O   UNL     1       7.117   5.780  18.471  0.00  0.00    +0.000 OA
BRANCH  19  21
ATOM     20  C   UNL     1       7.717   7.915  17.569  0.00  0.00    +0.000 C 
ATOM     21  C   UNL     1       8.028   6.874  18.631  0.00  0.00    +0.000 C 
ENDBRANCH  19  21
ENDBRANCH  17  19
ENDBRANCH   1  17
BRANCH   3  22
ATOM     22  C   UNL     1       6.408   3.869  12.753  0.00  0.00    +0.000 C 
ATOM     23  C   UNL     1       5.123   3.327  12.142  0.00  0.00    +0.000 C 
ENDBRANCH   3  22
TORSDOF 7
ENDMDL
MODEL 3
REMARK VINA RESULT:      -7.6      1.107      1.313
REMARK  Name = 
REMARK  9 active torsions:
REMARK  status: ('A' for Active; 'I' for Inactive)
REMARK    1  A    between atoms: C_1  and  C_2
REMARK    2  A    between atoms: C_2  and  O_3
REMARK    3  A    between atoms: O_3  and  C_4
REMARK    4  A    between atoms: C_4  and  C_6
REMARK    5  A    between atoms: C_8  and  C_9
REMARK    6  A    between atoms: C_9  and  C_10
REMARK    7  A    between atoms: C_12  and  N_13
REMARK    8  A    between atoms: C_14  and  C_16
REMARK    9  A    between atoms: C_16  and  C_17
REMARK                            x       y       z     vdW  Elec       q    Type
REMARK                         _______ _______ _______ _____ _____    ______ ____
ROOT
ATOM      1  C   UNL     1       6.794   4.631  16.438  0.00  0.00    +0.000 A 
ATOM      2  C   UNL     1       7.329   4.469  15.108  0.00  0.00    +0.000 A 
ATOM      3  C   UNL     1       6.357   4.235  14.156  0.00  0.00    +0.000 A 
ATOM      4  S   UNL     1       4.797   4.187  14.866  0.00  0.00    +0.000 S 
ATOM      5  C   UNL     1       5.413   4.620  16.387  0.00  0.00    +0.000 A 
ENDROOT
BRANCH   5   6
ATOM      6  N   UNL     1       4.441   4.895  17.328  0.00  0.00    +0.000 N 
ATOM      7  C   UNL     1       4.009   6.203  17.506  0.00  0.00    +0.000 C 
ATOM      8  O   UNL     1       4.340   7.159  16.804  0.00  0.00    +0.000 OA
ATOM      9  H   UNL     1       3.770   4.165  17.522  0.00  0.00    +0.000 HD
BRANCH   7  10
ATOM     10  C   UNL     1       3.022   6.365  18.645  0.00  0.00    +0.000 C 
BRANCH  10  11
ATOM     11  C   UNL     1       2.421   5.070  19.143  0.00  0.00    +0.000 A 
ATOM     12  C   UNL     1       2.615   4.670  20.471  0.00  0.00    +0.000 A 
ATOM     13  C   UNL     1       2.021   3.501  20.956  0.00  0.00    +0.000 A 
ATOM     14  C   UNL     1       1.222   2.725  20.119  0.00  0.00    +0.000 A 
ATOM     15  C   UNL     1       1.015   3.117  18.799  0.00  0.00    +0.000 A 
ATOM     16  C   UNL     1       1.607   4.285  18.312  0.00  0.00    +0.000 A 
ENDBRANCH  10  11
ENDBRANCH   7  10
ENDBRANCH   5   6
BRANCH   1  17
ATOM     17  C   UNL     1       7.571   4.776  17.663  0.00  0.00    +0.000 C 
ATOM     18  O   UNL     1       8.530   4.065  17.954  0.00  0.00    +0.000 OA
BRANCH  17  19
ATOM     19  O   UNL     1       7.100   5.787  18.451  0.00  0.00    +0.000 OA
BRANCH  19  21
ATOM     20  C   UNL     1       7.724   7.920  17.560  0.00  0.00    +0.000 C 
ATOM     21  C   UNL     1       8.010   6.879  18.628  0.00  0.00    +0.000 C 
ENDBRANCH  19  21
ENDBRANCH  17  19
ENDBRANCH   1  17
BRANCH   3  22
ATOM     22  C   UNL     1       6.538   3.993  12.688  0.00  0.00    +0.000 C 
ATOM     23  C   UNL     1       5.377   3.217  12.080  0.00  0.00    +0.000 C 
ENDBRANCH   3  22
TORSDOF 7
ENDMDL
MODEL 4
REMARK VINA RESULT:      -7.5      0.763      1.286
REMARK  Name = 
REMARK  9 active torsions:
REMARK  status: ('A' for Active; 'I' for Inactive)
REMARK    1  A    between atoms: C_1  and  C_2
REMARK    2  A    between atoms: C_2  and  O_3
REMARK    3  A    between atoms: O_3  and  C_4
REMARK    4  A    between atoms: C_4  and  C_6
REMARK    5  A    between atoms: C_8  and  C_9
REMARK    6  A    between atoms: C_9  and  C_10
REMARK    7  A    between atoms: C_12  and  N_13
REMARK    8  A    between atoms: C_14  and  C_16
REMARK    9  A    between atoms: C_16  and  C_17
REMARK                            x       y       z     vdW  Elec       q    Type
REMARK                         _______ _______ _______ _____ _____    ______ ____
ROOT
ATOM      1  C   UNL     1       6.798   5.699  16.727  0.00  0.00    +0.000 A 
ATOM      2  C   UNL     1       7.217   5.390  15.382  0.00  0.00    +0.000 A 
ATOM      3  C   UNL     1       6.379   4.496  14.744  0.00  0.00    +0.000 A 
ATOM      4  S   UNL     1       5.099   4.008  15.773  0.00  0.00    +0.000 S 
ATOM      5  C   UNL     1       5.584   5.091  16.987  0.00  0.00    +0.000 A 
ENDROOT
BRANCH   5   6
ATOM      6  N   UNL     1       4.691   5.196  18.034  0.00  0.00    +0.000 N 
ATOM      7  C   UNL     1       3.860   6.305  18.118  0.00  0.00    +0.000 C 
ATOM      8  O   UNL     1       3.761   7.182  17.259  0.00  0.00    +0.000 OA
ATOM      9  H   UNL     1       4.338   4.333  18.425  0.00  0.00    +0.000 HD
BRANCH   7  10
ATOM     10  C   UNL     1       3.014   6.334  19.376  0.00  0.00    +0.000 C 
BRANCH  10  11
ATOM     11  C   UNL     1       2.268   5.050  19.659  0.00  0.00    +0.000 A 
ATOM     12  C   UNL     1       1.699   4.320  18.608  0.00  0.00    +0.000 A 
ATOM     13  C   UNL     1       1.053   3.105  18.853  0.00  0.00    +0.000 A 
ATOM     14  C   UNL     1       0.975   2.605  20.151  0.00  0.00    +0.000 A 
ATOM     15  C   UNL     1       1.545   3.318  21.204  0.00  0.00    +0.000 A 
ATOM     16  C   UNL     1       2.192   4.532  20.961  0.00  0.00    +0.000 A 
ENDBRANCH  10  11
ENDBRANCH   7  10
ENDBRANCH   5   6
BRANCH   1  17
ATOM     17  C   UNL     1       7.530   6.515  17.687  0.00  0.00    +0.000 C 
ATOM     18  O   UNL     1       7.704   6.200  18.862  0.00  0.00    +0.000 OA
BRANCH  17  19
ATOM     19  O   UNL     1       7.990   7.674  17.129  0.00  0.00    +0.000 OA
BRANCH  19  21
ATOM     20  C   UNL     1       8.648   9.675  18.267  0.00  0.00    +0.000 C 
ATOM     21  C   UNL     1       7.478   8.869  17.730  0.00  0.00    +0.000 C 
ENDBRANCH  19  21
ENDBRANCH  17  19
ENDBRANCH   1  17
BRANCH   3  22
ATOM     22  C   UNL     1       6.511   3.928  13.362  0.00  0.00    +0.000 C 
ATOM     23  C   UNL     1       5.165   3.549  12.760  0.00  0.00    +0.000 C 
ENDBRANCH   3  22
TORSDOF 7
ENDMDL
MODEL 5
REMARK VINA RESULT:      -7.2      1.491      1.647
REMARK  Name = 
REMARK  9 active torsions:
REMARK  status: ('A' for Active; 'I' for Inactive)
REMARK    1  A    between atoms: C_1  and  C_2
REMARK    2  A    between atoms: C_2  and  O_3
REMARK    3  A    between atoms: O_3  and  C_4
REMARK    4  A    between atoms: C_4  and  C_6
REMARK    5  A    between atoms: C_8  and  C_9
REMARK    6  A    between atoms: C_9  and  C_10
REMARK    7  A    between atoms: C_12  and  N_13
REMARK    8  A    between atoms: C_14  and  C_16
REMARK    9  A    between atoms: C_16  and  C_17
REMARK                            x       y       z     vdW  Elec       q    Type
REMARK                         _______ _______ _______ _____ _____    ______ ____
ROOT
ATOM      1  C   UNL     1       6.860   5.036  16.284  0.00  0.00    +0.000 A 
ATOM      2  C   UNL     1       7.604   4.833  15.066  0.00  0.00    +0.000 A 
ATOM      3  C   UNL     1       6.796   4.618  13.966  0.00  0.00    +0.000 A 
ATOM      4  S   UNL     1       5.140   4.637  14.403  0.00  0.00    +0.000 S 
ATOM      5  C   UNL     1       5.507   5.072  16.002  0.00  0.00    +0.000 A 
ENDROOT
BRANCH   5   6
ATOM      6  N   UNL     1       4.402   5.397  16.763  0.00  0.00    +0.000 N 
ATOM      7  C   UNL     1       3.596   4.386  17.269  0.00  0.00    +0.000 C 
ATOM      8  O   UNL     1       3.842   3.182  17.197  0.00  0.00    +0.000 OA
ATOM      9  H   UNL     1       4.449   6.252  17.300  0.00  0.00    +0.000 HD
BRANCH   7  10
ATOM     10  C   UNL     1       2.364   4.898  17.990  0.00  0.00    +0.000 C 
BRANCH  10  11
ATOM     11  C   UNL     1       2.027   4.151  19.260  0.00  0.00    +0.000 A 
ATOM     12  C   UNL     1       2.628   4.516  20.472  0.00  0.00    +0.000 A 
ATOM     13  C   UNL     1       2.284   3.867  21.661  0.00  0.00    +0.000 A 
ATOM     14  C   UNL     1       1.331   2.851  21.652  0.00  0.00    +0.000 A 
ATOM     15  C   UNL     1       0.720   2.485  20.455  0.00  0.00    +0.000 A 
ATOM     16  C   UNL     1       1.061   3.133  19.265  0.00  0.00    +0.000 A 
ENDBRANCH  10  11
ENDBRANCH   7  10
ENDBRANCH   5   6
BRANCH   1  17
ATOM     17  C   UNL     1       7.425   5.174  17.621  0.00  0.00    +0.000 C 
ATOM     18  O   UNL     1       8.147   4.331  18.149  0.00  0.00    +0.000 OA
BRANCH  17  19
ATOM     19  O   UNL     1       7.048   6.343  18.218  0.00  0.00    +0.000 OA
BRANCH  19  21
ATOM     20  C   UNL     1       7.897   8.521  17.702  0.00  0.00    +0.000 C 
ATOM     21  C   UNL     1       8.126   7.245  18.494  0.00  0.00    +0.000 C 
ENDBRANCH  19  21
ENDBRANCH  17  19
ENDBRANCH   1  17
BRANCH   3  22
ATOM     22  C   UNL     1       7.212   4.345  12.552  0.00  0.00    +0.000 C 
ATOM     23  C   UNL     1       6.431   3.196  11.928  0.00  0.00    +0.000 C 
ENDBRANCH   3  22
TORSDOF 7
ENDMDL
MODEL 6
REMARK VINA RESULT:      -7.1      1.761      6.106
REMARK  Name = 
REMARK  9 active torsions:
REMARK  status: ('A' for Active; 'I' for Inactive)
REMARK    1  A    between atoms: C_1  and  C_2
REMARK    2  A    between atoms: C_2  and  O_3
REMARK    3  A    between atoms: O_3  and  C_4
REMARK    4  A    between atoms: C_4  and  C_6
REMARK    5  A    between atoms: C_8  and  C_9
REMARK    6  A    between atoms: C_9  and  C_10
REMARK    7  A    between atoms: C_12  and  N_13
REMARK    8  A    between atoms: C_14  and  C_16
REMARK    9  A    between atoms: C_16  and  C_17
REMARK                            x       y       z     vdW  Elec       q    Type
REMARK                         _______ _______ _______ _____ _____    ______ ____
ROOT
ATOM      1  C   UNL     1       5.014   4.752  18.567  0.00  0.00    +0.000 A 
ATOM      2  C   UNL     1       3.869   4.489  19.403  0.00  0.00    +0.000 A 
ATOM      3  C   UNL     1       2.894   3.743  18.769  0.00  0.00    +0.000 A 
ATOM      4  S   UNL     1       3.347   3.378  17.157  0.00  0.00    +0.000 S 
ATOM      5  C   UNL     1       4.878   4.081  17.366  0.00  0.00    +0.000 A 
ENDROOT
BRANCH   5   6
ATOM      6  N   UNL     1       5.742   3.867  16.312  0.00  0.00    +0.000 N 
ATOM      7  C   UNL     1       5.756   4.756  15.245  0.00  0.00    +0.000 C 
ATOM      8  O   UNL     1       5.130   5.815  15.198  0.00  0.00    +0.000 OA
ATOM      9  H   UNL     1       6.609   3.391  16.518  0.00  0.00    +0.000 HD
BRANCH   7  10
ATOM     10  C   UNL     1       6.675   4.332  14.115  0.00  0.00    +0.000 C 
BRANCH  10  11
ATOM     11  C   UNL     1       5.977   3.644  12.965  0.00  0.00    +0.000 A 
ATOM     12  C   UNL     1       6.556   2.520  12.361  0.00  0.00    +0.000 A 
ATOM     13  C   UNL     1       5.893   1.846  11.331  0.00  0.00    +0.000 A 
ATOM     14  C   UNL     1       4.644   2.284  10.899  0.00  0.00    +0.000 A 
ATOM     15  C   UNL     1       4.054   3.395  11.498  0.00  0.00    +0.000 A 
ATOM     16  C   UNL     1       4.713   4.070  12.528  0.00  0.00    +0.000 A 
ENDBRANCH  10  11
ENDBRANCH   7  10
ENDBRANCH   5   6
BRANCH   1  17
ATOM     17  C   UNL     1       6.149   5.601  18.910  0.00  0.00    +0.000 C 
ATOM     18  O   UNL     1       6.901   5.389  19.859  0.00  0.00    +0.000 OA
BRANCH  17  19
ATOM     19  O   UNL     1       6.270   6.663  18.059  0.00  0.00    +0.000 OA
BRANCH  19  21
ATOM     20  C   UNL     1       8.058   8.248  17.912  0.00  0.00    +0.000 C 
ATOM     21  C   UNL     1       7.587   6.856  17.530  0.00  0.00    +0.000 C 
ENDBRANCH  19  21
ENDBRANCH  17  19
ENDBRANCH   1  17
BRANCH   3  22
ATOM     22  C   UNL     1       1.566   3.305  19.310  0.00  0.00    +0.000 C 
ATOM     23  C   UNL     1       1.291   3.868  20.698  0.00  0.00    +0.000 C 
ENDBRANCH   3  22
TORSDOF 7
ENDMDL
MODEL 7
REMARK VINA RESULT:      -6.9      1.885      6.134
REMARK  Name = 
REMARK  9 active torsions:
REMARK  status: ('A' for Active; 'I' for Inactive)
REMARK    1  A    between atoms: C_1  and  C_2
REMARK    2  A    between atoms: C_2  and  O_3
REMARK    3  A    between atoms: O_3  and  C_4
REMARK    4  A    between atoms: C_4  and  C_6
REMARK    5  A    between atoms: C_8  and  C_9
REMARK    6  A    between atoms: C_9  and  C_10
REMARK    7  A    between atoms: C_12  and  N_13
REMARK    8  A    between atoms: C_14  and  C_16
REMARK    9  A    between atoms: C_16  and  C_17
REMARK                            x       y       z     vdW  Elec       q    Type
REMARK                         _______ _______ _______ _____ _____    ______ ____
ROOT
ATOM      1  C   UNL     1       5.742   4.454  18.209  0.00  0.00    +0.000 A 
ATOM      2  C   UNL     1       4.640   4.320  19.130  0.00  0.00    +0.000 A 
ATOM      3  C   UNL     1       3.473   3.898  18.523  0.00  0.00    +0.000 A 
ATOM      4  S   UNL     1       3.697   3.685  16.837  0.00  0.00    +0.000 S 
ATOM      5  C   UNL     1       5.359   4.009  16.957  0.00  0.00    +0.000 A 
ENDROOT
BRANCH   5   6
ATOM      6  N   UNL     1       6.062   3.774  15.793  0.00  0.00    +0.000 N 
ATOM      7  C   UNL     1       6.283   4.816  14.902  0.00  0.00    +0.000 C 
ATOM      8  O   UNL     1       6.000   5.996  15.110  0.00  0.00    +0.000 OA
ATOM      9  H   UNL     1       6.757   3.041  15.817  0.00  0.00    +0.000 HD
BRANCH   7  10
ATOM     10  C   UNL     1       6.971   4.383  13.623  0.00  0.00    +0.000 C 
BRANCH  10  11
ATOM     11  C   UNL     1       6.106   3.565  12.692  0.00  0.00    +0.000 A 
ATOM     12  C   UNL     1       4.814   3.999  12.368  0.00  0.00    +0.000 A 
ATOM     13  C   UNL     1       4.026   3.277  11.467  0.00  0.00    +0.000 A 
ATOM     14  C   UNL     1       4.524   2.118  10.877  0.00  0.00    +0.000 A 
ATOM     15  C   UNL     1       5.810   1.681  11.184  0.00  0.00    +0.000 A 
ATOM     16  C   UNL     1       6.600   2.401  12.083  0.00  0.00    +0.000 A 
ENDBRANCH  10  11
ENDBRANCH   7  10
ENDBRANCH   5   6
BRANCH   1  17
ATOM     17  C   UNL     1       7.063   4.985  18.523  0.00  0.00    +0.000 C 
ATOM     18  O   UNL     1       8.104   4.340  18.413  0.00  0.00    +0.000 OA
BRANCH  17  19
ATOM     19  O   UNL     1       7.005   6.276  18.964  0.00  0.00    +0.000 OA
BRANCH  19  21
ATOM     20  C   UNL     1       7.704   8.103  17.585  0.00  0.00    +0.000 C 
ATOM     21  C   UNL     1       8.140   7.076  18.615  0.00  0.00    +0.000 C 
ENDBRANCH  19  21
ENDBRANCH  17  19
ENDBRANCH   1  17
BRANCH   3  22
ATOM     22  C   UNL     1       2.131   3.676  19.152  0.00  0.00    +0.000 C 
ATOM     23  C   UNL     1       1.816   4.708  20.227  0.00  0.00    +0.000 C 
ENDBRANCH   3  22
TORSDOF 7
ENDMDL
MODEL 8
REMARK VINA RESULT:      -6.9      1.960      6.141
REMARK  Name = 
REMARK  9 active torsions:
REMARK  status: ('A' for Active; 'I' for Inactive)
REMARK    1  A    between atoms: C_1  and  C_2
REMARK    2  A    between atoms: C_2  and  O_3
REMARK    3  A    between atoms: O_3  and  C_4
REMARK    4  A    between atoms: C_4  and  C_6
REMARK    5  A    between atoms: C_8  and  C_9
REMARK    6  A    between atoms: C_9  and  C_10
REMARK    7  A    between atoms: C_12  and  N_13
REMARK    8  A    between atoms: C_14  and  C_16
REMARK    9  A    between atoms: C_16  and  C_17
REMARK                            x       y       z     vdW  Elec       q    Type
REMARK                         _______ _______ _______ _____ _____    ______ ____
ROOT
ATOM      1  C   UNL     1       5.887   4.445  18.045  0.00  0.00    +0.000 A 
ATOM      2  C   UNL     1       4.781   4.356  18.966  0.00  0.00    +0.000 A 
ATOM      3  C   UNL     1       3.595   3.994  18.358  0.00  0.00    +0.000 A 
ATOM      4  S   UNL     1       3.806   3.782  16.671  0.00  0.00    +0.000 S 
ATOM      5  C   UNL     1       5.481   4.027  16.791  0.00  0.00    +0.000 A 
ENDROOT
BRANCH   5   6
ATOM      6  N   UNL     1       6.171   3.767  15.624  0.00  0.00    +0.000 N 
ATOM      7  C   UNL     1       6.452   4.806  14.747  0.00  0.00    +0.000 C 
ATOM      8  O   UNL     1       6.237   5.998  14.969  0.00  0.00    +0.000 OA
ATOM      9  H   UNL     1       6.824   2.996  15.638  0.00  0.00    +0.000 HD
BRANCH   7  10
ATOM     10  C   UNL     1       7.116   4.352  13.462  0.00  0.00    +0.000 C 
BRANCH  10  11
ATOM     11  C   UNL     1       6.214   3.574  12.531  0.00  0.00    +0.000 A 
ATOM     12  C   UNL     1       6.658   2.374  11.961  0.00  0.00    +0.000 A 
ATOM     13  C   UNL     1       5.812   1.620  11.141  0.00  0.00    +0.000 A 
ATOM     14  C   UNL     1       4.514   2.056  10.889  0.00  0.00    +0.000 A 
ATOM     15  C   UNL     1       4.058   3.243  11.458  0.00  0.00    +0.000 A 
ATOM     16  C   UNL     1       4.901   3.997  12.278  0.00  0.00    +0.000 A 
ENDBRANCH  10  11
ENDBRANCH   7  10
ENDBRANCH   5   6
BRANCH   1  17
ATOM     17  C   UNL     1       7.231   4.910  18.361  0.00  0.00    +0.000 C 
ATOM     18  O   UNL     1       8.257   4.324  18.021  0.00  0.00    +0.000 OA
BRANCH  17  19
ATOM     19  O   UNL     1       7.216   6.066  19.088  0.00  0.00    +0.000 OA
BRANCH  19  21
ATOM     20  C   UNL     1       7.649   7.879  17.586  0.00  0.00    +0.000 C 
ATOM     21  C   UNL     1       8.211   7.023  18.708  0.00  0.00    +0.000 C 
ENDBRANCH  19  21
ENDBRANCH  17  19
ENDBRANCH   1  17
BRANCH   3  22
ATOM     22  C   UNL     1       2.244   3.831  18.988  0.00  0.00    +0.000 C 
ATOM     23  C   UNL     1       2.121   2.528  19.767  0.00  0.00    +0.000 C 
ENDBRANCH   3  22
TORSDOF 7
ENDMDL
MODEL 9
REMARK VINA RESULT:      -6.9      1.245      1.690
REMARK  Name = 
REMARK  9 active torsions:
REMARK  status: ('A' for Active; 'I' for Inactive)
REMARK    1  A    between atoms: C_1  and  C_2
REMARK    2  A    between atoms: C_2  and  O_3
REMARK    3  A    between atoms: O_3  and  C_4
REMARK    4  A    between atoms: C_4  and  C_6
REMARK    5  A    between atoms: C_8  and  C_9
REMARK    6  A    between atoms: C_9  and  C_10
REMARK    7  A    between atoms: C_12  and  N_13
REMARK    8  A    between atoms: C_14  and  C_16
REMARK    9  A    between atoms: C_16  and  C_17
REMARK                            x       y       z     vdW  Elec       q    Type
REMARK                         _______ _______ _______ _____ _____    ______ ____
ROOT
ATOM      1  C   UNL     1       6.992   6.175  16.728  0.00  0.00    +0.000 A 
ATOM      2  C   UNL     1       7.530   5.744  15.462  0.00  0.00    +0.000 A 
ATOM      3  C   UNL     1       6.681   4.904  14.768  0.00  0.00    +0.000 A 
ATOM      4  S   UNL     1       5.242   4.615  15.652  0.00  0.00    +0.000 S 
ATOM      5  C   UNL     1       5.696   5.713  16.864  0.00  0.00    +0.000 A 
ENDROOT
BRANCH   5   6
ATOM      6  N   UNL     1       4.702   5.974  17.785  0.00  0.00    +0.000 N 
ATOM      7  C   UNL     1       4.698   5.299  18.999  0.00  0.00    +0.000 C 
ATOM      8  O   UNL     1       5.589   4.546  19.393  0.00  0.00    +0.000 OA
ATOM      9  H   UNL     1       4.303   6.902  17.780  0.00  0.00    +0.000 HD
BRANCH   7  10
ATOM     10  C   UNL     1       3.489   5.609  19.860  0.00  0.00    +0.000 C 
BRANCH  10  11
ATOM     11  C   UNL     1       2.437   4.524  19.876  0.00  0.00    +0.000 A 
ATOM     12  C   UNL     1       1.862   4.083  18.677  0.00  0.00    +0.000 A 
ATOM     13  C   UNL     1       0.927   3.044  18.676  0.00  0.00    +0.000 A 
ATOM     14  C   UNL     1       0.562   2.432  19.873  0.00  0.00    +0.000 A 
ATOM     15  C   UNL     1       1.133   2.855  21.070  0.00  0.00    +0.000 A 
ATOM     16  C   UNL     1       2.069   3.893  21.074  0.00  0.00    +0.000 A 
ENDBRANCH  10  11
ENDBRANCH   7  10
ENDBRANCH   5   6
BRANCH   1  17
ATOM     17  C   UNL     1       7.691   6.968  17.731  0.00  0.00    +0.000 C 
ATOM     18  O   UNL     1       8.100   6.516  18.799  0.00  0.00    +0.000 OA
BRANCH  17  19
ATOM     19  O   UNL     1       7.828   8.273  17.350  0.00  0.00    +0.000 OA
BRANCH  19  21
ATOM     20  C   UNL     1       8.487  10.534  17.781  0.00  0.00    +0.000 C 
ATOM     21  C   UNL     1       8.469   9.112  18.316  0.00  0.00    +0.000 C 
ENDBRANCH  19  21
ENDBRANCH  17  19
ENDBRANCH   1  17
BRANCH   3  22
ATOM     22  C   UNL     1       6.912   4.242  13.443  0.00  0.00    +0.000 C 
ATOM     23  C   UNL     1       5.663   3.552  12.913  0.00  0.00    +0.000 C 
ENDBRANCH   3  22
TORSDOF 7
ENDMDL
