MODEL 1
REMARK VINA RESULT:      -7.4      0.000      0.000
REMARK  Name = 
REMARK  8 active torsions:
REMARK  status: ('A' for Active; 'I' for Inactive)
REMARK    1  A    between atoms: C_1  and  O_2
REMARK    2  A    between atoms: O_2  and  C_3
REMARK    3  A    between atoms: C_6  and  C_7
REMARK    4  A    between atoms: C_7  and  C_8
REMARK    5  A    between atoms: C_8  and  N_9
REMARK    6  A    between atoms: N_12  and  C_13
REMARK    7  A    between atoms: C_21  and  O_22
REMARK    8  A    between atoms: O_22  and  C_23
REMARK                            x       y       z     vdW  Elec       q    Type
REMARK                         _______ _______ _______ _____ _____    ______ ____
ROOT
ATOM      1  N   UNL     1       2.548   6.834  20.477  0.00  0.00    +0.000 N 
ATOM      2  C   UNL     1       1.794   7.997  20.431  0.00  0.00    +0.000 C 
ATOM      3  O   UNL     1       1.469   8.506  19.368  0.00  0.00    +0.000 OA
ATOM      4  N   UNL     1       1.503   8.486  21.684  0.00  0.00    +0.000 N 
ATOM      5  H   UNL     1       2.324   6.219  21.246  0.00  0.00    +0.000 HD
ATOM      6  H   UNL     1       2.144   8.221  22.415  0.00  0.00    +0.000 HD
ENDROOT
BRANCH   4   7
ATOM      7  C   UNL     1       0.666   9.605  21.919  0.00  0.00    +0.000 A 
ATOM      8  C   UNL     1       0.821  10.819  21.237  0.00  0.00    +0.000 A 
ATOM      9  C   UNL     1       0.010  11.918  21.532  0.00  0.00    +0.000 A 
ATOM     10  C   UNL     1      -0.978  11.801  22.501  0.00  0.00    +0.000 A 
ATOM     11 CL   UNL     1      -1.962  13.161  22.883  0.00  0.00    +0.000 Cl
ATOM     12  C   UNL     1      -1.171  10.593  23.165  0.00  0.00    +0.000 A 
ATOM     13  C   UNL     1      -0.358   9.489  22.866  0.00  0.00    +0.000 A 
ENDBRANCH   4   7
BRANCH   1  14
ATOM     14  C   UNL     1       2.822   6.216  19.187  0.00  0.00    +0.000 C 
BRANCH  14  15
ATOM     15  C   UNL     1       3.876   5.115  19.220  0.00  0.00    +0.000 C 
BRANCH  15  19
ATOM     16  C   UNL     1       6.123   5.135  15.507  0.00  0.00    +0.000 A 
ATOM     17  C   UNL     1       5.024   4.281  15.676  0.00  0.00    +0.000 A 
ATOM     18  C   UNL     1       4.300   4.270  16.869  0.00  0.00    +0.000 A 
ATOM     19  C   UNL     1       4.691   5.071  17.946  0.00  0.00    +0.000 A 
ATOM     20  C   UNL     1       5.847   5.851  17.804  0.00  0.00    +0.000 A 
ATOM     21  C   UNL     1       6.573   5.890  16.600  0.00  0.00    +0.000 A 
BRANCH  16  23
ATOM     22  C   UNL     1       6.616   4.081  13.448  0.00  0.00    +0.000 C 
ATOM     23  O   UNL     1       6.769   5.215  14.302  0.00  0.00    +0.000 OA
ENDBRANCH  16  23
BRANCH  21  24
ATOM     24  O   UNL     1       7.654   6.728  16.680  0.00  0.00    +0.000 OA
ATOM     25  C   UNL     1       7.594   7.848  17.548  0.00  0.00    +0.000 C 
ENDBRANCH  21  24
ENDBRANCH  15  19
ENDBRANCH  14  15
ENDBRANCH   1  14
TORSDOF 6
ENDMDL
MODEL 2
REMARK VINA RESULT:      -7.1      4.837      7.351
REMARK  Name = 
REMARK  8 active torsions:
REMARK  status: ('A' for Active; 'I' for Inactive)
REMARK    1  A    between atoms: C_1  and  O_2
REMARK    2  A    between atoms: O_2  and  C_3
REMARK    3  A    between atoms: C_6  and  C_7
REMARK    4  A    between atoms: C_7  and  C_8
REMARK    5  A    between atoms: C_8  and  N_9
REMARK    6  A    between atoms: N_12  and  C_13
REMARK    7  A    between atoms: C_21  and  O_22
REMARK    8  A    between atoms: O_22  and  C_23
REMARK                            x       y       z     vdW  Elec       q    Type
REMARK                         _______ _______ _______ _____ _____    ______ ____
ROOT
ATOM      1  N   UNL     1       8.218   7.517  18.377  0.00  0.00    +0.000 N 
ATOM      2  C   UNL     1       8.395   8.891  18.407  0.00  0.00    +0.000 C 
ATOM      3  O   UNL     1       7.802   9.629  17.633  0.00  0.00    +0.000 OA
ATOM      4  N   UNL     1       9.306   9.285  19.360  0.00  0.00    +0.000 N 
ATOM      5  H   UNL     1       8.265   7.068  19.281  0.00  0.00    +0.000 HD
ATOM      6  H   UNL     1       9.987   8.592  19.626  0.00  0.00    +0.000 HD
ENDROOT
BRANCH   4   7
ATOM      7  C   UNL     1       9.595  10.639  19.663  0.00  0.00    +0.000 A 
ATOM      8  C   UNL     1      10.194  11.506  18.739  0.00  0.00    +0.000 A 
ATOM      9  C   UNL     1      10.512  12.821  19.090  0.00  0.00    +0.000 A 
ATOM     10  C   UNL     1      10.214  13.282  20.366  0.00  0.00    +0.000 A 
ATOM     11 CL   UNL     1      10.627  14.894  20.808  0.00  0.00    +0.000 Cl
ATOM     12  C   UNL     1       9.587  12.447  21.286  0.00  0.00    +0.000 A 
ATOM     13  C   UNL     1       9.265  11.128  20.932  0.00  0.00    +0.000 A 
ENDBRANCH   4   7
BRANCH   1  14
ATOM     14  C   UNL     1       7.206   7.037  17.447  0.00  0.00    +0.000 C 
BRANCH  14  15
ATOM     15  C   UNL     1       6.976   5.530  17.478  0.00  0.00    +0.000 C 
BRANCH  15  19
ATOM     16  C   UNL     1       2.773   4.455  17.571  0.00  0.00    +0.000 A 
ATOM     17  C   UNL     1       3.709   3.633  16.929  0.00  0.00    +0.000 A 
ATOM     18  C   UNL     1       5.062   3.976  16.895  0.00  0.00    +0.000 A 
ATOM     19  C   UNL     1       5.504   5.179  17.452  0.00  0.00    +0.000 A 
ATOM     20  C   UNL     1       4.550   6.041  18.007  0.00  0.00    +0.000 A 
ATOM     21  C   UNL     1       3.187   5.698  18.069  0.00  0.00    +0.000 A 
BRANCH  16  23
ATOM     22  C   UNL     1       1.219   3.016  18.626  0.00  0.00    +0.000 C 
ATOM     23  O   UNL     1       1.464   4.067  17.689  0.00  0.00    +0.000 OA
ENDBRANCH  16  23
BRANCH  21  24
ATOM     24  O   UNL     1       2.438   6.679  18.666  0.00  0.00    +0.000 OA
ATOM     25  C   UNL     1       2.377   7.962  18.063  0.00  0.00    +0.000 C 
ENDBRANCH  21  24
ENDBRANCH  15  19
ENDBRANCH  14  15
ENDBRANCH   1  14
TORSDOF 6
ENDMDL
MODEL 3
REMARK VINA RESULT:      -7.1      0.362      1.066
REMARK  Name = 
REMARK  8 active torsions:
REMARK  status: ('A' for Active; 'I' for Inactive)
REMARK    1  A    between atoms: C_1  and  O_2
REMARK    2  A    between atoms: O_2  and  C_3
REMARK    3  A    between atoms: C_6  and  C_7
REMARK    4  A    between atoms: C_7  and  C_8
REMARK    5  A    between atoms: C_8  and  N_9
REMARK    6  A    between atoms: N_12  and  C_13
REMARK    7  A    between atoms: C_21  and  O_22
REMARK    8  A    between atoms: O_22  and  C_23
REMARK                            x       y       z     vdW  Elec       q    Type
REMARK                         _______ _______ _______ _____ _____    ______ ____
ROOT
ATOM      1  N   UNL     1       2.248   6.731  20.520  0.00  0.00    +0.000 N 
ATOM      2  C   UNL     1       1.590   7.951  20.490  0.00  0.00    +0.000 C 
ATOM      3  O   UNL     1       1.318   8.504  19.435  0.00  0.00    +0.000 OA
ATOM      4  N   UNL     1       1.326   8.439  21.749  0.00  0.00    +0.000 N 
ATOM      5  H   UNL     1       1.968   6.122  21.275  0.00  0.00    +0.000 HD
ATOM      6  H   UNL     1       1.936   8.110  22.481  0.00  0.00    +0.000 HD
ENDROOT
BRANCH   4   7
ATOM      7  C   UNL     1       0.579   9.617  21.999  0.00  0.00    +0.000 A 
ATOM      8  C   UNL     1      -0.436   9.675  22.963  0.00  0.00    +0.000 A 
ATOM      9  C   UNL     1      -1.186  10.840  23.146  0.00  0.00    +0.000 A 
ATOM     10  C   UNL     1      -0.911  11.962  22.375  0.00  0.00    +0.000 A 
ATOM     11 CL   UNL     1      -1.852  13.389  22.582  0.00  0.00    +0.000 Cl
ATOM     12  C   UNL     1       0.116  11.934  21.437  0.00  0.00    +0.000 A 
ATOM     13  C   UNL     1       0.872  10.766  21.256  0.00  0.00    +0.000 A 
ENDBRANCH   4   7
BRANCH   1  14
ATOM     14  C   UNL     1       2.485   6.117  19.221  0.00  0.00    +0.000 C 
BRANCH  14  15
ATOM     15  C   UNL     1       3.544   5.020  19.219  0.00  0.00    +0.000 C 
BRANCH  15  19
ATOM     16  C   UNL     1       5.953   5.314  15.621  0.00  0.00    +0.000 A 
ATOM     17  C   UNL     1       5.104   4.218  15.828  0.00  0.00    +0.000 A 
ATOM     18  C   UNL     1       4.329   4.118  16.985  0.00  0.00    +0.000 A 
ATOM     19  C   UNL     1       4.426   5.084  17.991  0.00  0.00    +0.000 A 
ATOM     20  C   UNL     1       5.347   6.126  17.821  0.00  0.00    +0.000 A 
ATOM     21  C   UNL     1       6.117   6.252  16.651  0.00  0.00    +0.000 A 
BRANCH  16  23
ATOM     22  C   UNL     1       6.793   4.264  13.675  0.00  0.00    +0.000 C 
ATOM     23  O   UNL     1       6.635   5.459  14.443  0.00  0.00    +0.000 OA
ENDBRANCH  16  23
BRANCH  21  24
ATOM     24  O   UNL     1       6.936   7.350  16.692  0.00  0.00    +0.000 OA
ATOM     25  C   UNL     1       7.758   7.554  17.830  0.00  0.00    +0.000 C 
ENDBRANCH  21  24
ENDBRANCH  15  19
ENDBRANCH  14  15
ENDBRANCH   1  14
TORSDOF 6
ENDMDL
MODEL 4
REMARK VINA RESULT:      -7.1      2.009      2.589
REMARK  Name = 
REMARK  8 active torsions:
REMARK  status: ('A' for Active; 'I' for Inactive)
REMARK    1  A    between atoms: C_1  and  O_2
REMARK    2  A    between atoms: O_2  and  C_3
REMARK    3  A    between atoms: C_6  and  C_7
REMARK    4  A    between atoms: C_7  and  C_8
REMARK    5  A    between atoms: C_8  and  N_9
REMARK    6  A    between atoms: N_12  and  C_13
REMARK    7  A    between atoms: C_21  and  O_22
REMARK    8  A    between atoms: O_22  and  C_23
REMARK                            x       y       z     vdW  Elec       q    Type
REMARK                         _______ _______ _______ _____ _____    ______ ____
ROOT
ATOM      1  N   UNL     1       2.519   4.699  21.111  0.00  0.00    +0.000 N 
ATOM      2  C   UNL     1       2.053   5.704  20.277  0.00  0.00    +0.000 C 
ATOM      3  O   UNL     1       1.738   5.478  19.118  0.00  0.00    +0.000 OA
ATOM      4  N   UNL     1       2.022   6.932  20.897  0.00  0.00    +0.000 N 
ATOM      5  H   UNL     1       2.245   4.797  22.079  0.00  0.00    +0.000 HD
ATOM      6  H   UNL     1       2.661   7.048  21.668  0.00  0.00    +0.000 HD
ENDROOT
BRANCH   4   7
ATOM      7  C   UNL     1       1.497   8.105  20.300  0.00  0.00    +0.000 A 
ATOM      8  C   UNL     1       1.863   8.526  19.015  0.00  0.00    +0.000 A 
ATOM      9  C   UNL     1       1.364   9.715  18.479  0.00  0.00    +0.000 A 
ATOM     10  C   UNL     1       0.476  10.483  19.221  0.00  0.00    +0.000 A 
ATOM     11 CL   UNL     1      -0.121  11.962  18.572  0.00  0.00    +0.000 Cl
ATOM     12  C   UNL     1       0.073  10.064  20.485  0.00  0.00    +0.000 A 
ATOM     13  C   UNL     1       0.572   8.868  21.022  0.00  0.00    +0.000 A 
ENDBRANCH   4   7
BRANCH   1  14
ATOM     14  C   UNL     1       2.499   3.358  20.544  0.00  0.00    +0.000 C 
BRANCH  14  15
ATOM     15  C   UNL     1       3.869   2.804  20.171  0.00  0.00    +0.000 C 
BRANCH  15  19
ATOM     16  C   UNL     1       5.383   4.878  16.672  0.00  0.00    +0.000 A 
ATOM     17  C   UNL     1       4.509   3.790  16.539  0.00  0.00    +0.000 A 
ATOM     18  C   UNL     1       4.022   3.119  17.662  0.00  0.00    +0.000 A 
ATOM     19  C   UNL     1       4.441   3.482  18.944  0.00  0.00    +0.000 A 
ATOM     20  C   UNL     1       5.388   4.507  19.065  0.00  0.00    +0.000 A 
ATOM     21  C   UNL     1       5.870   5.208  17.944  0.00  0.00    +0.000 A 
BRANCH  16  23
ATOM     22  C   UNL     1       6.575   4.879  14.628  0.00  0.00    +0.000 C 
ATOM     23  O   UNL     1       5.780   5.596  15.575  0.00  0.00    +0.000 OA
ENDBRANCH  16  23
BRANCH  21  24
ATOM     24  O   UNL     1       6.774   6.177  18.295  0.00  0.00    +0.000 OA
ATOM     25  C   UNL     1       7.870   5.828  19.126  0.00  0.00    +0.000 C 
ENDBRANCH  21  24
ENDBRANCH  15  19
ENDBRANCH  14  15
ENDBRANCH   1  14
TORSDOF 6
ENDMDL
MODEL 5
REMARK VINA RESULT:      -7.1      5.437      8.018
REMARK  Name = 
REMARK  8 active torsions:
REMARK  status: ('A' for Active; 'I' for Inactive)
REMARK    1  A    between atoms: C_1  and  O_2
REMARK    2  A    between atoms: O_2  and  C_3
REMARK    3  A    between atoms: C_6  and  C_7
REMARK    4  A    between atoms: C_7  and  C_8
REMARK    5  A    between atoms: C_8  and  N_9
REMARK    6  A    between atoms: N_12  and  C_13
REMARK    7  A    between atoms: C_21  and  O_22
REMARK    8  A    between atoms: O_22  and  C_23
REMARK                            x       y       z     vdW  Elec       q    Type
REMARK                         _______ _______ _______ _____ _____    ______ ____
ROOT
ATOM      1  N   UNL     1       6.880   7.348  16.877  0.00  0.00    +0.000 N 
ATOM      2  C   UNL     1       7.791   7.915  17.756  0.00  0.00    +0.000 C 
ATOM      3  O   UNL     1       8.366   7.244  18.600  0.00  0.00    +0.000 OA
ATOM      4  N   UNL     1       7.927   9.271  17.572  0.00  0.00    +0.000 N 
ATOM      5  H   UNL     1       6.875   7.760  15.955  0.00  0.00    +0.000 HD
ATOM      6  H   UNL     1       7.137   9.736  17.152  0.00  0.00    +0.000 HD
ENDROOT
BRANCH   4   7
ATOM      7  C   UNL     1       8.863  10.073  18.272  0.00  0.00    +0.000 A 
ATOM      8  C   UNL     1       8.941  10.093  19.671  0.00  0.00    +0.000 A 
ATOM      9  C   UNL     1       9.843  10.934  20.328  0.00  0.00    +0.000 A 
ATOM     10  C   UNL     1      10.687  11.749  19.585  0.00  0.00    +0.000 A 
ATOM     11 CL   UNL     1      11.781  12.804  20.393  0.00  0.00    +0.000 Cl
ATOM     12  C   UNL     1      10.649  11.717  18.194  0.00  0.00    +0.000 A 
ATOM     13  C   UNL     1       9.746  10.870  17.535  0.00  0.00    +0.000 A 
ENDBRANCH   4   7
BRANCH   1  14
ATOM     14  C   UNL     1       6.749   5.900  16.961  0.00  0.00    +0.000 C 
BRANCH  14  15
ATOM     15  C   UNL     1       5.412   5.353  16.473  0.00  0.00    +0.000 C 
BRANCH  15  19
ATOM     16  C   UNL     1       2.633   4.600  19.721  0.00  0.00    +0.000 A 
ATOM     17  C   UNL     1       3.884   5.183  19.967  0.00  0.00    +0.000 A 
ATOM     18  C   UNL     1       4.782   5.425  18.926  0.00  0.00    +0.000 A 
ATOM     19  C   UNL     1       4.475   5.037  17.619  0.00  0.00    +0.000 A 
ATOM     20  C   UNL     1       3.264   4.369  17.394  0.00  0.00    +0.000 A 
ATOM     21  C   UNL     1       2.340   4.140  18.430  0.00  0.00    +0.000 A 
BRANCH  16  23
ATOM     22  C   UNL     1       2.005   3.427  21.676  0.00  0.00    +0.000 C 
ATOM     23  O   UNL     1       1.716   4.456  20.728  0.00  0.00    +0.000 OA
ENDBRANCH  16  23
BRANCH  21  24
ATOM     24  O   UNL     1       1.220   3.487  17.983  0.00  0.00    +0.000 OA
ATOM     25  C   UNL     1       0.893   2.222  18.536  0.00  0.00    +0.000 C 
ENDBRANCH  21  24
ENDBRANCH  15  19
ENDBRANCH  14  15
ENDBRANCH   1  14
TORSDOF 6
ENDMDL
MODEL 6
REMARK VINA RESULT:      -7.0      1.588      2.935
REMARK  Name = 
REMARK  8 active torsions:
REMARK  status: ('A' for Active; 'I' for Inactive)
REMARK    1  A    between atoms: C_1  and  O_2
REMARK    2  A    between atoms: O_2  and  C_3
REMARK    3  A    between atoms: C_6  and  C_7
REMARK    4  A    between atoms: C_7  and  C_8
REMARK    5  A    between atoms: C_8  and  N_9
REMARK    6  A    between atoms: N_12  and  C_13
REMARK    7  A    between atoms: C_21  and  O_22
REMARK    8  A    between atoms: O_22  and  C_23
REMARK                            x       y       z     vdW  Elec       q    Type
REMARK                         _______ _______ _______ _____ _____    ______ ____
ROOT
ATOM      1  N   UNL     1       2.687   4.584  20.096  0.00  0.00    +0.000 N 
ATOM      2  C   UNL     1       2.252   5.820  19.644  0.00  0.00    +0.000 C 
ATOM      3  O   UNL     1       2.067   6.037  18.455  0.00  0.00    +0.000 OA
ATOM      4  N   UNL     1       2.094   6.729  20.665  0.00  0.00    +0.000 N 
ATOM      5  H   UNL     1       2.314   4.311  20.995  0.00  0.00    +0.000 HD
ATOM      6  H   UNL     1       2.647   6.558  21.490  0.00  0.00    +0.000 HD
ENDROOT
BRANCH   4   7
ATOM      7  C   UNL     1       1.568   8.032  20.486  0.00  0.00    +0.000 A 
ATOM      8  C   UNL     1       1.623   8.706  19.258  0.00  0.00    +0.000 A 
ATOM      9  C   UNL     1       1.139  10.011  19.133  0.00  0.00    +0.000 A 
ATOM     10  C   UNL     1       0.579  10.644  20.234  0.00  0.00    +0.000 A 
ATOM     11 CL   UNL     1       0.005  12.261  20.087  0.00  0.00    +0.000 Cl
ATOM     12  C   UNL     1       0.484   9.979  21.453  0.00  0.00    +0.000 A 
ATOM     13  C   UNL     1       0.966   8.668  21.578  0.00  0.00    +0.000 A 
ENDBRANCH   4   7
BRANCH   1  14
ATOM     14  C   UNL     1       2.796   3.549  19.077  0.00  0.00    +0.000 C 
BRANCH  14  15
ATOM     15  C   UNL     1       4.218   3.072  18.803  0.00  0.00    +0.000 C 
BRANCH  15  19
ATOM     16  C   UNL     1       6.877   6.145  17.279  0.00  0.00    +0.000 A 
ATOM     17  C   UNL     1       6.760   5.916  18.657  0.00  0.00    +0.000 A 
ATOM     18  C   UNL     1       5.904   4.931  19.152  0.00  0.00    +0.000 A 
ATOM     19  C   UNL     1       5.100   4.186  18.284  0.00  0.00    +0.000 A 
ATOM     20  C   UNL     1       5.151   4.485  16.916  0.00  0.00    +0.000 A 
ATOM     21  C   UNL     1       6.025   5.460  16.401  0.00  0.00    +0.000 A 
BRANCH  16  23
ATOM     22  C   UNL     1       7.953   8.231  17.568  0.00  0.00    +0.000 C 
ATOM     23  O   UNL     1       7.789   7.043  16.792  0.00  0.00    +0.000 OA
ENDBRANCH  16  23
BRANCH  21  24
ATOM     24  O   UNL     1       5.920   5.575  15.039  0.00  0.00    +0.000 OA
ATOM     25  C   UNL     1       6.711   4.734  14.214  0.00  0.00    +0.000 C 
ENDBRANCH  21  24
ENDBRANCH  15  19
ENDBRANCH  14  15
ENDBRANCH   1  14
TORSDOF 6
ENDMDL
MODEL 7
REMARK VINA RESULT:      -7.0      5.284      7.861
REMARK  Name = 
REMARK  8 active torsions:
REMARK  status: ('A' for Active; 'I' for Inactive)
REMARK    1  A    between atoms: C_1  and  O_2
REMARK    2  A    between atoms: O_2  and  C_3
REMARK    3  A    between atoms: C_6  and  C_7
REMARK    4  A    between atoms: C_7  and  C_8
REMARK    5  A    between atoms: C_8  and  N_9
REMARK    6  A    between atoms: N_12  and  C_13
REMARK    7  A    between atoms: C_21  and  O_22
REMARK    8  A    between atoms: O_22  and  C_23
REMARK                            x       y       z     vdW  Elec       q    Type
REMARK                         _______ _______ _______ _____ _____    ______ ____
ROOT
ATOM      1  N   UNL     1       7.407   8.119  17.172  0.00  0.00    +0.000 N 
ATOM      2  C   UNL     1       8.219   8.883  17.996  0.00  0.00    +0.000 C 
ATOM      3  O   UNL     1       8.815   8.389  18.942  0.00  0.00    +0.000 OA
ATOM      4  N   UNL     1       8.235  10.211  17.636  0.00  0.00    +0.000 N 
ATOM      5  H   UNL     1       7.407   8.404  16.203  0.00  0.00    +0.000 HD
ATOM      6  H   UNL     1       7.426  10.536  17.131  0.00  0.00    +0.000 HD
ENDROOT
BRANCH   4   7
ATOM      7  C   UNL     1       9.058  11.186  18.252  0.00  0.00    +0.000 A 
ATOM      8  C   UNL     1       9.922  10.881  19.313  0.00  0.00    +0.000 A 
ATOM      9  C   UNL     1      10.681  11.879  19.930  0.00  0.00    +0.000 A 
ATOM     10  C   UNL     1      10.594  13.188  19.475  0.00  0.00    +0.000 A 
ATOM     11 CL   UNL     1      11.510  14.423  20.250  0.00  0.00    +0.000 Cl
ATOM     12  C   UNL     1       9.768  13.504  18.399  0.00  0.00    +0.000 A 
ATOM     13  C   UNL     1       9.009  12.501  17.778  0.00  0.00    +0.000 A 
ENDBRANCH   4   7
BRANCH   1  14
ATOM     14  C   UNL     1       7.409   6.688  17.446  0.00  0.00    +0.000 C 
BRANCH  14  15
ATOM     15  C   UNL     1       6.436   5.877  16.597  0.00  0.00    +0.000 C 
BRANCH  15  19
ATOM     16  C   UNL     1       2.761   4.783  18.628  0.00  0.00    +0.000 A 
ATOM     17  C   UNL     1       2.917   6.057  18.064  0.00  0.00    +0.000 A 
ATOM     18  C   UNL     1       4.098   6.413  17.412  0.00  0.00    +0.000 A 
ATOM     19  C   UNL     1       5.176   5.525  17.357  0.00  0.00    +0.000 A 
ATOM     20  C   UNL     1       5.048   4.290  18.006  0.00  0.00    +0.000 A 
ATOM     21  C   UNL     1       3.856   3.908  18.647  0.00  0.00    +0.000 A 
BRANCH  16  23
ATOM     22  C   UNL     1       1.438   4.632  20.584  0.00  0.00    +0.000 C 
ATOM     23  O   UNL     1       1.566   4.402  19.179  0.00  0.00    +0.000 OA
ENDBRANCH  16  23
BRANCH  21  24
ATOM     24  O   UNL     1       3.948   2.657  19.199  0.00  0.00    +0.000 OA
ATOM     25  C   UNL     1       3.571   1.532  18.421  0.00  0.00    +0.000 C 
ENDBRANCH  21  24
ENDBRANCH  15  19
ENDBRANCH  14  15
ENDBRANCH   1  14
TORSDOF 6
ENDMDL
MODEL 8
REMARK VINA RESULT:      -7.0      4.614      7.475
REMARK  Name = 
REMARK  8 active torsions:
REMARK  status: ('A' for Active; 'I' for Inactive)
REMARK    1  A    between atoms: C_1  and  O_2
REMARK    2  A    between atoms: O_2  and  C_3
REMARK    3  A    between atoms: C_6  and  C_7
REMARK    4  A    between atoms: C_7  and  C_8
REMARK    5  A    between atoms: C_8  and  N_9
REMARK    6  A    between atoms: N_12  and  C_13
REMARK    7  A    between atoms: C_21  and  O_22
REMARK    8  A    between atoms: O_22  and  C_23
REMARK                            x       y       z     vdW  Elec       q    Type
REMARK                         _______ _______ _______ _____ _____    ______ ____
ROOT
ATOM      1  N   UNL     1       7.212   7.525  17.088  0.00  0.00    +0.000 N 
ATOM      2  C   UNL     1       8.001   8.272  17.949  0.00  0.00    +0.000 C 
ATOM      3  O   UNL     1       8.645   7.745  18.845  0.00  0.00    +0.000 OA
ATOM      4  N   UNL     1       7.940   9.621  17.685  0.00  0.00    +0.000 N 
ATOM      5  H   UNL     1       7.173   7.878  16.142  0.00  0.00    +0.000 HD
ATOM      6  H   UNL     1       7.103   9.937  17.221  0.00  0.00    +0.000 HD
ENDROOT
BRANCH   4   7
ATOM      7  C   UNL     1       8.725  10.593  18.352  0.00  0.00    +0.000 A 
ATOM      8  C   UNL     1       9.408  10.320  19.546  0.00  0.00    +0.000 A 
ATOM      9  C   UNL     1      10.132  11.318  20.204  0.00  0.00    +0.000 A 
ATOM     10  C   UNL     1      10.192  12.594  19.659  0.00  0.00    +0.000 A 
ATOM     11 CL   UNL     1      11.063  13.831  20.481  0.00  0.00    +0.000 Cl
ATOM     12  C   UNL     1       9.551  12.875  18.457  0.00  0.00    +0.000 A 
ATOM     13  C   UNL     1       8.827  11.872  17.795  0.00  0.00    +0.000 A 
ENDBRANCH   4   7
BRANCH   1  14
ATOM     14  C   UNL     1       7.294   6.081  17.258  0.00  0.00    +0.000 C 
BRANCH  14  15
ATOM     15  C   UNL     1       6.629   5.551  18.524  0.00  0.00    +0.000 C 
BRANCH  15  19
ATOM     16  C   UNL     1       2.566   4.147  17.933  0.00  0.00    +0.000 A 
ATOM     17  C   UNL     1       3.598   3.738  17.077  0.00  0.00    +0.000 A 
ATOM     18  C   UNL     1       4.906   4.189  17.262  0.00  0.00    +0.000 A 
ATOM     19  C   UNL     1       5.205   5.106  18.273  0.00  0.00    +0.000 A 
ATOM     20  C   UNL     1       4.152   5.584  19.065  0.00  0.00    +0.000 A 
ATOM     21  C   UNL     1       2.834   5.121  18.905  0.00  0.00    +0.000 A 
BRANCH  16  23
ATOM     22  C   UNL     1       0.972   2.601  18.748  0.00  0.00    +0.000 C 
ATOM     23  O   UNL     1       1.305   3.626  17.810  0.00  0.00    +0.000 OA
ENDBRANCH  16  23
BRANCH  21  24
ATOM     24  O   UNL     1       1.972   5.710  19.793  0.00  0.00    +0.000 OA
ATOM     25  C   UNL     1       2.111   7.094  20.074  0.00  0.00    +0.000 C 
ENDBRANCH  21  24
ENDBRANCH  15  19
ENDBRANCH  14  15
ENDBRANCH   1  14
TORSDOF 6
ENDMDL
MODEL 9
REMARK VINA RESULT:      -7.0      5.128      7.551
REMARK  Name = 
REMARK  8 active torsions:
REMARK  status: ('A' for Active; 'I' for Inactive)
REMARK    1  A    between atoms: C_1  and  O_2
REMARK    2  A    between atoms: O_2  and  C_3
REMARK    3  A    between atoms: C_6  and  C_7
REMARK    4  A    between atoms: C_7  and  C_8
REMARK    5  A    between atoms: C_8  and  N_9
REMARK    6  A    between atoms: N_12  and  C_13
REMARK    7  A    between atoms: C_21  and  O_22
REMARK    8  A    between atoms: O_22  and  C_23
REMARK                            x       y       z     vdW  Elec       q    Type
REMARK                         _______ _______ _______ _____ _____    ______ ____
ROOT
ATOM      1  N   UNL     1       7.908   6.888  18.390  0.00  0.00    +0.000 N 
ATOM      2  C   UNL     1       8.220   8.215  18.140  0.00  0.00    +0.000 C 
ATOM      3  O   UNL     1       7.940   8.748  17.076  0.00  0.00    +0.000 OA
ATOM      4  N   UNL     1       8.880   8.809  19.192  0.00  0.00    +0.000 N 
ATOM      5  H   UNL     1       7.662   6.689  19.349  0.00  0.00    +0.000 HD
ATOM      6  H   UNL     1       9.385   8.184  19.799  0.00  0.00    +0.000 HD
ENDROOT
BRANCH   4   7
ATOM      7  C   UNL     1       9.224  10.183  19.233  0.00  0.00    +0.000 A 
ATOM      8  C   UNL     1       9.366  10.889  20.435  0.00  0.00    +0.000 A 
ATOM      9  C   UNL     1       9.657  12.256  20.435  0.00  0.00    +0.000 A 
ATOM     10  C   UNL     1       9.825  12.922  19.228  0.00  0.00    +0.000 A 
ATOM     11 CL   UNL     1      10.158  14.611  19.226  0.00  0.00    +0.000 Cl
ATOM     12  C   UNL     1       9.723  12.231  18.024  0.00  0.00    +0.000 A 
ATOM     13  C   UNL     1       9.435  10.858  18.025  0.00  0.00    +0.000 A 
ENDBRANCH   4   7
BRANCH   1  14
ATOM     14  C   UNL     1       7.135   6.221  17.351  0.00  0.00    +0.000 C 
BRANCH  14  15
ATOM     15  C   UNL     1       5.807   6.891  17.017  0.00  0.00    +0.000 C 
BRANCH  15  19
ATOM     16  C   UNL     1       2.381   4.715  18.552  0.00  0.00    +0.000 A 
ATOM     17  C   UNL     1       2.338   6.108  18.402  0.00  0.00    +0.000 A 
ATOM     18  C   UNL     1       3.438   6.812  17.911  0.00  0.00    +0.000 A 
ATOM     19  C   UNL     1       4.631   6.148  17.611  0.00  0.00    +0.000 A 
ATOM     20  C   UNL     1       4.699   4.770  17.853  0.00  0.00    +0.000 A 
ATOM     21  C   UNL     1       3.591   4.043  18.326  0.00  0.00    +0.000 A 
BRANCH  16  23
ATOM     22  C   UNL     1       1.000   4.020  20.343  0.00  0.00    +0.000 C 
ATOM     23  O   UNL     1       1.268   4.017  18.939  0.00  0.00    +0.000 OA
ENDBRANCH  16  23
BRANCH  21  24
ATOM     24  O   UNL     1       3.876   2.711  18.474  0.00  0.00    +0.000 OA
ATOM     25  C   UNL     1       4.350   2.244  19.727  0.00  0.00    +0.000 C 
ENDBRANCH  21  24
ENDBRANCH  15  19
ENDBRANCH  14  15
ENDBRANCH   1  14
TORSDOF 6
ENDMDL
