MODEL 1
REMARK VINA RESULT:      -8.4      0.000      0.000
REMARK  Name = 
REMARK  5 active torsions:
REMARK  status: ('A' for Active; 'I' for Inactive)
REMARK    1  A    between atoms: C_1  and  C_2
REMARK    2  A    between atoms: C_6  and  C_7
REMARK    3  A    between atoms: N_8  and  C_9
REMARK    4  A    between atoms: C_12  and  C_13
REMARK    5  A    between atoms: N_17  and  C_18
REMARK                            x       y       z     vdW  Elec       q    Type
REMARK                         _______ _______ _______ _____ _____    ______ ____
ROOT
ATOM      1  C   UNL     1       3.719   5.760  19.171  0.00  0.00    +0.000 C 
ATOM      2  N   UNL     1       3.539   7.033  18.913  0.00  0.00    +0.000 NA
ATOM      3  N   UNL     1       4.971   5.263  18.775  0.00  0.00    +0.000 N 
ATOM      4  H   UNL     1       5.129   4.266  18.848  0.00  0.00    +0.000 HD
ENDROOT
BRANCH   2   5
ATOM      5  C   UNL     1       2.404   7.834  18.964  0.00  0.00    +0.000 A 
ATOM      6  C   UNL     1       1.911   8.577  17.895  0.00  0.00    +0.000 A 
ATOM      7  C   UNL     1       0.820   9.430  18.060  0.00  0.00    +0.000 A 
ATOM      8  C   UNL     1       0.260   9.632  19.329  0.00  0.00    +0.000 A 
ATOM      9  C   UNL     1      -0.857  10.620  19.485  0.00  0.00    +0.000 C 
ATOM     10  C   UNL     1       0.797   8.932  20.417  0.00  0.00    +0.000 A 
ATOM     11 CL   UNL     1       0.211   9.177  22.024  0.00  0.00    +0.000 Cl
ATOM     12  C   UNL     1       1.843   8.032  20.222  0.00  0.00    +0.000 A 
ENDBRANCH   2   5
BRANCH   1  18
ATOM     13  C   UNL     1       0.386   2.026  18.558  0.00  0.00    +0.000 C 
ATOM     14  C   UNL     1       1.121   2.966  19.470  0.00  0.00    +0.000 A 
ATOM     15  C   UNL     1       1.129   2.760  20.854  0.00  0.00    +0.000 A 
ATOM     16  C   UNL     1       1.844   3.621  21.686  0.00  0.00    +0.000 A 
ATOM     17  C   UNL     1       2.625   4.644  21.142  0.00  0.00    +0.000 A 
ATOM     18  C   UNL     1       2.677   4.831  19.756  0.00  0.00    +0.000 A 
ATOM     19  C   UNL     1       1.855   4.043  18.936  0.00  0.00    +0.000 A 
ENDBRANCH   1  18
BRANCH   3  20
ATOM     20  C   UNL     1       5.671   5.929  17.654  0.00  0.00    +0.000 C 
ATOM     21  C   UNL     1       7.165   5.575  17.585  0.00  0.00    +0.000 C 
ATOM     22  C   UNL     1       7.635   4.697  16.425  0.00  0.00    +0.000 C 
ATOM     23  C   UNL     1       6.840   4.899  15.145  0.00  0.00    +0.000 C 
ATOM     24  C   UNL     1       5.365   4.683  15.429  0.00  0.00    +0.000 C 
ATOM     25  C   UNL     1       4.855   5.769  16.363  0.00  0.00    +0.000 C 
ENDBRANCH   3  20
TORSDOF 3
ENDMDL
MODEL 2
REMARK VINA RESULT:      -8.1      1.121      1.784
REMARK  Name = 
REMARK  5 active torsions:
REMARK  status: ('A' for Active; 'I' for Inactive)
REMARK    1  A    between atoms: C_1  and  C_2
REMARK    2  A    between atoms: C_6  and  C_7
REMARK    3  A    between atoms: N_8  and  C_9
REMARK    4  A    between atoms: C_12  and  C_13
REMARK    5  A    between atoms: N_17  and  C_18
REMARK                            x       y       z     vdW  Elec       q    Type
REMARK                         _______ _______ _______ _____ _____    ______ ____
ROOT
ATOM      1  C   UNL     1       3.783   5.202  17.873  0.00  0.00    +0.000 C 
ATOM      2  N   UNL     1       3.712   6.510  17.837  0.00  0.00    +0.000 NA
ATOM      3  N   UNL     1       4.846   4.663  17.130  0.00  0.00    +0.000 N 
ATOM      4  H   UNL     1       4.890   3.656  17.030  0.00  0.00    +0.000 HD
ENDROOT
BRANCH   2   5
ATOM      5  C   UNL     1       2.724   7.393  18.261  0.00  0.00    +0.000 A 
ATOM      6  C   UNL     1       2.179   8.407  17.478  0.00  0.00    +0.000 A 
ATOM      7  C   UNL     1       1.261   9.308  18.015  0.00  0.00    +0.000 A 
ATOM      8  C   UNL     1       0.942   9.274  19.380  0.00  0.00    +0.000 A 
ATOM      9  C   UNL     1       0.017  10.312  19.939  0.00  0.00    +0.000 C 
ATOM     10  C   UNL     1       1.540   8.294  20.181  0.00  0.00    +0.000 A 
ATOM     11 CL   UNL     1       1.256   8.226  21.884  0.00  0.00    +0.000 Cl
ATOM     12  C   UNL     1       2.403   7.358  19.615  0.00  0.00    +0.000 A 
ENDBRANCH   2   5
BRANCH   1  18
ATOM     13  C   UNL     1       2.055   3.034  22.085  0.00  0.00    +0.000 C 
ATOM     14  C   UNL     1       1.905   3.306  20.615  0.00  0.00    +0.000 A 
ATOM     15  C   UNL     1       0.699   3.038  19.957  0.00  0.00    +0.000 A 
ATOM     16  C   UNL     1       0.562   3.327  18.600  0.00  0.00    +0.000 A 
ATOM     17  C   UNL     1       1.595   3.962  17.904  0.00  0.00    +0.000 A 
ATOM     18  C   UNL     1       2.788   4.290  18.558  0.00  0.00    +0.000 A 
ATOM     19  C   UNL     1       2.965   3.880  19.889  0.00  0.00    +0.000 A 
ENDBRANCH   1  18
BRANCH   3  20
ATOM     20  C   UNL     1       5.359   5.432  15.975  0.00  0.00    +0.000 C 
ATOM     21  C   UNL     1       6.849   5.784  16.104  0.00  0.00    +0.000 C 
ATOM     22  C   UNL     1       7.831   5.080  15.166  0.00  0.00    +0.000 C 
ATOM     23  C   UNL     1       7.242   4.745  13.805  0.00  0.00    +0.000 C 
ATOM     24  C   UNL     1       5.980   3.923  13.990  0.00  0.00    +0.000 C 
ATOM     25  C   UNL     1       4.910   4.766  14.665  0.00  0.00    +0.000 C 
ENDBRANCH   3  20
TORSDOF 3
ENDMDL
MODEL 3
REMARK VINA RESULT:      -7.6      1.491      2.310
REMARK  Name = 
REMARK  5 active torsions:
REMARK  status: ('A' for Active; 'I' for Inactive)
REMARK    1  A    between atoms: C_1  and  C_2
REMARK    2  A    between atoms: C_6  and  C_7
REMARK    3  A    between atoms: N_8  and  C_9
REMARK    4  A    between atoms: C_12  and  C_13
REMARK    5  A    between atoms: N_17  and  C_18
REMARK                            x       y       z     vdW  Elec       q    Type
REMARK                         _______ _______ _______ _____ _____    ______ ____
ROOT
ATOM      1  C   UNL     1       3.820   4.757  17.983  0.00  0.00    +0.000 C 
ATOM      2  N   UNL     1       3.896   6.051  18.179  0.00  0.00    +0.000 NA
ATOM      3  N   UNL     1       4.743   4.260  17.049  0.00  0.00    +0.000 N 
ATOM      4  H   UNL     1       4.662   3.289  16.774  0.00  0.00    +0.000 HD
ENDROOT
BRANCH   2   5
ATOM      5  C   UNL     1       3.058   6.934  18.853  0.00  0.00    +0.000 A 
ATOM      6  C   UNL     1       2.468   6.679  20.087  0.00  0.00    +0.000 A 
ATOM      7  C   UNL     1       1.564   7.582  20.647  0.00  0.00    +0.000 A 
ATOM      8  C   UNL     1       1.155   8.716  19.932  0.00  0.00    +0.000 A 
ATOM      9  C   UNL     1       0.117   9.619  20.528  0.00  0.00    +0.000 C 
ATOM     10  C   UNL     1       1.701   8.939  18.662  0.00  0.00    +0.000 A 
ATOM     11 CL   UNL     1       1.199  10.274  17.686  0.00  0.00    +0.000 Cl
ATOM     12  C   UNL     1       2.655   8.063  18.147  0.00  0.00    +0.000 A 
ENDBRANCH   2   5
BRANCH   1  18
ATOM     13  C   UNL     1       1.895   2.520  22.072  0.00  0.00    +0.000 C 
ATOM     14  C   UNL     1       1.812   2.819  20.603  0.00  0.00    +0.000 A 
ATOM     15  C   UNL     1       0.636   2.570  19.886  0.00  0.00    +0.000 A 
ATOM     16  C   UNL     1       0.561   2.885  18.530  0.00  0.00    +0.000 A 
ATOM     17  C   UNL     1       1.627   3.527  17.893  0.00  0.00    +0.000 A 
ATOM     18  C   UNL     1       2.791   3.837  18.606  0.00  0.00    +0.000 A 
ATOM     19  C   UNL     1       2.906   3.402  19.935  0.00  0.00    +0.000 A 
ENDBRANCH   1  18
BRANCH   3  20
ATOM     20  C   UNL     1       5.236   5.173  15.994  0.00  0.00    +0.000 C 
ATOM     21  C   UNL     1       6.693   5.610  16.213  0.00  0.00    +0.000 C 
ATOM     22  C   UNL     1       7.751   5.070  15.250  0.00  0.00    +0.000 C 
ATOM     23  C   UNL     1       7.230   4.832  13.842  0.00  0.00    +0.000 C 
ATOM     24  C   UNL     1       6.025   3.913  13.898  0.00  0.00    +0.000 C 
ATOM     25  C   UNL     1       4.877   4.611  14.610  0.00  0.00    +0.000 C 
ENDBRANCH   3  20
TORSDOF 3
ENDMDL
MODEL 4
REMARK VINA RESULT:      -7.5      1.237      2.344
REMARK  Name = 
REMARK  5 active torsions:
REMARK  status: ('A' for Active; 'I' for Inactive)
REMARK    1  A    between atoms: C_1  and  C_2
REMARK    2  A    between atoms: C_6  and  C_7
REMARK    3  A    between atoms: N_8  and  C_9
REMARK    4  A    between atoms: C_12  and  C_13
REMARK    5  A    between atoms: N_17  and  C_18
REMARK                            x       y       z     vdW  Elec       q    Type
REMARK                         _______ _______ _______ _____ _____    ______ ____
ROOT
ATOM      1  C   UNL     1       4.445   4.506  18.735  0.00  0.00    +0.000 C 
ATOM      2  N   UNL     1       4.471   5.813  18.627  0.00  0.00    +0.000 NA
ATOM      3  N   UNL     1       5.675   3.882  18.474  0.00  0.00    +0.000 N 
ATOM      4  H   UNL     1       5.694   2.871  18.435  0.00  0.00    +0.000 HD
ENDROOT
BRANCH   2   5
ATOM      5  C   UNL     1       3.451   6.758  18.611  0.00  0.00    +0.000 A 
ATOM      6  C   UNL     1       3.206   7.639  17.561  0.00  0.00    +0.000 A 
ATOM      7  C   UNL     1       2.221   8.621  17.667  0.00  0.00    +0.000 A 
ATOM      8  C   UNL     1       1.526   8.806  18.871  0.00  0.00    +0.000 A 
ATOM      9  C   UNL     1       0.535   9.926  18.977  0.00  0.00    +0.000 C 
ATOM     10  C   UNL     1       1.818   7.960  19.948  0.00  0.00    +0.000 A 
ATOM     11 CL   UNL     1       1.059   8.165  21.487  0.00  0.00    +0.000 Cl
ATOM     12  C   UNL     1       2.757   6.940  19.803  0.00  0.00    +0.000 A 
ENDBRANCH   2   5
BRANCH   1  18
ATOM     13  C   UNL     1       1.267   2.447  22.064  0.00  0.00    +0.000 C 
ATOM     14  C   UNL     1       1.628   2.749  20.638  0.00  0.00    +0.000 A 
ATOM     15  C   UNL     1       0.687   2.597  19.613  0.00  0.00    +0.000 A 
ATOM     16  C   UNL     1       1.025   2.914  18.298  0.00  0.00    +0.000 A 
ATOM     17  C   UNL     1       2.276   3.464  18.003  0.00  0.00    +0.000 A 
ATOM     18  C   UNL     1       3.212   3.677  19.022  0.00  0.00    +0.000 A 
ATOM     19  C   UNL     1       2.910   3.237  20.320  0.00  0.00    +0.000 A 
ENDBRANCH   1  18
BRANCH   3  20
ATOM     20  C   UNL     1       6.633   4.563  17.575  0.00  0.00    +0.000 C 
ATOM     21  C   UNL     1       5.960   5.585  16.645  0.00  0.00    +0.000 C 
ATOM     22  C   UNL     1       6.235   7.067  16.898  0.00  0.00    +0.000 C 
ATOM     23  C   UNL     1       7.621   7.344  17.458  0.00  0.00    +0.000 C 
ATOM     24  C   UNL     1       7.827   6.528  18.721  0.00  0.00    +0.000 C 
ATOM     25  C   UNL     1       7.849   5.046  18.380  0.00  0.00    +0.000 C 
ENDBRANCH   3  20
TORSDOF 3
ENDMDL
MODEL 5
REMARK VINA RESULT:      -7.4      2.306      6.144
REMARK  Name = 
REMARK  5 active torsions:
REMARK  status: ('A' for Active; 'I' for Inactive)
REMARK    1  A    between atoms: C_1  and  C_2
REMARK    2  A    between atoms: C_6  and  C_7
REMARK    3  A    between atoms: N_8  and  C_9
REMARK    4  A    between atoms: C_12  and  C_13
REMARK    5  A    between atoms: N_17  and  C_18
REMARK                            x       y       z     vdW  Elec       q    Type
REMARK                         _______ _______ _______ _____ _____    ______ ____
ROOT
ATOM      1  C   UNL     1       1.746   6.341  20.150  0.00  0.00    +0.000 C 
ATOM      2  N   UNL     1       2.655   6.872  19.368  0.00  0.00    +0.000 NA
ATOM      3  N   UNL     1       0.900   7.277  20.768  0.00  0.00    +0.000 N 
ATOM      4  H   UNL     1       0.250   6.938  21.465  0.00  0.00    +0.000 HD
ENDROOT
BRANCH   2   5
ATOM      5  C   UNL     1       3.773   6.324  18.748  0.00  0.00    +0.000 A 
ATOM      6  C   UNL     1       4.813   5.684  19.415  0.00  0.00    +0.000 A 
ATOM      7  C   UNL     1       5.944   5.248  18.725  0.00  0.00    +0.000 A 
ATOM      8  C   UNL     1       6.101   5.536  17.362  0.00  0.00    +0.000 A 
ATOM      9  C   UNL     1       7.368   5.128  16.671  0.00  0.00    +0.000 C 
ATOM     10  C   UNL     1       5.083   6.237  16.704  0.00  0.00    +0.000 A 
ATOM     11 CL   UNL     1       5.229   6.693  15.044  0.00  0.00    +0.000 Cl
ATOM     12  C   UNL     1       3.929   6.605  17.394  0.00  0.00    +0.000 A 
ENDBRANCH   2   5
BRANCH   1  18
ATOM     13  C   UNL     1       0.740   1.630  18.661  0.00  0.00    +0.000 C 
ATOM     14  C   UNL     1       1.214   2.575  19.727  0.00  0.00    +0.000 A 
ATOM     15  C   UNL     1       1.871   2.097  20.867  0.00  0.00    +0.000 A 
ATOM     16  C   UNL     1       2.336   2.988  21.833  0.00  0.00    +0.000 A 
ATOM     17  C   UNL     1       2.227   4.367  21.634  0.00  0.00    +0.000 A 
ATOM     18  C   UNL     1       1.624   4.868  20.474  0.00  0.00    +0.000 A 
ATOM     19  C   UNL     1       1.045   3.964  19.570  0.00  0.00    +0.000 A 
ENDBRANCH   1  18
BRANCH   3  20
ATOM     20  C   UNL     1       1.414   8.645  20.999  0.00  0.00    +0.000 C 
ATOM     21  C   UNL     1       0.949   9.648  19.932  0.00  0.00    +0.000 C 
ATOM     22  C   UNL     1      -0.058  10.719  20.352  0.00  0.00    +0.000 C 
ATOM     23  C   UNL     1       0.087  11.159  21.800  0.00  0.00    +0.000 C 
ATOM     24  C   UNL     1       0.002   9.945  22.707  0.00  0.00    +0.000 C 
ATOM     25  C   UNL     1       1.200   9.039  22.469  0.00  0.00    +0.000 C 
ENDBRANCH   3  20
TORSDOF 3
ENDMDL
MODEL 6
REMARK VINA RESULT:      -7.4      3.836      8.149
REMARK  Name = 
REMARK  5 active torsions:
REMARK  status: ('A' for Active; 'I' for Inactive)
REMARK    1  A    between atoms: C_1  and  C_2
REMARK    2  A    between atoms: C_6  and  C_7
REMARK    3  A    between atoms: N_8  and  C_9
REMARK    4  A    between atoms: C_12  and  C_13
REMARK    5  A    between atoms: N_17  and  C_18
REMARK                            x       y       z     vdW  Elec       q    Type
REMARK                         _______ _______ _______ _____ _____    ______ ____
ROOT
ATOM      1  C   UNL     1       0.122  11.668  18.437  0.00  0.00    +0.000 C 
ATOM      2  N   UNL     1       1.158  10.956  18.807  0.00  0.00    +0.000 NA
ATOM      3  N   UNL     1       0.400  13.029  18.236  0.00  0.00    +0.000 N 
ATOM      4  H   UNL     1      -0.379  13.650  18.056  0.00  0.00    +0.000 HD
ENDROOT
BRANCH   2   5
ATOM      5  C   UNL     1       1.262   9.653  19.283  0.00  0.00    +0.000 A 
ATOM      6  C   UNL     1       0.901   9.249  20.565  0.00  0.00    +0.000 A 
ATOM      7  C   UNL     1       1.127   7.940  20.991  0.00  0.00    +0.000 A 
ATOM      8  C   UNL     1       1.813   7.032  20.173  0.00  0.00    +0.000 A 
ATOM      9  C   UNL     1       2.114   5.660  20.696  0.00  0.00    +0.000 C 
ATOM     10  C   UNL     1       2.233   7.458  18.906  0.00  0.00    +0.000 A 
ATOM     11 CL   UNL     1       3.144   6.426  17.864  0.00  0.00    +0.000 Cl
ATOM     12  C   UNL     1       1.938   8.749  18.469  0.00  0.00    +0.000 A 
ENDBRANCH   2   5
BRANCH   1  18
ATOM     13  C   UNL     1      -4.825  12.299  19.183  0.00  0.00    +0.000 C 
ATOM     14  C   UNL     1      -3.698  11.496  18.600  0.00  0.00    +0.000 A 
ATOM     15  C   UNL     1      -3.947  10.494  17.655  0.00  0.00    +0.000 A 
ATOM     16  C   UNL     1      -2.888   9.779  17.096  0.00  0.00    +0.000 A 
ATOM     17  C   UNL     1      -1.567  10.111  17.409  0.00  0.00    +0.000 A 
ATOM     18  C   UNL     1      -1.294  11.149  18.309  0.00  0.00    +0.000 A 
ATOM     19  C   UNL     1      -2.367  11.776  18.963  0.00  0.00    +0.000 A 
ENDBRANCH   1  18
BRANCH   3  20
ATOM     20  C   UNL     1       1.526  13.635  18.982  0.00  0.00    +0.000 C 
ATOM     21  C   UNL     1       2.792  13.797  18.127  0.00  0.00    +0.000 C 
ATOM     22  C   UNL     1       3.214  15.215  17.740  0.00  0.00    +0.000 C 
ATOM     23  C   UNL     1       2.858  16.263  18.783  0.00  0.00    +0.000 C 
ATOM     24  C   UNL     1       1.371  16.198  19.078  0.00  0.00    +0.000 C 
ATOM     25  C   UNL     1       1.036  14.874  19.747  0.00  0.00    +0.000 C 
ENDBRANCH   3  20
TORSDOF 3
ENDMDL
MODEL 7
REMARK VINA RESULT:      -7.3      1.709      5.208
REMARK  Name = 
REMARK  5 active torsions:
REMARK  status: ('A' for Active; 'I' for Inactive)
REMARK    1  A    between atoms: C_1  and  C_2
REMARK    2  A    between atoms: C_6  and  C_7
REMARK    3  A    between atoms: N_8  and  C_9
REMARK    4  A    between atoms: C_12  and  C_13
REMARK    5  A    between atoms: N_17  and  C_18
REMARK                            x       y       z     vdW  Elec       q    Type
REMARK                         _______ _______ _______ _____ _____    ______ ____
ROOT
ATOM      1  C   UNL     1       3.682   4.334  18.256  0.00  0.00    +0.000 C 
ATOM      2  N   UNL     1       2.626   4.771  18.899  0.00  0.00    +0.000 NA
ATOM      3  N   UNL     1       3.743   2.937  18.130  0.00  0.00    +0.000 N 
ATOM      4  H   UNL     1       4.586   2.533  17.741  0.00  0.00    +0.000 HD
ENDROOT
BRANCH   2   5
ATOM      5  C   UNL     1       2.302   6.030  19.394  0.00  0.00    +0.000 A 
ATOM      6  C   UNL     1       1.768   6.269  20.657  0.00  0.00    +0.000 A 
ATOM      7  C   UNL     1       1.382   7.555  21.037  0.00  0.00    +0.000 A 
ATOM      8  C   UNL     1       1.430   8.614  20.119  0.00  0.00    +0.000 A 
ATOM      9  C   UNL     1       0.927   9.963  20.536  0.00  0.00    +0.000 C 
ATOM     10  C   UNL     1       1.908   8.359  18.828  0.00  0.00    +0.000 A 
ATOM     11 CL   UNL     1       1.934   9.591  17.617  0.00  0.00    +0.000 Cl
ATOM     12  C   UNL     1       2.354   7.083  18.486  0.00  0.00    +0.000 A 
ENDBRANCH   2   5
BRANCH   1  18
ATOM     13  C   UNL     1       8.196   6.455  19.000  0.00  0.00    +0.000 C 
ATOM     14  C   UNL     1       7.043   6.158  18.086  0.00  0.00    +0.000 A 
ATOM     15  C   UNL     1       7.156   6.350  16.704  0.00  0.00    +0.000 A 
ATOM     16  C   UNL     1       6.089   6.038  15.863  0.00  0.00    +0.000 A 
ATOM     17  C   UNL     1       4.929   5.452  16.379  0.00  0.00    +0.000 A 
ATOM     18  C   UNL     1       4.818   5.198  17.751  0.00  0.00    +0.000 A 
ATOM     19  C   UNL     1       5.844   5.633  18.605  0.00  0.00    +0.000 A 
ENDBRANCH   1  18
BRANCH   3  20
ATOM     20  C   UNL     1       3.063   2.108  19.150  0.00  0.00    +0.000 C 
ATOM     21  C   UNL     1       3.513   2.431  20.583  0.00  0.00    +0.000 C 
ATOM     22  C   UNL     1       2.511   3.126  21.505  0.00  0.00    +0.000 C 
ATOM     23  C   UNL     1       1.064   2.751  21.227  0.00  0.00    +0.000 C 
ATOM     24  C   UNL     1       0.743   3.023  19.769  0.00  0.00    +0.000 C 
ATOM     25  C   UNL     1       1.551   2.089  18.880  0.00  0.00    +0.000 C 
ENDBRANCH   3  20
TORSDOF 3
ENDMDL
MODEL 8
REMARK VINA RESULT:      -7.2      2.213      6.054
REMARK  Name = 
REMARK  5 active torsions:
REMARK  status: ('A' for Active; 'I' for Inactive)
REMARK    1  A    between atoms: C_1  and  C_2
REMARK    2  A    between atoms: C_6  and  C_7
REMARK    3  A    between atoms: N_8  and  C_9
REMARK    4  A    between atoms: C_12  and  C_13
REMARK    5  A    between atoms: N_17  and  C_18
REMARK                            x       y       z     vdW  Elec       q    Type
REMARK                         _______ _______ _______ _____ _____    ______ ____
ROOT
ATOM      1  C   UNL     1       1.743   6.333  20.046  0.00  0.00    +0.000 C 
ATOM      2  N   UNL     1       2.585   6.888  19.208  0.00  0.00    +0.000 NA
ATOM      3  N   UNL     1       0.919   7.246  20.725  0.00  0.00    +0.000 N 
ATOM      4  H   UNL     1       0.325   6.889  21.462  0.00  0.00    +0.000 HD
ENDROOT
BRANCH   2   5
ATOM      5  C   UNL     1       3.671   6.370  18.512  0.00  0.00    +0.000 A 
ATOM      6  C   UNL     1       3.593   5.760  17.264  0.00  0.00    +0.000 A 
ATOM      7  C   UNL     1       4.719   5.182  16.679  0.00  0.00    +0.000 A 
ATOM      8  C   UNL     1       5.931   5.115  17.380  0.00  0.00    +0.000 A 
ATOM      9  C   UNL     1       7.098   4.411  16.755  0.00  0.00    +0.000 C 
ATOM     10  C   UNL     1       5.993   5.673  18.663  0.00  0.00    +0.000 A 
ATOM     11 CL   UNL     1       7.427   5.572  19.621  0.00  0.00    +0.000 Cl
ATOM     12  C   UNL     1       4.877   6.308  19.204  0.00  0.00    +0.000 A 
ENDBRANCH   2   5
BRANCH   1  18
ATOM     13  C   UNL     1       0.864   1.594  18.566  0.00  0.00    +0.000 C 
ATOM     14  C   UNL     1       1.328   2.552  19.625  0.00  0.00    +0.000 A 
ATOM     15  C   UNL     1       2.024   2.094  20.750  0.00  0.00    +0.000 A 
ATOM     16  C   UNL     1       2.479   2.999  21.708  0.00  0.00    +0.000 A 
ATOM     17  C   UNL     1       2.320   4.374  21.516  0.00  0.00    +0.000 A 
ATOM     18  C   UNL     1       1.677   4.856  20.369  0.00  0.00    +0.000 A 
ATOM     19  C   UNL     1       1.110   3.935  19.474  0.00  0.00    +0.000 A 
ENDBRANCH   1  18
BRANCH   3  20
ATOM     20  C   UNL     1       1.415   8.625  20.930  0.00  0.00    +0.000 C 
ATOM     21  C   UNL     1       0.912   9.608  19.861  0.00  0.00    +0.000 C 
ATOM     22  C   UNL     1      -0.103  10.668  20.291  0.00  0.00    +0.000 C 
ATOM     23  C   UNL     1       0.065  11.126  21.731  0.00  0.00    +0.000 C 
ATOM     24  C   UNL     1       0.020   9.923  22.653  0.00  0.00    +0.000 C 
ATOM     25  C   UNL     1       1.226   9.032  22.399  0.00  0.00    +0.000 C 
ENDBRANCH   3  20
TORSDOF 3
ENDMDL
MODEL 9
REMARK VINA RESULT:      -7.0      2.378      6.094
REMARK  Name = 
REMARK  5 active torsions:
REMARK  status: ('A' for Active; 'I' for Inactive)
REMARK    1  A    between atoms: C_1  and  C_2
REMARK    2  A    between atoms: C_6  and  C_7
REMARK    3  A    between atoms: N_8  and  C_9
REMARK    4  A    between atoms: C_12  and  C_13
REMARK    5  A    between atoms: N_17  and  C_18
REMARK                            x       y       z     vdW  Elec       q    Type
REMARK                         _______ _______ _______ _____ _____    ______ ____
ROOT
ATOM      1  C   UNL     1       2.047   6.104  19.718  0.00  0.00    +0.000 C 
ATOM      2  N   UNL     1       2.699   6.678  18.736  0.00  0.00    +0.000 NA
ATOM      3  N   UNL     1       1.273   6.987  20.489  0.00  0.00    +0.000 N 
ATOM      4  H   UNL     1       0.833   6.623  21.326  0.00  0.00    +0.000 HD
ENDROOT
BRANCH   2   5
ATOM      5  C   UNL     1       3.697   6.207  17.891  0.00  0.00    +0.000 A 
ATOM      6  C   UNL     1       3.622   5.026  17.158  0.00  0.00    +0.000 A 
ATOM      7  C   UNL     1       4.709   4.579  16.408  0.00  0.00    +0.000 A 
ATOM      8  C   UNL     1       5.935   5.258  16.457  0.00  0.00    +0.000 A 
ATOM      9  C   UNL     1       7.107   4.702  15.706  0.00  0.00    +0.000 C 
ATOM     10  C   UNL     1       6.030   6.411  17.245  0.00  0.00    +0.000 A 
ATOM     11 CL   UNL     1       7.522   7.266  17.415  0.00  0.00    +0.000 Cl
ATOM     12  C   UNL     1       4.914   6.882  17.933  0.00  0.00    +0.000 A 
ENDBRANCH   2   5
BRANCH   1  18
ATOM     13  C   UNL     1       4.866   1.994  20.482  0.00  0.00    +0.000 C 
ATOM     14  C   UNL     1       3.528   2.674  20.545  0.00  0.00    +0.000 A 
ATOM     15  C   UNL     1       2.472   2.110  21.270  0.00  0.00    +0.000 A 
ATOM     16  C   UNL     1       1.246   2.769  21.348  0.00  0.00    +0.000 A 
ATOM     17  C   UNL     1       1.085   4.035  20.778  0.00  0.00    +0.000 A 
ATOM     18  C   UNL     1       2.147   4.643  20.098  0.00  0.00    +0.000 A 
ATOM     19  C   UNL     1       3.335   3.918  19.914  0.00  0.00    +0.000 A 
ENDBRANCH   1  18
BRANCH   3  20
ATOM     20  C   UNL     1       1.687   8.405  20.564  0.00  0.00    +0.000 C 
ATOM     21  C   UNL     1       1.071   9.268  19.451  0.00  0.00    +0.000 C 
ATOM     22  C   UNL     1       0.010  10.294  19.851  0.00  0.00    +0.000 C 
ATOM     23  C   UNL     1       0.215  10.875  21.241  0.00  0.00    +0.000 C 
ATOM     24  C   UNL     1       0.292   9.747  22.253  0.00  0.00    +0.000 C 
ATOM     25  C   UNL     1       1.541   8.915  22.005  0.00  0.00    +0.000 C 
ENDBRANCH   3  20
TORSDOF 3
ENDMDL
