MODEL 1
REMARK VINA RESULT:      -7.7      0.000      0.000
REMARK  Name = 
REMARK  4 active torsions:
REMARK  status: ('A' for Active; 'I' for Inactive)
REMARK    1  A    between atoms: C_2  and  C_10
REMARK    2  A    between atoms: N_3  and  C_4
REMARK    3  A    between atoms: C_14  and  C_15
REMARK    4  A    between atoms: C_20  and  O_21
REMARK                            x       y       z     vdW  Elec       q    Type
REMARK                         _______ _______ _______ _____ _____    ______ ____
ROOT
ATOM      1  C   UNL     1       2.477   6.694  19.056  0.00  0.00    +0.000 A 
ATOM      2  N   UNL     1       2.217   7.531  20.121  0.00  0.00    +0.000 N 
ATOM      3  C   UNL     1       1.469   6.848  21.031  0.00  0.00    +0.000 A 
ATOM      4  N   UNL     1       1.207   5.628  20.621  0.00  0.00    +0.000 NA
ATOM      5  C   UNL     1       1.817   5.515  19.379  0.00  0.00    +0.000 A 
ATOM      6  H   UNL     1       2.573   8.475  20.210  0.00  0.00    +0.000 HD
ENDROOT
BRANCH   5   7
ATOM      7  C   UNL     1       1.759   4.325  18.525  0.00  0.00    +0.000 C 
ATOM      8  O   UNL     1       1.140   4.353  17.460  0.00  0.00    +0.000 OA
ATOM      9  N   UNL     1       2.546   3.233  18.841  0.00  0.00    +0.000 N 
ATOM     10  C   UNL     1       2.799   2.244  17.813  0.00  0.00    +0.000 C 
ATOM     11  C   UNL     1       3.935   1.384  18.331  0.00  0.00    +0.000 C 
ATOM     12  C   UNL     1       4.586   2.231  19.422  0.00  0.00    +0.000 C 
ATOM     13  C   UNL     1       3.430   3.061  19.981  0.00  0.00    +0.000 C 
BRANCH  12  14
ATOM     14  O   UNL     1       5.214   1.413  20.395  0.00  0.00    +0.000 OA
ATOM     15  H   UNL     1       5.506   0.592  19.961  0.00  0.00    +0.000 HD
ENDBRANCH  12  14
ENDBRANCH   5   7
BRANCH   1  17
ATOM     16  O   UNL     1       2.962   8.054  17.237  0.00  0.00    +0.000 OA
ATOM     17  C   UNL     1       3.303   7.115  17.949  0.00  0.00    +0.000 C 
ATOM     18  N   UNL     1       4.508   6.462  17.808  0.00  0.00    +0.000 N 
ATOM     19  H   UNL     1       4.538   5.525  18.190  0.00  0.00    +0.000 HD
BRANCH  18  20
ATOM     20  C   UNL     1       5.462   6.694  16.726  0.00  0.00    +0.000 C 
ATOM     21  C   UNL     1       6.891   6.969  17.214  0.00  0.00    +0.000 C 
ATOM     22  C   UNL     1       7.469   5.767  17.957  0.00  0.00    +0.000 C 
ATOM     23  C   UNL     1       7.474   4.523  17.075  0.00  0.00    +0.000 C 
ATOM     24  C   UNL     1       6.107   4.236  16.455  0.00  0.00    +0.000 C 
ATOM     25  C   UNL     1       5.489   5.471  15.790  0.00  0.00    +0.000 C 
ENDBRANCH  18  20
ENDBRANCH   1  17
TORSDOF 4
ENDMDL
MODEL 2
REMARK VINA RESULT:      -6.9      2.841      5.865
REMARK  Name = 
REMARK  4 active torsions:
REMARK  status: ('A' for Active; 'I' for Inactive)
REMARK    1  A    between atoms: C_2  and  C_10
REMARK    2  A    between atoms: N_3  and  C_4
REMARK    3  A    between atoms: C_14  and  C_15
REMARK    4  A    between atoms: C_20  and  O_21
REMARK                            x       y       z     vdW  Elec       q    Type
REMARK                         _______ _______ _______ _____ _____    ______ ____
ROOT
ATOM      1  C   UNL     1       5.686   5.311  18.425  0.00  0.00    +0.000 A 
ATOM      2  N   UNL     1       6.584   5.794  19.354  0.00  0.00    +0.000 N 
ATOM      3  C   UNL     1       7.832   5.386  18.995  0.00  0.00    +0.000 A 
ATOM      4  N   UNL     1       7.805   4.653  17.906  0.00  0.00    +0.000 NA
ATOM      5  C   UNL     1       6.468   4.580  17.540  0.00  0.00    +0.000 A 
ATOM      6  H   UNL     1       6.337   6.388  20.136  0.00  0.00    +0.000 HD
ENDROOT
BRANCH   5   7
ATOM      7  C   UNL     1       5.956   3.829  16.390  0.00  0.00    +0.000 C 
ATOM      8  O   UNL     1       4.941   3.138  16.501  0.00  0.00    +0.000 OA
ATOM      9  N   UNL     1       6.519   4.040  15.145  0.00  0.00    +0.000 N 
ATOM     10  C   UNL     1       5.776   3.625  13.973  0.00  0.00    +0.000 C 
ATOM     11  C   UNL     1       6.462   4.281  12.790  0.00  0.00    +0.000 C 
ATOM     12  C   UNL     1       7.272   5.421  13.404  0.00  0.00    +0.000 C 
ATOM     13  C   UNL     1       7.634   4.904  14.797  0.00  0.00    +0.000 C 
BRANCH  12  14
ATOM     14  O   UNL     1       8.403   5.728  12.607  0.00  0.00    +0.000 OA
ATOM     15  H   UNL     1       8.462   6.696  12.522  0.00  0.00    +0.000 HD
ENDBRANCH  12  14
ENDBRANCH   5   7
BRANCH   1  17
ATOM     16  O   UNL     1       3.869   6.740  18.191  0.00  0.00    +0.000 OA
ATOM     17  C   UNL     1       4.278   5.626  18.502  0.00  0.00    +0.000 C 
ATOM     18  N   UNL     1       3.443   4.588  18.854  0.00  0.00    +0.000 N 
ATOM     19  H   UNL     1       3.873   3.857  19.407  0.00  0.00    +0.000 HD
BRANCH  18  20
ATOM     20  C   UNL     1       1.999   4.706  19.045  0.00  0.00    +0.000 C 
ATOM     21  C   UNL     1       1.225   3.430  18.687  0.00  0.00    +0.000 C 
ATOM     22  C   UNL     1       1.617   2.265  19.593  0.00  0.00    +0.000 C 
ATOM     23  C   UNL     1       1.373   2.600  21.060  0.00  0.00    +0.000 C 
ATOM     24  C   UNL     1       2.022   3.920  21.477  0.00  0.00    +0.000 C 
ATOM     25  C   UNL     1       1.699   5.067  20.512  0.00  0.00    +0.000 C 
ENDBRANCH  18  20
ENDBRANCH   1  17
TORSDOF 4
ENDMDL
MODEL 3
REMARK VINA RESULT:      -6.7      2.078      4.667
REMARK  Name = 
REMARK  4 active torsions:
REMARK  status: ('A' for Active; 'I' for Inactive)
REMARK    1  A    between atoms: C_2  and  C_10
REMARK    2  A    between atoms: N_3  and  C_4
REMARK    3  A    between atoms: C_14  and  C_15
REMARK    4  A    between atoms: C_20  and  O_21
REMARK                            x       y       z     vdW  Elec       q    Type
REMARK                         _______ _______ _______ _____ _____    ______ ____
ROOT
ATOM      1  C   UNL     1       3.102   4.288  19.384  0.00  0.00    +0.000 A 
ATOM      2  N   UNL     1       2.713   3.305  20.271  0.00  0.00    +0.000 N 
ATOM      3  C   UNL     1       1.717   3.805  21.054  0.00  0.00    +0.000 A 
ATOM      4  N   UNL     1       1.446   5.053  20.750  0.00  0.00    +0.000 NA
ATOM      5  C   UNL     1       2.312   5.381  19.716  0.00  0.00    +0.000 A 
ATOM      6  H   UNL     1       3.087   2.364  20.286  0.00  0.00    +0.000 HD
ENDROOT
BRANCH   5   7
ATOM      7  C   UNL     1       2.390   6.698  19.077  0.00  0.00    +0.000 C 
ATOM      8  O   UNL     1       2.714   6.795  17.891  0.00  0.00    +0.000 OA
ATOM      9  N   UNL     1       1.930   7.806  19.763  0.00  0.00    +0.000 N 
ATOM     10  C   UNL     1       1.630   9.008  19.012  0.00  0.00    +0.000 C 
ATOM     11  C   UNL     1       0.842   9.901  19.950  0.00  0.00    +0.000 C 
ATOM     12  C   UNL     1       0.324   8.955  21.031  0.00  0.00    +0.000 C 
ATOM     13  C   UNL     1       1.399   7.871  21.114  0.00  0.00    +0.000 C 
BRANCH  12  14
ATOM     14  O   UNL     1       0.123   9.642  22.254  0.00  0.00    +0.000 OA
ATOM     15  H   UNL     1       0.835  10.297  22.358  0.00  0.00    +0.000 HD
ENDBRANCH  12  14
ENDBRANCH   5   7
BRANCH   1  17
ATOM     16  O   UNL     1       3.951   3.158  17.540  0.00  0.00    +0.000 OA
ATOM     17  C   UNL     1       4.108   4.040  18.378  0.00  0.00    +0.000 C 
ATOM     18  N   UNL     1       5.186   4.899  18.374  0.00  0.00    +0.000 N 
ATOM     19  H   UNL     1       5.395   5.333  19.264  0.00  0.00    +0.000 HD
BRANCH  18  20
ATOM     20  C   UNL     1       6.337   4.789  17.481  0.00  0.00    +0.000 C 
ATOM     21  C   UNL     1       6.409   5.907  16.431  0.00  0.00    +0.000 C 
ATOM     22  C   UNL     1       6.584   7.277  17.083  0.00  0.00    +0.000 C 
ATOM     23  C   UNL     1       7.840   7.321  17.946  0.00  0.00    +0.000 C 
ATOM     24  C   UNL     1       7.904   6.173  18.953  0.00  0.00    +0.000 C 
ATOM     25  C   UNL     1       7.637   4.807  18.308  0.00  0.00    +0.000 C 
ENDBRANCH  18  20
ENDBRANCH   1  17
TORSDOF 4
ENDMDL
MODEL 4
REMARK VINA RESULT:      -6.7      2.048      4.866
REMARK  Name = 
REMARK  4 active torsions:
REMARK  status: ('A' for Active; 'I' for Inactive)
REMARK    1  A    between atoms: C_2  and  C_10
REMARK    2  A    between atoms: N_3  and  C_4
REMARK    3  A    between atoms: C_14  and  C_15
REMARK    4  A    between atoms: C_20  and  O_21
REMARK                            x       y       z     vdW  Elec       q    Type
REMARK                         _______ _______ _______ _____ _____    ______ ____
ROOT
ATOM      1  C   UNL     1       2.678   6.072  17.732  0.00  0.00    +0.000 A 
ATOM      2  N   UNL     1       1.999   7.204  18.133  0.00  0.00    +0.000 N 
ATOM      3  C   UNL     1       2.782   8.287  17.876  0.00  0.00    +0.000 A 
ATOM      4  N   UNL     1       3.934   7.936  17.354  0.00  0.00    +0.000 NA
ATOM      5  C   UNL     1       3.897   6.551  17.268  0.00  0.00    +0.000 A 
ATOM      6  H   UNL     1       1.059   7.206  18.510  0.00  0.00    +0.000 HD
ENDROOT
BRANCH   5   7
ATOM      7  C   UNL     1       4.993   5.714  16.771  0.00  0.00    +0.000 C 
ATOM      8  O   UNL     1       5.122   5.513  15.561  0.00  0.00    +0.000 OA
ATOM      9  N   UNL     1       5.975   5.301  17.651  0.00  0.00    +0.000 N 
ATOM     10  C   UNL     1       7.236   4.837  17.110  0.00  0.00    +0.000 C 
ATOM     11  C   UNL     1       8.200   4.789  18.280  0.00  0.00    +0.000 C 
ATOM     12  C   UNL     1       7.561   5.687  19.336  0.00  0.00    +0.000 C 
ATOM     13  C   UNL     1       6.060   5.543  19.082  0.00  0.00    +0.000 C 
BRANCH  12  14
ATOM     14  O   UNL     1       7.951   5.294  20.641  0.00  0.00    +0.000 OA
ATOM     15  H   UNL     1       7.703   6.003  21.261  0.00  0.00    +0.000 HD
ENDBRANCH  12  14
ENDBRANCH   5   7
BRANCH   1  17
ATOM     16  O   UNL     1       1.094   4.475  17.151  0.00  0.00    +0.000 OA
ATOM     17  C   UNL     1       2.079   4.761  17.824  0.00  0.00    +0.000 C 
ATOM     18  N   UNL     1       2.728   3.853  18.632  0.00  0.00    +0.000 N 
ATOM     19  H   UNL     1       3.282   4.257  19.377  0.00  0.00    +0.000 HD
BRANCH  18  20
ATOM     20  C   UNL     1       2.261   2.496  18.907  0.00  0.00    +0.000 C 
ATOM     21  C   UNL     1       3.265   1.649  19.700  0.00  0.00    +0.000 C 
ATOM     22  C   UNL     1       3.519   2.234  21.088  0.00  0.00    +0.000 C 
ATOM     23  C   UNL     1       2.223   2.348  21.884  0.00  0.00    +0.000 C 
ATOM     24  C   UNL     1       1.126   3.088  21.120  0.00  0.00    +0.000 C 
ATOM     25  C   UNL     1       0.938   2.555  19.694  0.00  0.00    +0.000 C 
ENDBRANCH  18  20
ENDBRANCH   1  17
TORSDOF 4
ENDMDL
MODEL 5
REMARK VINA RESULT:      -6.6      0.754      1.344
REMARK  Name = 
REMARK  4 active torsions:
REMARK  status: ('A' for Active; 'I' for Inactive)
REMARK    1  A    between atoms: C_2  and  C_10
REMARK    2  A    between atoms: N_3  and  C_4
REMARK    3  A    between atoms: C_14  and  C_15
REMARK    4  A    between atoms: C_20  and  O_21
REMARK                            x       y       z     vdW  Elec       q    Type
REMARK                         _______ _______ _______ _____ _____    ______ ____
ROOT
ATOM      1  C   UNL     1       2.808   6.337  19.000  0.00  0.00    +0.000 A 
ATOM      2  N   UNL     1       2.578   7.359  19.898  0.00  0.00    +0.000 N 
ATOM      3  C   UNL     1       1.617   6.953  20.772  0.00  0.00    +0.000 A 
ATOM      4  N   UNL     1       1.191   5.743  20.493  0.00  0.00    +0.000 NA
ATOM      5  C   UNL     1       1.913   5.343  19.376  0.00  0.00    +0.000 A 
ATOM      6  H   UNL     1       3.085   8.236  19.911  0.00  0.00    +0.000 HD
ENDROOT
BRANCH   5   7
ATOM      7  C   UNL     1       1.745   4.060  18.687  0.00  0.00    +0.000 C 
ATOM      8  O   UNL     1       1.010   3.976  17.701  0.00  0.00    +0.000 OA
ATOM      9  N   UNL     1       2.548   2.994  19.046  0.00  0.00    +0.000 N 
ATOM     10  C   UNL     1       2.671   1.883  18.126  0.00  0.00    +0.000 C 
ATOM     11  C   UNL     1       3.848   1.062  18.616  0.00  0.00    +0.000 C 
ATOM     12  C   UNL     1       4.629   2.017  19.516  0.00  0.00    +0.000 C 
ATOM     13  C   UNL     1       3.554   2.938  20.094  0.00  0.00    +0.000 C 
BRANCH  12  14
ATOM     14  O   UNL     1       5.352   1.306  20.506  0.00  0.00    +0.000 OA
ATOM     15  H   UNL     1       6.296   1.523  20.410  0.00  0.00    +0.000 HD
ENDBRANCH  12  14
ENDBRANCH   5   7
BRANCH   1  17
ATOM     16  O   UNL     1       3.704   7.256  17.063  0.00  0.00    +0.000 OA
ATOM     17  C   UNL     1       3.821   6.445  17.976  0.00  0.00    +0.000 C 
ATOM     18  N   UNL     1       4.938   5.656  18.143  0.00  0.00    +0.000 N 
ATOM     19  H   UNL     1       4.794   4.813  18.687  0.00  0.00    +0.000 HD
BRANCH  18  20
ATOM     20  C   UNL     1       6.049   5.571  17.198  0.00  0.00    +0.000 C 
ATOM     21  C   UNL     1       6.526   6.937  16.686  0.00  0.00    +0.000 C 
ATOM     22  C   UNL     1       7.079   7.798  17.819  0.00  0.00    +0.000 C 
ATOM     23  C   UNL     1       8.234   7.100  18.529  0.00  0.00    +0.000 C 
ATOM     24  C   UNL     1       7.879   5.684  18.980  0.00  0.00    +0.000 C 
ATOM     25  C   UNL     1       7.239   4.852  17.862  0.00  0.00    +0.000 C 
ENDBRANCH  18  20
ENDBRANCH   1  17
TORSDOF 4
ENDMDL
MODEL 6
REMARK VINA RESULT:      -6.6      2.014      4.636
REMARK  Name = 
REMARK  4 active torsions:
REMARK  status: ('A' for Active; 'I' for Inactive)
REMARK    1  A    between atoms: C_2  and  C_10
REMARK    2  A    between atoms: N_3  and  C_4
REMARK    3  A    between atoms: C_14  and  C_15
REMARK    4  A    between atoms: C_20  and  O_21
REMARK                            x       y       z     vdW  Elec       q    Type
REMARK                         _______ _______ _______ _____ _____    ______ ____
ROOT
ATOM      1  C   UNL     1       3.291   4.406  19.932  0.00  0.00    +0.000 A 
ATOM      2  N   UNL     1       2.832   3.366  20.713  0.00  0.00    +0.000 N 
ATOM      3  C   UNL     1       1.532   3.613  21.035  0.00  0.00    +0.000 A 
ATOM      4  N   UNL     1       1.119   4.753  20.531  0.00  0.00    +0.000 NA
ATOM      5  C   UNL     1       2.210   5.274  19.848  0.00  0.00    +0.000 A 
ATOM      6  H   UNL     1       3.375   2.546  20.955  0.00  0.00    +0.000 HD
ENDROOT
BRANCH   5   7
ATOM      7  C   UNL     1       2.221   6.564  19.151  0.00  0.00    +0.000 C 
ATOM      8  O   UNL     1       2.325   6.606  17.923  0.00  0.00    +0.000 OA
ATOM      9  N   UNL     1       1.939   7.714  19.863  0.00  0.00    +0.000 N 
ATOM     10  C   UNL     1       1.554   8.903  19.129  0.00  0.00    +0.000 C 
ATOM     11  C   UNL     1       0.988   9.863  20.157  0.00  0.00    +0.000 C 
ATOM     12  C   UNL     1       0.640   8.980  21.352  0.00  0.00    +0.000 C 
ATOM     13  C   UNL     1       1.669   7.850  21.284  0.00  0.00    +0.000 C 
BRANCH  12  14
ATOM     14  O   UNL     1       0.694   9.716  22.562  0.00  0.00    +0.000 OA
ATOM     15  H   UNL     1      -0.209  10.007  22.783  0.00  0.00    +0.000 HD
ENDBRANCH  12  14
ENDBRANCH   5   7
BRANCH   1  17
ATOM     16  O   UNL     1       5.429   3.530  19.693  0.00  0.00    +0.000 OA
ATOM     17  C   UNL     1       4.626   4.403  19.382  0.00  0.00    +0.000 C 
ATOM     18  N   UNL     1       4.897   5.375  18.443  0.00  0.00    +0.000 N 
ATOM     19  H   UNL     1       4.334   6.214  18.515  0.00  0.00    +0.000 HD
BRANCH  18  20
ATOM     20  C   UNL     1       6.197   5.584  17.809  0.00  0.00    +0.000 C 
ATOM     21  C   UNL     1       6.685   4.377  16.996  0.00  0.00    +0.000 C 
ATOM     22  C   UNL     1       5.753   4.078  15.824  0.00  0.00    +0.000 C 
ATOM     23  C   UNL     1       5.624   5.283  14.899  0.00  0.00    +0.000 C 
ATOM     24  C   UNL     1       5.245   6.561  15.647  0.00  0.00    +0.000 C 
ATOM     25  C   UNL     1       6.126   6.809  16.877  0.00  0.00    +0.000 C 
ENDBRANCH  18  20
ENDBRANCH   1  17
TORSDOF 4
ENDMDL
MODEL 7
REMARK VINA RESULT:      -6.6      2.481      4.856
REMARK  Name = 
REMARK  4 active torsions:
REMARK  status: ('A' for Active; 'I' for Inactive)
REMARK    1  A    between atoms: C_2  and  C_10
REMARK    2  A    between atoms: N_3  and  C_4
REMARK    3  A    between atoms: C_14  and  C_15
REMARK    4  A    between atoms: C_20  and  O_21
REMARK                            x       y       z     vdW  Elec       q    Type
REMARK                         _______ _______ _______ _____ _____    ______ ____
ROOT
ATOM      1  C   UNL     1       2.368   5.724  19.734  0.00  0.00    +0.000 A 
ATOM      2  N   UNL     1       1.964   5.568  21.043  0.00  0.00    +0.000 N 
ATOM      3  C   UNL     1       1.939   4.237  21.328  0.00  0.00    +0.000 A 
ATOM      4  N   UNL     1       2.281   3.514  20.286  0.00  0.00    +0.000 NA
ATOM      5  C   UNL     1       2.540   4.425  19.271  0.00  0.00    +0.000 A 
ATOM      6  H   UNL     1       1.769   6.331  21.679  0.00  0.00    +0.000 HD
ENDROOT
BRANCH   5   7
ATOM      7  C   UNL     1       2.926   4.065  17.904  0.00  0.00    +0.000 C 
ATOM      8  O   UNL     1       2.081   4.034  17.007  0.00  0.00    +0.000 OA
ATOM      9  N   UNL     1       4.268   3.933  17.598  0.00  0.00    +0.000 N 
ATOM     10  C   UNL     1       4.666   3.981  16.206  0.00  0.00    +0.000 C 
ATOM     11  C   UNL     1       6.172   4.157  16.208  0.00  0.00    +0.000 C 
ATOM     12  C   UNL     1       6.492   4.679  17.607  0.00  0.00    +0.000 C 
ATOM     13  C   UNL     1       5.410   4.054  18.488  0.00  0.00    +0.000 C 
BRANCH  12  14
ATOM     14  O   UNL     1       7.808   4.322  17.995  0.00  0.00    +0.000 OA
ATOM     15  H   UNL     1       8.361   4.275  17.194  0.00  0.00    +0.000 HD
ENDBRANCH  12  14
ENDBRANCH   5   7
BRANCH   1  17
ATOM     16  O   UNL     1       3.340   7.203  18.229  0.00  0.00    +0.000 OA
ATOM     17  C   UNL     1       2.549   7.033  19.151  0.00  0.00    +0.000 C 
ATOM     18  N   UNL     1       1.728   8.029  19.632  0.00  0.00    +0.000 N 
ATOM     19  H   UNL     1       1.389   7.890  20.576  0.00  0.00    +0.000 HD
BRANCH  18  20
ATOM     20  C   UNL     1       1.787   9.430  19.222  0.00  0.00    +0.000 C 
ATOM     21  C   UNL     1       1.156   9.695  17.847  0.00  0.00    +0.000 C 
ATOM     22  C   UNL     1      -0.338   9.379  17.847  0.00  0.00    +0.000 C 
ATOM     23  C   UNL     1      -1.076  10.198  18.901  0.00  0.00    +0.000 C 
ATOM     24  C   UNL     1      -0.445  10.078  20.288  0.00  0.00    +0.000 C 
ATOM     25  C   UNL     1       1.072  10.306  20.268  0.00  0.00    +0.000 C 
ENDBRANCH  18  20
ENDBRANCH   1  17
TORSDOF 4
ENDMDL
MODEL 8
REMARK VINA RESULT:      -6.6      1.923      4.593
REMARK  Name = 
REMARK  4 active torsions:
REMARK  status: ('A' for Active; 'I' for Inactive)
REMARK    1  A    between atoms: C_2  and  C_10
REMARK    2  A    between atoms: N_3  and  C_4
REMARK    3  A    between atoms: C_14  and  C_15
REMARK    4  A    between atoms: C_20  and  O_21
REMARK                            x       y       z     vdW  Elec       q    Type
REMARK                         _______ _______ _______ _____ _____    ______ ____
ROOT
ATOM      1  C   UNL     1       2.661   6.189  17.951  0.00  0.00    +0.000 A 
ATOM      2  N   UNL     1       2.020   7.364  18.284  0.00  0.00    +0.000 N 
ATOM      3  C   UNL     1       2.777   8.405  17.839  0.00  0.00    +0.000 A 
ATOM      4  N   UNL     1       3.877   7.987  17.257  0.00  0.00    +0.000 NA
ATOM      5  C   UNL     1       3.832   6.601  17.329  0.00  0.00    +0.000 A 
ATOM      6  H   UNL     1       1.118   7.417  18.740  0.00  0.00    +0.000 HD
ENDROOT
BRANCH   5   7
ATOM      7  C   UNL     1       4.879   5.704  16.832  0.00  0.00    +0.000 C 
ATOM      8  O   UNL     1       4.958   5.447  15.629  0.00  0.00    +0.000 OA
ATOM      9  N   UNL     1       5.878   5.293  17.695  0.00  0.00    +0.000 N 
ATOM     10  C   UNL     1       7.101   4.760  17.132  0.00  0.00    +0.000 C 
ATOM     11  C   UNL     1       8.104   4.726  18.268  0.00  0.00    +0.000 C 
ATOM     12  C   UNL     1       7.537   5.692  19.306  0.00  0.00    +0.000 C 
ATOM     13  C   UNL     1       6.023   5.592  19.110  0.00  0.00    +0.000 C 
BRANCH  12  14
ATOM     14  O   UNL     1       7.959   5.340  20.613  0.00  0.00    +0.000 OA
ATOM     15  H   UNL     1       8.443   6.095  20.991  0.00  0.00    +0.000 HD
ENDBRANCH  12  14
ENDBRANCH   5   7
BRANCH   1  17
ATOM     16  O   UNL     1       1.238   4.412  17.488  0.00  0.00    +0.000 OA
ATOM     17  C   UNL     1       2.073   4.901  18.241  0.00  0.00    +0.000 C 
ATOM     18  N   UNL     1       2.569   4.243  19.345  0.00  0.00    +0.000 N 
ATOM     19  H   UNL     1       2.965   4.839  20.061  0.00  0.00    +0.000 HD
BRANCH  18  20
ATOM     20  C   UNL     1       2.075   2.961  19.845  0.00  0.00    +0.000 C 
ATOM     21  C   UNL     1       2.121   1.837  18.801  0.00  0.00    +0.000 C 
ATOM     22  C   UNL     1       3.554   1.531  18.370  0.00  0.00    +0.000 C 
ATOM     23  C   UNL     1       4.418   1.139  19.564  0.00  0.00    +0.000 C 
ATOM     24  C   UNL     1       4.346   2.157  20.702  0.00  0.00    +0.000 C 
ATOM     25  C   UNL     1       2.904   2.530  21.069  0.00  0.00    +0.000 C 
ENDBRANCH  18  20
ENDBRANCH   1  17
TORSDOF 4
ENDMDL
MODEL 9
REMARK VINA RESULT:      -6.5      1.854      4.625
REMARK  Name = 
REMARK  4 active torsions:
REMARK  status: ('A' for Active; 'I' for Inactive)
REMARK    1  A    between atoms: C_2  and  C_10
REMARK    2  A    between atoms: N_3  and  C_4
REMARK    3  A    between atoms: C_14  and  C_15
REMARK    4  A    between atoms: C_20  and  O_21
REMARK                            x       y       z     vdW  Elec       q    Type
REMARK                         _______ _______ _______ _____ _____    ______ ____
ROOT
ATOM      1  C   UNL     1       3.431   4.052  19.910  0.00  0.00    +0.000 A 
ATOM      2  N   UNL     1       2.764   3.342  20.887  0.00  0.00    +0.000 N 
ATOM      3  C   UNL     1       1.530   3.894  21.050  0.00  0.00    +0.000 A 
ATOM      4  N   UNL     1       1.356   4.927  20.259  0.00  0.00    +0.000 NA
ATOM      5  C   UNL     1       2.541   5.054  19.546  0.00  0.00    +0.000 A 
ATOM      6  H   UNL     1       3.134   2.524  21.356  0.00  0.00    +0.000 HD
ENDROOT
BRANCH   5   7
ATOM      7  C   UNL     1       2.815   6.103  18.561  0.00  0.00    +0.000 C 
ATOM      8  O   UNL     1       3.180   5.806  17.421  0.00  0.00    +0.000 OA
ATOM      9  N   UNL     1       2.493   7.412  18.867  0.00  0.00    +0.000 N 
ATOM     10  C   UNL     1       2.381   8.367  17.783  0.00  0.00    +0.000 C 
ATOM     11  C   UNL     1       1.698   9.587  18.369  0.00  0.00    +0.000 C 
ATOM     12  C   UNL     1       1.027   9.073  19.641  0.00  0.00    +0.000 C 
ATOM     13  C   UNL     1       1.941   7.937  20.104  0.00  0.00    +0.000 C 
BRANCH  12  14
ATOM     14  O   UNL     1       0.889  10.109  20.598  0.00  0.00    +0.000 OA
ATOM     15  H   UNL     1       1.600  10.015  21.255  0.00  0.00    +0.000 HD
ENDBRANCH  12  14
ENDBRANCH   5   7
BRANCH   1  17
ATOM     16  O   UNL     1       5.147   2.515  19.603  0.00  0.00    +0.000 OA
ATOM     17  C   UNL     1       4.753   3.669  19.470  0.00  0.00    +0.000 C 
ATOM     18  N   UNL     1       5.484   4.645  18.828  0.00  0.00    +0.000 N 
ATOM     19  H   UNL     1       5.240   5.598  19.073  0.00  0.00    +0.000 HD
BRANCH  18  20
ATOM     20  C   UNL     1       6.858   4.485  18.357  0.00  0.00    +0.000 C 
ATOM     21  C   UNL     1       6.981   4.439  16.828  0.00  0.00    +0.000 C 
ATOM     22  C   UNL     1       6.529   5.751  16.190  0.00  0.00    +0.000 C 
ATOM     23  C   UNL     1       7.337   6.930  16.721  0.00  0.00    +0.000 C 
ATOM     24  C   UNL     1       7.358   6.990  18.248  0.00  0.00    +0.000 C 
ATOM     25  C   UNL     1       7.724   5.644  18.886  0.00  0.00    +0.000 C 
ENDBRANCH  18  20
ENDBRANCH   1  17
TORSDOF 4
ENDMDL
