MODEL 1
REMARK VINA RESULT:      -7.1      0.000      0.000
REMARK  Name = 
REMARK  7 active torsions:
REMARK  status: ('A' for Active; 'I' for Inactive)
REMARK    1  A    between atoms: C_1  and  C_2
REMARK    2  A    between atoms: C_2  and  C_3
REMARK    3  A    between atoms: C_3  and  N_4
REMARK    4  A    between atoms: C_7  and  N_8
REMARK    5  A    between atoms: N_11  and  C_12
REMARK    6  A    between atoms: C_16  and  C_17
REMARK    7  A    between atoms: N_24  and  C_25
REMARK                            x       y       z     vdW  Elec       q    Type
REMARK                         _______ _______ _______ _____ _____    ______ ____
ROOT
ATOM      1  N   UNL     1       0.279  13.086  19.731  0.00  0.00    +0.000 N 
ATOM      2  C   UNL     1       0.540  13.010  21.112  0.00  0.00    +0.000 C 
ATOM      3  O   UNL     1       1.410  13.697  21.650  0.00  0.00    +0.000 OA
ATOM      4  C   UNL     1      -0.256  11.949  21.934  0.00  0.00    +0.000 C 
ATOM      5  N   UNL     1       0.360  10.639  21.679  0.00  0.00    +0.000 NA
ATOM      6  C   UNL     1       0.349  10.153  20.480  0.00  0.00    +0.000 C 
ATOM      7  N   UNL     1       1.009   8.961  20.188  0.00  0.00    +0.000 N 
ATOM      8  C   UNL     1       2.098   8.988  19.188  0.00  0.00    +0.000 C 
ATOM      9  C   UNL     1       2.327   7.577  18.603  0.00  0.00    +0.000 C 
ATOM     10  N   UNL     1       2.608   6.576  19.655  0.00  0.00    +0.000 NA
ATOM     11  C   UNL     1       2.790   5.248  19.076  0.00  0.00    +0.000 C 
ATOM     12  C   UNL     1       1.504   6.585  20.641  0.00  0.00    +0.000 C 
ATOM     13  C   UNL     1       1.280   7.986  21.259  0.00  0.00    +0.000 C 
ATOM     14  C   UNL     1      -0.466  10.744  19.366  0.00  0.00    +0.000 A 
ATOM     15  C   UNL     1      -1.273   9.821  18.666  0.00  0.00    +0.000 A 
ATOM     16  C   UNL     1      -2.149  10.252  17.677  0.00  0.00    +0.000 A 
ATOM     17  C   UNL     1      -2.227  11.605  17.382  0.00  0.00    +0.000 A 
ATOM     18  C   UNL     1      -1.406  12.523  18.052  0.00  0.00    +0.000 A 
ATOM     19  C   UNL     1      -0.505  12.113  19.050  0.00  0.00    +0.000 A 
ENDROOT
BRANCH   4  20
ATOM     20  N   UNL     1      -1.687  11.862  21.739  0.00  0.00    +0.000 N 
ATOM     21  C   UNL     1      -2.528  12.694  22.435  0.00  0.00    +0.000 C 
ATOM     22  O   UNL     1      -2.122  13.626  23.116  0.00  0.00    +0.000 OA
ATOM     23  N   UNL     1      -3.855  12.373  22.233  0.00  0.00    +0.000 N 
ATOM     24  H   UNL     1      -2.022  10.965  21.440  0.00  0.00    +0.000 HD
ATOM     25  H   UNL     1      -4.041  11.386  22.138  0.00  0.00    +0.000 HD
BRANCH  23  26
ATOM     26  C   UNL     1      -4.911  13.165  22.730  0.00  0.00    +0.000 A 
ATOM     27  C   UNL     1      -5.707  12.648  23.753  0.00  0.00    +0.000 A 
ATOM     28  C   UNL     1      -6.757  13.408  24.274  0.00  0.00    +0.000 A 
ATOM     29  C   UNL     1      -7.066  14.648  23.719  0.00  0.00    +0.000 A 
ATOM     30  C   UNL     1      -6.316  15.151  22.650  0.00  0.00    +0.000 A 
ATOM     31  C   UNL     1      -6.706  16.439  21.983  0.00  0.00    +0.000 C 
ATOM     32  C   UNL     1      -5.210  14.420  22.188  0.00  0.00    +0.000 A 
ENDBRANCH  23  26
ENDBRANCH   4  20
BRANCH   1  33
ATOM     33  C   UNL     1       0.915  14.176  18.979  0.00  0.00    +0.000 C 
BRANCH  33  35
ATOM     34  C   UNL     1       3.163  14.901  17.957  0.00  0.00    +0.000 C 
ATOM     35  C   UNL     1       2.190  13.763  18.227  0.00  0.00    +0.000 C 
ENDBRANCH  33  35
ENDBRANCH   1  33
TORSDOF 4
ENDMDL
MODEL 2
REMARK VINA RESULT:      -6.9      0.452      1.156
REMARK  Name = 
REMARK  7 active torsions:
REMARK  status: ('A' for Active; 'I' for Inactive)
REMARK    1  A    between atoms: C_1  and  C_2
REMARK    2  A    between atoms: C_2  and  C_3
REMARK    3  A    between atoms: C_3  and  N_4
REMARK    4  A    between atoms: C_7  and  N_8
REMARK    5  A    between atoms: N_11  and  C_12
REMARK    6  A    between atoms: C_16  and  C_17
REMARK    7  A    between atoms: N_24  and  C_25
REMARK                            x       y       z     vdW  Elec       q    Type
REMARK                         _______ _______ _______ _____ _____    ______ ____
ROOT
ATOM      1  N   UNL     1       0.292  12.963  19.648  0.00  0.00    +0.000 N 
ATOM      2  C   UNL     1       0.560  12.888  21.029  0.00  0.00    +0.000 C 
ATOM      3  O   UNL     1       1.427  13.581  21.563  0.00  0.00    +0.000 OA
ATOM      4  C   UNL     1      -0.225  11.821  21.854  0.00  0.00    +0.000 C 
ATOM      5  N   UNL     1       0.400  10.516  21.595  0.00  0.00    +0.000 NA
ATOM      6  C   UNL     1       0.387  10.030  20.396  0.00  0.00    +0.000 C 
ATOM      7  N   UNL     1       1.054   8.843  20.100  0.00  0.00    +0.000 N 
ATOM      8  C   UNL     1       2.139   8.879  19.095  0.00  0.00    +0.000 C 
ATOM      9  C   UNL     1       2.375   7.470  18.508  0.00  0.00    +0.000 C 
ATOM     10  N   UNL     1       2.669   6.470  19.559  0.00  0.00    +0.000 NA
ATOM     11  C   UNL     1       2.857   5.144  18.978  0.00  0.00    +0.000 C 
ATOM     12  C   UNL     1       1.569   6.470  20.550  0.00  0.00    +0.000 C 
ATOM     13  C   UNL     1       1.337   7.870  21.169  0.00  0.00    +0.000 C 
ATOM     14  C   UNL     1      -0.437  10.616  19.285  0.00  0.00    +0.000 A 
ATOM     15  C   UNL     1      -1.240   9.687  18.588  0.00  0.00    +0.000 A 
ATOM     16  C   UNL     1      -2.124  10.112  17.604  0.00  0.00    +0.000 A 
ATOM     17  C   UNL     1      -2.213  11.465  17.310  0.00  0.00    +0.000 A 
ATOM     18  C   UNL     1      -1.396  12.389  17.976  0.00  0.00    +0.000 A 
ATOM     19  C   UNL     1      -0.488  11.985  18.970  0.00  0.00    +0.000 A 
ENDROOT
BRANCH   4  20
ATOM     20  N   UNL     1      -1.656  11.723  21.664  0.00  0.00    +0.000 N 
ATOM     21  C   UNL     1      -2.478  12.733  22.101  0.00  0.00    +0.000 C 
ATOM     22  O   UNL     1      -2.050  13.802  22.516  0.00  0.00    +0.000 OA
ATOM     23  N   UNL     1      -3.812  12.406  21.969  0.00  0.00    +0.000 N 
ATOM     24  H   UNL     1      -2.015  10.788  21.608  0.00  0.00    +0.000 HD
ATOM     25  H   UNL     1      -4.027  11.434  22.136  0.00  0.00    +0.000 HD
BRANCH  23  26
ATOM     26  C   UNL     1      -4.848  13.330  22.220  0.00  0.00    +0.000 A 
ATOM     27  C   UNL     1      -4.822  14.555  21.554  0.00  0.00    +0.000 A 
ATOM     28  C   UNL     1      -5.835  15.491  21.773  0.00  0.00    +0.000 A 
ATOM     29  C   UNL     1      -6.829  15.240  22.718  0.00  0.00    +0.000 A 
ATOM     30  C   UNL     1      -6.830  14.041  23.440  0.00  0.00    +0.000 A 
ATOM     31  C   UNL     1      -7.837  13.807  24.530  0.00  0.00    +0.000 C 
ATOM     32  C   UNL     1      -5.857  13.070  23.154  0.00  0.00    +0.000 A 
ENDBRANCH  23  26
ENDBRANCH   4  20
BRANCH   1  33
ATOM     33  C   UNL     1       0.916  14.058  18.895  0.00  0.00    +0.000 C 
BRANCH  33  35
ATOM     34  C   UNL     1       3.437  14.409  18.504  0.00  0.00    +0.000 C 
ATOM     35  C   UNL     1       2.177  13.648  18.115  0.00  0.00    +0.000 C 
ENDBRANCH  33  35
ENDBRANCH   1  33
TORSDOF 4
ENDMDL
MODEL 3
REMARK VINA RESULT:      -6.9      3.270      8.722
REMARK  Name = 
REMARK  7 active torsions:
REMARK  status: ('A' for Active; 'I' for Inactive)
REMARK    1  A    between atoms: C_1  and  C_2
REMARK    2  A    between atoms: C_2  and  C_3
REMARK    3  A    between atoms: C_3  and  N_4
REMARK    4  A    between atoms: C_7  and  N_8
REMARK    5  A    between atoms: N_11  and  C_12
REMARK    6  A    between atoms: C_16  and  C_17
REMARK    7  A    between atoms: N_24  and  C_25
REMARK                            x       y       z     vdW  Elec       q    Type
REMARK                         _______ _______ _______ _____ _____    ______ ____
ROOT
ATOM      1  N   UNL     1       1.674  11.902  20.115  0.00  0.00    +0.000 N 
ATOM      2  C   UNL     1       1.964  11.786  18.742  0.00  0.00    +0.000 C 
ATOM      3  O   UNL     1       2.469  12.709  18.101  0.00  0.00    +0.000 OA
ATOM      4  C   UNL     1       1.535  10.465  18.028  0.00  0.00    +0.000 C 
ATOM      5  N   UNL     1       0.088  10.546  17.783  0.00  0.00    +0.000 NA
ATOM      6  C   UNL     1      -0.725  10.616  18.788  0.00  0.00    +0.000 C 
ATOM      7  N   UNL     1      -2.093  10.790  18.587  0.00  0.00    +0.000 N 
ATOM      8  C   UNL     1      -2.737  11.997  19.150  0.00  0.00    +0.000 C 
ATOM      9  C   UNL     1      -4.255  11.769  19.316  0.00  0.00    +0.000 C 
ATOM     10  N   UNL     1      -4.902  11.375  18.045  0.00  0.00    +0.000 NA
ATOM     11  C   UNL     1      -6.329  11.137  18.238  0.00  0.00    +0.000 C 
ATOM     12  C   UNL     1      -4.226  10.173  17.507  0.00  0.00    +0.000 C 
ATOM     13  C   UNL     1      -2.707  10.394  17.307  0.00  0.00    +0.000 C 
ATOM     14  C   UNL     1      -0.293  10.386  20.207  0.00  0.00    +0.000 A 
ATOM     15  C   UNL     1      -1.081   9.462  20.926  0.00  0.00    +0.000 A 
ATOM     16  C   UNL     1      -0.731   9.084  22.217  0.00  0.00    +0.000 A 
ATOM     17  C   UNL     1       0.407   9.625  22.797  0.00  0.00    +0.000 A 
ATOM     18  C   UNL     1       1.176  10.568  22.101  0.00  0.00    +0.000 A 
ATOM     19  C   UNL     1       0.841  10.973  20.798  0.00  0.00    +0.000 A 
ENDROOT
BRANCH   4  20
ATOM     20  N   UNL     1       1.853   9.206  18.666  0.00  0.00    +0.000 N 
ATOM     21  C   UNL     1       2.433   8.196  17.941  0.00  0.00    +0.000 C 
ATOM     22  O   UNL     1       2.843   8.352  16.798  0.00  0.00    +0.000 OA
ATOM     23  N   UNL     1       2.530   7.028  18.669  0.00  0.00    +0.000 N 
ATOM     24  H   UNL     1       1.286   8.976  19.460  0.00  0.00    +0.000 HD
ATOM     25  H   UNL     1       1.760   6.857  19.298  0.00  0.00    +0.000 HD
BRANCH  23  26
ATOM     26  C   UNL     1       3.213   5.890  18.190  0.00  0.00    +0.000 A 
ATOM     27  C   UNL     1       2.467   4.765  17.836  0.00  0.00    +0.000 A 
ATOM     28  C   UNL     1       3.108   3.624  17.352  0.00  0.00    +0.000 A 
ATOM     29  C   UNL     1       4.500   3.572  17.300  0.00  0.00    +0.000 A 
ATOM     30  C   UNL     1       5.264   4.669  17.713  0.00  0.00    +0.000 A 
ATOM     31  C   UNL     1       6.764   4.584  17.754  0.00  0.00    +0.000 C 
ATOM     32  C   UNL     1       4.610   5.844  18.118  0.00  0.00    +0.000 A 
ENDBRANCH  23  26
ENDBRANCH   4  20
BRANCH   1  33
ATOM     33  C   UNL     1       2.203  13.075  20.823  0.00  0.00    +0.000 C 
BRANCH  33  35
ATOM     34  C   UNL     1       0.165  14.521  20.204  0.00  0.00    +0.000 C 
ATOM     35  C   UNL     1       1.125  14.066  21.293  0.00  0.00    +0.000 C 
ENDBRANCH  33  35
ENDBRANCH   1  33
TORSDOF 4
ENDMDL
MODEL 4
REMARK VINA RESULT:      -6.7      1.807      7.732
REMARK  Name = 
REMARK  7 active torsions:
REMARK  status: ('A' for Active; 'I' for Inactive)
REMARK    1  A    between atoms: C_1  and  C_2
REMARK    2  A    between atoms: C_2  and  C_3
REMARK    3  A    between atoms: C_3  and  N_4
REMARK    4  A    between atoms: C_7  and  N_8
REMARK    5  A    between atoms: N_11  and  C_12
REMARK    6  A    between atoms: C_16  and  C_17
REMARK    7  A    between atoms: N_24  and  C_25
REMARK                            x       y       z     vdW  Elec       q    Type
REMARK                         _______ _______ _______ _____ _____    ______ ____
ROOT
ATOM      1  N   UNL     1      -2.367  12.376  21.618  0.00  0.00    +0.000 N 
ATOM      2  C   UNL     1      -1.356  12.154  22.573  0.00  0.00    +0.000 C 
ATOM      3  O   UNL     1      -1.469  12.529  23.741  0.00  0.00    +0.000 OA
ATOM      4  C   UNL     1      -0.034  11.490  22.076  0.00  0.00    +0.000 C 
ATOM      5  N   UNL     1       0.750  12.527  21.391  0.00  0.00    +0.000 NA
ATOM      6  C   UNL     1       0.277  13.081  20.321  0.00  0.00    +0.000 C 
ATOM      7  N   UNL     1       0.952  14.132  19.705  0.00  0.00    +0.000 N 
ATOM      8  C   UNL     1       0.262  15.436  19.586  0.00  0.00    +0.000 C 
ATOM      9  C   UNL     1       0.886  16.274  18.450  0.00  0.00    +0.000 C 
ATOM     10  N   UNL     1       2.341  16.468  18.634  0.00  0.00    +0.000 NA
ATOM     11  C   UNL     1       2.908  17.237  17.530  0.00  0.00    +0.000 C 
ATOM     12  C   UNL     1       2.995  15.146  18.758  0.00  0.00    +0.000 C 
ATOM     13  C   UNL     1       2.400  14.303  19.912  0.00  0.00    +0.000 C 
ATOM     14  C   UNL     1      -0.932  12.561  19.598  0.00  0.00    +0.000 A 
ATOM     15  C   UNL     1      -0.758  12.371  18.210  0.00  0.00    +0.000 A 
ATOM     16  C   UNL     1      -1.766  11.803  17.440  0.00  0.00    +0.000 A 
ATOM     17  C   UNL     1      -2.951  11.420  18.050  0.00  0.00    +0.000 A 
ATOM     18  C   UNL     1      -3.143  11.635  19.422  0.00  0.00    +0.000 A 
ATOM     19  C   UNL     1      -2.143  12.214  20.222  0.00  0.00    +0.000 A 
ENDROOT
BRANCH   4  20
ATOM     20  N   UNL     1      -0.129  10.315  21.236  0.00  0.00    +0.000 N 
ATOM     21  C   UNL     1       0.909   9.419  21.187  0.00  0.00    +0.000 C 
ATOM     22  O   UNL     1       1.871   9.479  21.942  0.00  0.00    +0.000 OA
ATOM     23  N   UNL     1       0.706   8.445  20.231  0.00  0.00    +0.000 N 
ATOM     24  H   UNL     1      -0.734  10.408  20.441  0.00  0.00    +0.000 HD
ATOM     25  H   UNL     1       0.238   8.764  19.396  0.00  0.00    +0.000 HD
BRANCH  23  26
ATOM     26  C   UNL     1       1.565   7.335  20.085  0.00  0.00    +0.000 A 
ATOM     27  C   UNL     1       2.516   7.360  19.065  0.00  0.00    +0.000 A 
ATOM     28  C   UNL     1       3.387   6.282  18.894  0.00  0.00    +0.000 A 
ATOM     29  C   UNL     1       3.255   5.143  19.687  0.00  0.00    +0.000 A 
ATOM     30  C   UNL     1       2.262   5.079  20.671  0.00  0.00    +0.000 A 
ATOM     31  C   UNL     1       2.050   3.818  21.460  0.00  0.00    +0.000 C 
ATOM     32  C   UNL     1       1.446   6.200  20.893  0.00  0.00    +0.000 A 
ENDBRANCH  23  26
ENDBRANCH   4  20
BRANCH   1  33
ATOM     33  C   UNL     1      -3.664  12.864  22.104  0.00  0.00    +0.000 C 
BRANCH  33  35
ATOM     34  C   UNL     1      -5.039  14.640  20.847  0.00  0.00    +0.000 C 
ATOM     35  C   UNL     1      -3.917  14.356  21.834  0.00  0.00    +0.000 C 
ENDBRANCH  33  35
ENDBRANCH   1  33
TORSDOF 4
ENDMDL
MODEL 5
REMARK VINA RESULT:      -6.7      2.818      6.024
REMARK  Name = 
REMARK  7 active torsions:
REMARK  status: ('A' for Active; 'I' for Inactive)
REMARK    1  A    between atoms: C_1  and  C_2
REMARK    2  A    between atoms: C_2  and  C_3
REMARK    3  A    between atoms: C_3  and  N_4
REMARK    4  A    between atoms: C_7  and  N_8
REMARK    5  A    between atoms: N_11  and  C_12
REMARK    6  A    between atoms: C_16  and  C_17
REMARK    7  A    between atoms: N_24  and  C_25
REMARK                            x       y       z     vdW  Elec       q    Type
REMARK                         _______ _______ _______ _____ _____    ______ ____
ROOT
ATOM      1  N   UNL     1       0.438  11.239  20.946  0.00  0.00    +0.000 N 
ATOM      2  C   UNL     1       0.518  11.075  19.550  0.00  0.00    +0.000 C 
ATOM      3  O   UNL     1       1.046  10.086  19.038  0.00  0.00    +0.000 OA
ATOM      4  C   UNL     1      -0.010  12.243  18.660  0.00  0.00    +0.000 C 
ATOM      5  N   UNL     1       1.015  13.297  18.661  0.00  0.00    +0.000 NA
ATOM      6  C   UNL     1       1.321  13.886  19.772  0.00  0.00    +0.000 C 
ATOM      7  N   UNL     1       2.355  14.819  19.822  0.00  0.00    +0.000 N 
ATOM      8  C   UNL     1       3.507  14.543  20.708  0.00  0.00    +0.000 C 
ATOM      9  C   UNL     1       4.244  15.855  21.056  0.00  0.00    +0.000 C 
ATOM     10  N   UNL     1       4.679  16.588  19.847  0.00  0.00    +0.000 NA
ATOM     11  C   UNL     1       5.345  17.836  20.205  0.00  0.00    +0.000 C 
ATOM     12  C   UNL     1       3.504  16.836  18.981  0.00  0.00    +0.000 C 
ATOM     13  C   UNL     1       2.769  15.528  18.599  0.00  0.00    +0.000 C 
ATOM     14  C   UNL     1       0.522  13.720  21.033  0.00  0.00    +0.000 A 
ATOM     15  C   UNL     1       0.150  14.927  21.663  0.00  0.00    +0.000 A 
ATOM     16  C   UNL     1      -0.674  14.918  22.782  0.00  0.00    +0.000 A 
ATOM     17  C   UNL     1      -1.131  13.706  23.278  0.00  0.00    +0.000 A 
ATOM     18  C   UNL     1      -0.739  12.502  22.676  0.00  0.00    +0.000 A 
ATOM     19  C   UNL     1       0.099  12.483  21.548  0.00  0.00    +0.000 A 
ENDROOT
BRANCH   4  20
ATOM     20  N   UNL     1      -1.301  12.817  18.975  0.00  0.00    +0.000 N 
ATOM     21  C   UNL     1      -2.420  12.023  18.991  0.00  0.00    +0.000 C 
ATOM     22  O   UNL     1      -2.368  10.803  18.900  0.00  0.00    +0.000 OA
ATOM     23  N   UNL     1      -3.573  12.760  19.166  0.00  0.00    +0.000 N 
ATOM     24  H   UNL     1      -1.395  13.793  18.765  0.00  0.00    +0.000 HD
ATOM     25  H   UNL     1      -3.568  13.664  18.718  0.00  0.00    +0.000 HD
BRANCH  23  26
ATOM     26  C   UNL     1      -4.836  12.160  19.354  0.00  0.00    +0.000 A 
ATOM     27  C   UNL     1      -5.425  11.496  18.278  0.00  0.00    +0.000 A 
ATOM     28  C   UNL     1      -6.671  10.884  18.430  0.00  0.00    +0.000 A 
ATOM     29  C   UNL     1      -7.369  11.007  19.631  0.00  0.00    +0.000 A 
ATOM     30  C   UNL     1      -6.818  11.726  20.698  0.00  0.00    +0.000 A 
ATOM     31  C   UNL     1      -7.607  11.947  21.957  0.00  0.00    +0.000 C 
ATOM     32  C   UNL     1      -5.529  12.265  20.566  0.00  0.00    +0.000 A 
ENDBRANCH  23  26
ENDBRANCH   4  20
BRANCH   1  33
ATOM     33  C   UNL     1       0.795  10.088  21.786  0.00  0.00    +0.000 C 
BRANCH  33  35
ATOM     34  C   UNL     1      -0.374   7.836  21.349  0.00  0.00    +0.000 C 
ATOM     35  C   UNL     1      -0.383   9.154  22.109  0.00  0.00    +0.000 C 
ENDBRANCH  33  35
ENDBRANCH   1  33
TORSDOF 4
ENDMDL
MODEL 6
REMARK VINA RESULT:      -6.6      3.366      8.630
REMARK  Name = 
REMARK  7 active torsions:
REMARK  status: ('A' for Active; 'I' for Inactive)
REMARK    1  A    between atoms: C_1  and  C_2
REMARK    2  A    between atoms: C_2  and  C_3
REMARK    3  A    between atoms: C_3  and  N_4
REMARK    4  A    between atoms: C_7  and  N_8
REMARK    5  A    between atoms: N_11  and  C_12
REMARK    6  A    between atoms: C_16  and  C_17
REMARK    7  A    between atoms: N_24  and  C_25
REMARK                            x       y       z     vdW  Elec       q    Type
REMARK                         _______ _______ _______ _____ _____    ______ ____
ROOT
ATOM      1  N   UNL     1       1.717  11.802  19.931  0.00  0.00    +0.000 N 
ATOM      2  C   UNL     1       2.018  11.456  18.601  0.00  0.00    +0.000 C 
ATOM      3  O   UNL     1       2.579  12.240  17.833  0.00  0.00    +0.000 OA
ATOM      4  C   UNL     1       1.532  10.061  18.096  0.00  0.00    +0.000 C 
ATOM      5  N   UNL     1       0.094  10.172  17.810  0.00  0.00    +0.000 NA
ATOM      6  C   UNL     1      -0.728  10.441  18.773  0.00  0.00    +0.000 C 
ATOM      7  N   UNL     1      -2.081  10.648  18.518  0.00  0.00    +0.000 N 
ATOM      8  C   UNL     1      -2.670  11.959  18.870  0.00  0.00    +0.000 C 
ATOM      9  C   UNL     1      -4.200  11.834  19.037  0.00  0.00    +0.000 C 
ATOM     10  N   UNL     1      -4.850  11.276  17.831  0.00  0.00    +0.000 NA
ATOM     11  C   UNL     1      -6.290  11.141  18.029  0.00  0.00    +0.000 C 
ATOM     12  C   UNL     1      -4.229   9.972  17.505  0.00  0.00    +0.000 C 
ATOM     13  C   UNL     1      -2.698  10.084  17.305  0.00  0.00    +0.000 C 
ATOM     14  C   UNL     1      -0.326  10.418  20.220  0.00  0.00    +0.000 A 
ATOM     15  C   UNL     1      -1.171   9.659  21.059  0.00  0.00    +0.000 A 
ATOM     16  C   UNL     1      -0.858   9.474  22.400  0.00  0.00    +0.000 A 
ATOM     17  C   UNL     1       0.298  10.045  22.912  0.00  0.00    +0.000 A 
ATOM     18  C   UNL     1       1.124  10.826  22.092  0.00  0.00    +0.000 A 
ATOM     19  C   UNL     1       0.827  11.035  20.735  0.00  0.00    +0.000 A 
ENDROOT
BRANCH   4  20
ATOM     20  N   UNL     1       1.776   8.905  18.931  0.00  0.00    +0.000 N 
ATOM     21  C   UNL     1       2.413   7.806  18.412  0.00  0.00    +0.000 C 
ATOM     22  O   UNL     1       2.931   7.802  17.303  0.00  0.00    +0.000 OA
ATOM     23  N   UNL     1       2.430   6.752  19.303  0.00  0.00    +0.000 N 
ATOM     24  H   UNL     1       1.133   8.787  19.691  0.00  0.00    +0.000 HD
ATOM     25  H   UNL     1       1.602   6.668  19.874  0.00  0.00    +0.000 HD
BRANCH  23  26
ATOM     26  C   UNL     1       3.144   5.561  19.056  0.00  0.00    +0.000 A 
ATOM     27  C   UNL     1       4.521   5.550  19.284  0.00  0.00    +0.000 A 
ATOM     28  C   UNL     1       5.259   4.387  19.057  0.00  0.00    +0.000 A 
ATOM     29  C   UNL     1       4.640   3.258  18.522  0.00  0.00    +0.000 A 
ATOM     30  C   UNL     1       3.271   3.276  18.227  0.00  0.00    +0.000 A 
ATOM     31  C   UNL     1       2.620   2.099  17.559  0.00  0.00    +0.000 C 
ATOM     32  C   UNL     1       2.520   4.420  18.538  0.00  0.00    +0.000 A 
ENDBRANCH  23  26
ENDBRANCH   4  20
BRANCH   1  33
ATOM     33  C   UNL     1       2.296  13.046  20.457  0.00  0.00    +0.000 C 
BRANCH  33  35
ATOM     34  C   UNL     1       0.290  14.368  19.532  0.00  0.00    +0.000 C 
ATOM     35  C   UNL     1       1.273  14.173  20.676  0.00  0.00    +0.000 C 
ENDBRANCH  33  35
ENDBRANCH   1  33
TORSDOF 4
ENDMDL
MODEL 7
REMARK VINA RESULT:      -6.6      2.753      5.888
REMARK  Name = 
REMARK  7 active torsions:
REMARK  status: ('A' for Active; 'I' for Inactive)
REMARK    1  A    between atoms: C_1  and  C_2
REMARK    2  A    between atoms: C_2  and  C_3
REMARK    3  A    between atoms: C_3  and  N_4
REMARK    4  A    between atoms: C_7  and  N_8
REMARK    5  A    between atoms: N_11  and  C_12
REMARK    6  A    between atoms: C_16  and  C_17
REMARK    7  A    between atoms: N_24  and  C_25
REMARK                            x       y       z     vdW  Elec       q    Type
REMARK                         _______ _______ _______ _____ _____    ______ ____
ROOT
ATOM      1  N   UNL     1       1.013   9.227  20.282  0.00  0.00    +0.000 N 
ATOM      2  C   UNL     1       0.965   9.408  18.887  0.00  0.00    +0.000 C 
ATOM      3  O   UNL     1       1.744   8.831  18.126  0.00  0.00    +0.000 OA
ATOM      4  C   UNL     1      -0.063  10.445  18.334  0.00  0.00    +0.000 C 
ATOM      5  N   UNL     1       0.501  11.785  18.554  0.00  0.00    +0.000 NA
ATOM      6  C   UNL     1       0.714  12.195  19.763  0.00  0.00    +0.000 C 
ATOM      7  N   UNL     1       1.336  13.419  20.000  0.00  0.00    +0.000 N 
ATOM      8  C   UNL     1       2.615  13.424  20.744  0.00  0.00    +0.000 C 
ATOM      9  C   UNL     1       2.865  14.812  21.375  0.00  0.00    +0.000 C 
ATOM     10  N   UNL     1       2.842  15.895  20.367  0.00  0.00    +0.000 NA
ATOM     11  C   UNL     1       3.050  17.196  20.995  0.00  0.00    +0.000 C 
ATOM     12  C   UNL     1       1.555  15.852  19.637  0.00  0.00    +0.000 C 
ATOM     13  C   UNL     1       1.301  14.476  18.974  0.00  0.00    +0.000 C 
ATOM     14  C   UNL     1       0.202  11.471  20.975  0.00  0.00    +0.000 A 
ATOM     15  C   UNL     1      -0.497  12.278  21.897  0.00  0.00    +0.000 A 
ATOM     16  C   UNL     1      -1.108  11.716  23.012  0.00  0.00    +0.000 A 
ATOM     17  C   UNL     1      -1.025  10.345  23.211  0.00  0.00    +0.000 A 
ATOM     18  C   UNL     1      -0.305   9.542  22.316  0.00  0.00    +0.000 A 
ATOM     19  C   UNL     1       0.328  10.087  21.185  0.00  0.00    +0.000 A 
ENDROOT
BRANCH   4  20
ATOM     20  N   UNL     1      -1.420  10.398  18.832  0.00  0.00    +0.000 N 
ATOM     21  C   UNL     1      -2.353  11.293  18.369  0.00  0.00    +0.000 C 
ATOM     22  O   UNL     1      -2.138  12.047  17.430  0.00  0.00    +0.000 OA
ATOM     23  N   UNL     1      -3.546  11.196  19.056  0.00  0.00    +0.000 N 
ATOM     24  H   UNL     1      -1.522  10.017  19.754  0.00  0.00    +0.000 HD
ATOM     25  H   UNL     1      -3.451  10.986  20.038  0.00  0.00    +0.000 HD
BRANCH  23  26
ATOM     26  C   UNL     1      -4.700  11.912  18.676  0.00  0.00    +0.000 A 
ATOM     27  C   UNL     1      -5.306  11.601  17.458  0.00  0.00    +0.000 A 
ATOM     28  C   UNL     1      -6.454  12.285  17.053  0.00  0.00    +0.000 A 
ATOM     29  C   UNL     1      -6.951  13.336  17.822  0.00  0.00    +0.000 A 
ATOM     30  C   UNL     1      -6.315  13.701  19.014  0.00  0.00    +0.000 A 
ATOM     31  C   UNL     1      -6.786  14.896  19.795  0.00  0.00    +0.000 C 
ATOM     32  C   UNL     1      -5.212  12.954  19.457  0.00  0.00    +0.000 A 
ENDBRANCH  23  26
ENDBRANCH   4  20
BRANCH   1  33
ATOM     33  C   UNL     1       1.871   8.151  20.797  0.00  0.00    +0.000 C 
BRANCH  33  35
ATOM     34  C   UNL     1       2.139   5.661  20.203  0.00  0.00    +0.000 C 
ATOM     35  C   UNL     1       1.229   6.755  20.743  0.00  0.00    +0.000 C 
ENDBRANCH  33  35
ENDBRANCH   1  33
TORSDOF 4
ENDMDL
MODEL 8
REMARK VINA RESULT:      -6.3      1.900      7.651
REMARK  Name = 
REMARK  7 active torsions:
REMARK  status: ('A' for Active; 'I' for Inactive)
REMARK    1  A    between atoms: C_1  and  C_2
REMARK    2  A    between atoms: C_2  and  C_3
REMARK    3  A    between atoms: C_3  and  N_4
REMARK    4  A    between atoms: C_7  and  N_8
REMARK    5  A    between atoms: N_11  and  C_12
REMARK    6  A    between atoms: C_16  and  C_17
REMARK    7  A    between atoms: N_24  and  C_25
REMARK                            x       y       z     vdW  Elec       q    Type
REMARK                         _______ _______ _______ _____ _____    ______ ____
ROOT
ATOM      1  N   UNL     1      -2.362  12.335  21.614  0.00  0.00    +0.000 N 
ATOM      2  C   UNL     1      -1.381  12.076  22.591  0.00  0.00    +0.000 C 
ATOM      3  O   UNL     1      -1.518  12.430  23.763  0.00  0.00    +0.000 OA
ATOM      4  C   UNL     1      -0.058  11.397  22.116  0.00  0.00    +0.000 C 
ATOM      5  N   UNL     1       0.763  12.433  21.472  0.00  0.00    +0.000 NA
ATOM      6  C   UNL     1       0.328  13.015  20.401  0.00  0.00    +0.000 C 
ATOM      7  N   UNL     1       1.037  14.066  19.824  0.00  0.00    +0.000 N 
ATOM      8  C   UNL     1       0.374  15.384  19.713  0.00  0.00    +0.000 C 
ATOM      9  C   UNL     1       1.043  16.232  18.609  0.00  0.00    +0.000 C 
ATOM     10  N   UNL     1       2.496  16.396  18.835  0.00  0.00    +0.000 NA
ATOM     11  C   UNL     1       3.106  17.175  17.762  0.00  0.00    +0.000 C 
ATOM     12  C   UNL     1       3.122  15.059  18.951  0.00  0.00    +0.000 C 
ATOM     13  C   UNL     1       2.483  14.206  20.072  0.00  0.00    +0.000 C 
ATOM     14  C   UNL     1      -0.871  12.532  19.636  0.00  0.00    +0.000 A 
ATOM     15  C   UNL     1      -0.664  12.365  18.250  0.00  0.00    +0.000 A 
ATOM     16  C   UNL     1      -1.661  11.830  17.443  0.00  0.00    +0.000 A 
ATOM     17  C   UNL     1      -2.869  11.458  18.015  0.00  0.00    +0.000 A 
ATOM     18  C   UNL     1      -3.092  11.650  19.385  0.00  0.00    +0.000 A 
ATOM     19  C   UNL     1      -2.104  12.196  20.222  0.00  0.00    +0.000 A 
ENDROOT
BRANCH   4  20
ATOM     20  N   UNL     1      -0.152  10.241  21.251  0.00  0.00    +0.000 N 
ATOM     21  C   UNL     1       0.878   9.335  21.200  0.00  0.00    +0.000 C 
ATOM     22  O   UNL     1       1.828   9.369  21.971  0.00  0.00    +0.000 OA
ATOM     23  N   UNL     1       0.680   8.383  20.222  0.00  0.00    +0.000 N 
ATOM     24  H   UNL     1      -0.744  10.356  20.449  0.00  0.00    +0.000 HD
ATOM     25  H   UNL     1       0.228   8.723  19.386  0.00  0.00    +0.000 HD
BRANCH  23  26
ATOM     26  C   UNL     1       1.529   7.267  20.066  0.00  0.00    +0.000 A 
ATOM     27  C   UNL     1       1.417   6.213  20.973  0.00  0.00    +0.000 A 
ATOM     28  C   UNL     1       2.236   5.090  20.845  0.00  0.00    +0.000 A 
ATOM     29  C   UNL     1       3.225   5.052  19.864  0.00  0.00    +0.000 A 
ATOM     30  C   UNL     1       3.391   6.131  18.987  0.00  0.00    +0.000 A 
ATOM     31  C   UNL     1       4.518   6.140  17.993  0.00  0.00    +0.000 C 
ATOM     32  C   UNL     1       2.508   7.219  19.068  0.00  0.00    +0.000 A 
ENDBRANCH  23  26
ENDBRANCH   4  20
BRANCH   1  33
ATOM     33  C   UNL     1      -3.663  12.837  22.076  0.00  0.00    +0.000 C 
BRANCH  33  35
ATOM     34  C   UNL     1      -2.900  15.295  22.020  0.00  0.00    +0.000 C 
ATOM     35  C   UNL     1      -3.970  14.280  21.644  0.00  0.00    +0.000 C 
ENDBRANCH  33  35
ENDBRANCH   1  33
TORSDOF 4
ENDMDL
MODEL 9
REMARK VINA RESULT:      -6.2      1.848      8.020
REMARK  Name = 
REMARK  7 active torsions:
REMARK  status: ('A' for Active; 'I' for Inactive)
REMARK    1  A    between atoms: C_1  and  C_2
REMARK    2  A    between atoms: C_2  and  C_3
REMARK    3  A    between atoms: C_3  and  N_4
REMARK    4  A    between atoms: C_7  and  N_8
REMARK    5  A    between atoms: N_11  and  C_12
REMARK    6  A    between atoms: C_16  and  C_17
REMARK    7  A    between atoms: N_24  and  C_25
REMARK                            x       y       z     vdW  Elec       q    Type
REMARK                         _______ _______ _______ _____ _____    ______ ____
ROOT
ATOM      1  N   UNL     1      -1.978  12.116  21.446  0.00  0.00    +0.000 N 
ATOM      2  C   UNL     1      -0.804  12.065  22.220  0.00  0.00    +0.000 C 
ATOM      3  O   UNL     1      -0.801  12.345  23.420  0.00  0.00    +0.000 OA
ATOM      4  C   UNL     1       0.528  11.724  21.480  0.00  0.00    +0.000 C 
ATOM      5  N   UNL     1       0.966  12.940  20.779  0.00  0.00    +0.000 NA
ATOM      6  C   UNL     1       0.225  13.436  19.841  0.00  0.00    +0.000 C 
ATOM      7  N   UNL     1       0.565  14.638  19.225  0.00  0.00    +0.000 N 
ATOM      8  C   UNL     1      -0.384  15.769  19.320  0.00  0.00    +0.000 C 
ATOM      9  C   UNL     1      -0.134  16.779  18.180  0.00  0.00    +0.000 C 
ATOM     10  N   UNL     1       1.262  17.269  18.165  0.00  0.00    +0.000 NA
ATOM     11  C   UNL     1       1.477  18.198  17.060  0.00  0.00    +0.000 C 
ATOM     12  C   UNL     1       2.182  16.111  18.079  0.00  0.00    +0.000 C 
ATOM     13  C   UNL     1       1.963  15.102  19.232  0.00  0.00    +0.000 C 
ATOM     14  C   UNL     1      -0.955  12.709  19.261  0.00  0.00    +0.000 A 
ATOM     15  C   UNL     1      -0.971  12.634  17.851  0.00  0.00    +0.000 A 
ATOM     16  C   UNL     1      -1.953  11.905  17.191  0.00  0.00    +0.000 A 
ATOM     17  C   UNL     1      -2.923  11.247  17.933  0.00  0.00    +0.000 A 
ATOM     18  C   UNL     1      -2.931  11.343  19.332  0.00  0.00    +0.000 A 
ATOM     19  C   UNL     1      -1.954  12.080  20.023  0.00  0.00    +0.000 A 
ENDROOT
BRANCH   4  20
ATOM     20  N   UNL     1       0.538  10.602  20.567  0.00  0.00    +0.000 N 
ATOM     21  C   UNL     1       1.271   9.481  20.865  0.00  0.00    +0.000 C 
ATOM     22  O   UNL     1       1.809   9.310  21.951  0.00  0.00    +0.000 OA
ATOM     23  N   UNL     1       1.281   8.579  19.821  0.00  0.00    +0.000 N 
ATOM     24  H   UNL     1       0.365  10.834  19.606  0.00  0.00    +0.000 HD
ATOM     25  H   UNL     1       1.295   8.996  18.902  0.00  0.00    +0.000 HD
BRANCH  23  26
ATOM     26  C   UNL     1       1.850   7.293  19.934  0.00  0.00    +0.000 A 
ATOM     27  C   UNL     1       1.238   6.366  20.779  0.00  0.00    +0.000 A 
ATOM     28  C   UNL     1       1.769   5.082  20.911  0.00  0.00    +0.000 A 
ATOM     29  C   UNL     1       2.958   4.746  20.265  0.00  0.00    +0.000 A 
ATOM     30  C   UNL     1       3.617   5.687  19.466  0.00  0.00    +0.000 A 
ATOM     31  C   UNL     1       4.949   5.365  18.849  0.00  0.00    +0.000 C 
ATOM     32  C   UNL     1       3.032   6.948  19.271  0.00  0.00    +0.000 A 
ENDBRANCH  23  26
ENDBRANCH   4  20
BRANCH   1  33
ATOM     33  C   UNL     1      -3.252  12.290  22.156  0.00  0.00    +0.000 C 
BRANCH  33  35
ATOM     34  C   UNL     1      -5.462  13.354  21.373  0.00  0.00    +0.000 C 
ATOM     35  C   UNL     1      -4.012  13.573  21.781  0.00  0.00    +0.000 C 
ENDBRANCH  33  35
ENDBRANCH   1  33
TORSDOF 4
ENDMDL
