MODEL 1
REMARK VINA RESULT:      -7.0      0.000      0.000
REMARK  Name = 
REMARK  9 active torsions:
REMARK  status: ('A' for Active; 'I' for Inactive)
REMARK    1  A    between atoms: C_1  and  C_2
REMARK    2  A    between atoms: C_8  and  C_9
REMARK    3  A    between atoms: C_16  and  C_17
REMARK    4  A    between atoms: N_19  and  S_20
REMARK    5  A    between atoms: S_20  and  C_23
REMARK    6  A    between atoms: C_23  and  C_24
REMARK    7  A    between atoms: C_23  and  C_25
REMARK    8  A    between atoms: N_26  and  C_27
REMARK    9  A    between atoms: C_27  and  C_28
REMARK                            x       y       z     vdW  Elec       q    Type
REMARK                         _______ _______ _______ _____ _____    ______ ____
ROOT
ATOM      1  C   UNL     1      -4.005  10.548  15.180  0.00  0.00    +0.000 C 
ATOM      2  C   UNL     1      -3.297  10.821  16.475  0.00  0.00    +0.000 A 
ATOM      3  C   UNL     1      -1.981  10.403  16.680  0.00  0.00    +0.000 A 
ATOM      4  C   UNL     1      -1.306  10.680  17.875  0.00  0.00    +0.000 A 
ATOM      5  C   UNL     1      -1.988  11.390  18.878  0.00  0.00    +0.000 A 
ATOM      6  C   UNL     1      -3.318  11.772  18.724  0.00  0.00    +0.000 A 
ATOM      7  C   UNL     1      -3.976  11.487  17.506  0.00  0.00    +0.000 A 
ATOM      8  C   UNL     1      -3.726  12.379  19.947  0.00  0.00    +0.000 A 
ATOM      9  C   UNL     1      -2.637  12.429  20.813  0.00  0.00    +0.000 A 
ATOM     10  N   UNL     1      -1.574  11.851  20.116  0.00  0.00    +0.000 N 
ENDROOT
BRANCH   8  11
ATOM     11  C   UNL     1      -5.068  12.793  20.222  0.00  0.00    +0.000 A 
ATOM     12  C   UNL     1      -6.093  11.927  20.331  0.00  0.00    +0.000 A 
ATOM     13  C   UNL     1      -7.446  12.379  20.553  0.00  0.00    +0.000 A 
ATOM     14  C   UNL     1      -7.711  13.686  20.635  0.00  0.00    +0.000 A 
ATOM     15  N   UNL     1      -6.695  14.601  20.530  0.00  0.00    +0.000 N 
ATOM     16  C   UNL     1      -5.371  14.263  20.367  0.00  0.00    +0.000 A 
ATOM     17  O   UNL     1      -4.481  15.108  20.411  0.00  0.00    +0.000 OA
ATOM     18  H   UNL     1      -6.890  15.590  20.636  0.00  0.00    +0.000 HD
ENDBRANCH   8  11
BRANCH   9  19
ATOM     19  C   UNL     1      -2.531  12.904  22.183  0.00  0.00    +0.000 C 
ATOM     20  O   UNL     1      -2.673  12.184  23.159  0.00  0.00    +0.000 OA
ATOM     21  N   UNL     1      -2.189  14.249  22.313  0.00  0.00    +0.000 N 
ATOM     22  H   UNL     1      -1.743  14.751  21.552  0.00  0.00    +0.000 HD
BRANCH  21  23
ATOM     23  S   UNL     1      -2.225  15.073  23.750  0.00  0.00    +0.000 S 
ATOM     24  O   UNL     1      -3.546  14.841  24.296  0.00  0.00    +0.000 OA
ATOM     25  O   UNL     1      -1.048  14.718  24.513  0.00  0.00    +0.000 OA
BRANCH  23  26
ATOM     26  C   UNL     1      -2.118  16.800  23.222  0.00  0.00    +0.000 C 
ATOM     27  C   UNL     1      -1.468  17.659  24.302  0.00  0.00    +0.000 C 
ATOM     28  C   UNL     1      -1.355  16.905  21.906  0.00  0.00    +0.000 C 
ENDBRANCH  23  26
ENDBRANCH  21  23
ENDBRANCH   9  19
BRANCH  10  29
ATOM     29  C   UNL     1      -0.171  11.854  20.554  0.00  0.00    +0.000 C 
BRANCH  29  30
ATOM     30  C   UNL     1       0.472  10.498  20.686  0.00  0.00    +0.000 A 
ATOM     31  C   UNL     1       1.155   9.837  19.656  0.00  0.00    +0.000 A 
ATOM     32  C   UNL     1       1.607   8.531  19.844  0.00  0.00    +0.000 A 
ATOM     33  F   UNL     1       2.220   7.899  18.835  0.00  0.00    +0.000 F 
ATOM     34  C   UNL     1       1.423   7.868  21.052  0.00  0.00    +0.000 A 
ATOM     35  C   UNL     1       0.793   8.529  22.102  0.00  0.00    +0.000 A 
ATOM     36  C   UNL     1       0.330   9.830  21.912  0.00  0.00    +0.000 A 
ATOM     37  F   UNL     1      -0.285  10.447  22.931  0.00  0.00    +0.000 F 
ENDBRANCH  29  30
ENDBRANCH  10  29
TORSDOF 6
ENDMDL
MODEL 2
REMARK VINA RESULT:      -7.0      1.958      2.905
REMARK  Name = 
REMARK  9 active torsions:
REMARK  status: ('A' for Active; 'I' for Inactive)
REMARK    1  A    between atoms: C_1  and  C_2
REMARK    2  A    between atoms: C_8  and  C_9
REMARK    3  A    between atoms: C_16  and  C_17
REMARK    4  A    between atoms: N_19  and  S_20
REMARK    5  A    between atoms: S_20  and  C_23
REMARK    6  A    between atoms: C_23  and  C_24
REMARK    7  A    between atoms: C_23  and  C_25
REMARK    8  A    between atoms: N_26  and  C_27
REMARK    9  A    between atoms: C_27  and  C_28
REMARK                            x       y       z     vdW  Elec       q    Type
REMARK                         _______ _______ _______ _____ _____    ______ ____
ROOT
ATOM      1  C   UNL     1      -4.010  10.527  15.494  0.00  0.00    +0.000 C 
ATOM      2  C   UNL     1      -3.253  10.833  16.755  0.00  0.00    +0.000 A 
ATOM      3  C   UNL     1      -1.941  10.392  16.933  0.00  0.00    +0.000 A 
ATOM      4  C   UNL     1      -1.220  10.700  18.094  0.00  0.00    +0.000 A 
ATOM      5  C   UNL     1      -1.854  11.463  19.090  0.00  0.00    +0.000 A 
ATOM      6  C   UNL     1      -3.179  11.869  18.964  0.00  0.00    +0.000 A 
ATOM      7  C   UNL     1      -3.883  11.553  17.780  0.00  0.00    +0.000 A 
ATOM      8  C   UNL     1      -3.533  12.532  20.174  0.00  0.00    +0.000 A 
ATOM      9  C   UNL     1      -2.416  12.590  21.003  0.00  0.00    +0.000 A 
ATOM     10  N   UNL     1      -1.389  11.961  20.295  0.00  0.00    +0.000 N 
ENDROOT
BRANCH   8  11
ATOM     11  C   UNL     1      -4.856  12.987  20.476  0.00  0.00    +0.000 A 
ATOM     12  C   UNL     1      -5.891  12.149  20.674  0.00  0.00    +0.000 A 
ATOM     13  C   UNL     1      -7.226  12.640  20.922  0.00  0.00    +0.000 A 
ATOM     14  C   UNL     1      -7.465  13.954  20.937  0.00  0.00    +0.000 A 
ATOM     15  N   UNL     1      -6.438  14.842  20.741  0.00  0.00    +0.000 N 
ATOM     16  C   UNL     1      -5.127  14.469  20.547  0.00  0.00    +0.000 A 
ATOM     17  O   UNL     1      -4.221  15.297  20.508  0.00  0.00    +0.000 OA
ATOM     18  H   UNL     1      -6.611  15.839  20.797  0.00  0.00    +0.000 HD
ENDBRANCH   8  11
BRANCH   9  19
ATOM     19  C   UNL     1      -2.253  13.114  22.349  0.00  0.00    +0.000 C 
ATOM     20  O   UNL     1      -2.323  12.424  23.354  0.00  0.00    +0.000 OA
ATOM     21  N   UNL     1      -1.948  14.472  22.417  0.00  0.00    +0.000 N 
ATOM     22  H   UNL     1      -1.557  14.961  21.618  0.00  0.00    +0.000 HD
BRANCH  21  23
ATOM     23  S   UNL     1      -1.935  15.343  23.826  0.00  0.00    +0.000 S 
ATOM     24  O   UNL     1      -3.307  15.351  24.289  0.00  0.00    +0.000 OA
ATOM     25  O   UNL     1      -0.882  14.830  24.675  0.00  0.00    +0.000 OA
BRANCH  23  26
ATOM     26  C   UNL     1      -1.512  17.009  23.262  0.00  0.00    +0.000 C 
ATOM     27  C   UNL     1      -2.665  17.626  22.477  0.00  0.00    +0.000 C 
ATOM     28  C   UNL     1      -1.125  17.888  24.447  0.00  0.00    +0.000 C 
ENDBRANCH  23  26
ENDBRANCH  21  23
ENDBRANCH   9  19
BRANCH  10  29
ATOM     29  C   UNL     1       0.028  11.948  20.687  0.00  0.00    +0.000 C 
BRANCH  29  30
ATOM     30  C   UNL     1       0.912  12.930  19.962  0.00  0.00    +0.000 A 
ATOM     31  C   UNL     1       0.869  14.320  20.137  0.00  0.00    +0.000 A 
ATOM     32  C   UNL     1       1.643  15.149  19.327  0.00  0.00    +0.000 A 
ATOM     33  F   UNL     1       1.558  16.478  19.478  0.00  0.00    +0.000 F 
ATOM     34  C   UNL     1       2.492  14.627  18.357  0.00  0.00    +0.000 A 
ATOM     35  C   UNL     1       2.585  13.247  18.207  0.00  0.00    +0.000 A 
ATOM     36  C   UNL     1       1.803  12.417  19.008  0.00  0.00    +0.000 A 
ATOM     37  F   UNL     1       1.897  11.089  18.840  0.00  0.00    +0.000 F 
ENDBRANCH  29  30
ENDBRANCH  10  29
TORSDOF 6
ENDMDL
MODEL 3
REMARK VINA RESULT:      -7.0      2.758      5.564
REMARK  Name = 
REMARK  9 active torsions:
REMARK  status: ('A' for Active; 'I' for Inactive)
REMARK    1  A    between atoms: C_1  and  C_2
REMARK    2  A    between atoms: C_8  and  C_9
REMARK    3  A    between atoms: C_16  and  C_17
REMARK    4  A    between atoms: N_19  and  S_20
REMARK    5  A    between atoms: S_20  and  C_23
REMARK    6  A    between atoms: C_23  and  C_24
REMARK    7  A    between atoms: C_23  and  C_25
REMARK    8  A    between atoms: N_26  and  C_27
REMARK    9  A    between atoms: C_27  and  C_28
REMARK                            x       y       z     vdW  Elec       q    Type
REMARK                         _______ _______ _______ _____ _____    ______ ____
ROOT
ATOM      1  C   UNL     1       2.071   7.761  20.152  0.00  0.00    +0.000 C 
ATOM      2  C   UNL     1       1.114   8.744  20.760  0.00  0.00    +0.000 A 
ATOM      3  C   UNL     1       1.103   8.985  22.134  0.00  0.00    +0.000 A 
ATOM      4  C   UNL     1       0.233   9.923  22.704  0.00  0.00    +0.000 A 
ATOM      5  C   UNL     1      -0.645  10.619  21.855  0.00  0.00    +0.000 A 
ATOM      6  C   UNL     1      -0.695  10.361  20.488  0.00  0.00    +0.000 A 
ATOM      7  C   UNL     1       0.198   9.415  19.936  0.00  0.00    +0.000 A 
ATOM      8  C   UNL     1      -1.744  11.160  19.948  0.00  0.00    +0.000 A 
ATOM      9  C   UNL     1      -2.282  11.949  20.961  0.00  0.00    +0.000 A 
ATOM     10  N   UNL     1      -1.562  11.624  22.112  0.00  0.00    +0.000 N 
ENDROOT
BRANCH   8  11
ATOM     11  C   UNL     1      -2.186  11.080  18.588  0.00  0.00    +0.000 A 
ATOM     12  C   UNL     1      -3.113  10.199  18.171  0.00  0.00    +0.000 A 
ATOM     13  C   UNL     1      -3.498  10.105  16.782  0.00  0.00    +0.000 A 
ATOM     14  C   UNL     1      -2.916  10.889  15.871  0.00  0.00    +0.000 A 
ATOM     15  N   UNL     1      -1.967  11.802  16.255  0.00  0.00    +0.000 N 
ATOM     16  C   UNL     1      -1.572  11.996  17.559  0.00  0.00    +0.000 A 
ATOM     17  O   UNL     1      -0.818  12.913  17.874  0.00  0.00    +0.000 OA
ATOM     18  H   UNL     1      -1.557  12.427  15.571  0.00  0.00    +0.000 HD
ENDBRANCH   8  11
BRANCH   9  19
ATOM     19  C   UNL     1      -3.387  12.892  20.949  0.00  0.00    +0.000 C 
ATOM     20  O   UNL     1      -3.266  14.068  20.642  0.00  0.00    +0.000 OA
ATOM     21  N   UNL     1      -4.630  12.344  21.259  0.00  0.00    +0.000 N 
ATOM     22  H   UNL     1      -4.798  11.346  21.175  0.00  0.00    +0.000 HD
BRANCH  21  23
ATOM     23  S   UNL     1      -5.993  13.247  21.527  0.00  0.00    +0.000 S 
ATOM     24  O   UNL     1      -5.894  14.375  20.624  0.00  0.00    +0.000 OA
ATOM     25  O   UNL     1      -7.143  12.371  21.477  0.00  0.00    +0.000 OA
BRANCH  23  26
ATOM     26  C   UNL     1      -5.749  13.844  23.217  0.00  0.00    +0.000 C 
ATOM     27  C   UNL     1      -5.895  15.360  23.285  0.00  0.00    +0.000 C 
ATOM     28  C   UNL     1      -6.726  13.158  24.167  0.00  0.00    +0.000 C 
ENDBRANCH  23  26
ENDBRANCH  21  23
ENDBRANCH   9  19
BRANCH  10  29
ATOM     29  C   UNL     1      -1.643  12.341  23.394  0.00  0.00    +0.000 C 
BRANCH  29  30
ATOM     30  C   UNL     1      -1.252  13.795  23.352  0.00  0.00    +0.000 A 
ATOM     31  C   UNL     1      -0.236  14.323  22.543  0.00  0.00    +0.000 A 
ATOM     32  C   UNL     1       0.132  15.662  22.669  0.00  0.00    +0.000 A 
ATOM     33  F   UNL     1       1.133  16.140  21.918  0.00  0.00    +0.000 F 
ATOM     34  C   UNL     1      -0.509  16.508  23.568  0.00  0.00    +0.000 A 
ATOM     35  C   UNL     1      -1.554  16.012  24.341  0.00  0.00    +0.000 A 
ATOM     36  C   UNL     1      -1.916  14.670  24.225  0.00  0.00    +0.000 A 
ATOM     37  F   UNL     1      -2.917  14.207  24.987  0.00  0.00    +0.000 F 
ENDBRANCH  29  30
ENDBRANCH  10  29
TORSDOF 6
ENDMDL
MODEL 4
REMARK VINA RESULT:      -6.9      2.247      3.323
REMARK  Name = 
REMARK  9 active torsions:
REMARK  status: ('A' for Active; 'I' for Inactive)
REMARK    1  A    between atoms: C_1  and  C_2
REMARK    2  A    between atoms: C_8  and  C_9
REMARK    3  A    between atoms: C_16  and  C_17
REMARK    4  A    between atoms: N_19  and  S_20
REMARK    5  A    between atoms: S_20  and  C_23
REMARK    6  A    between atoms: C_23  and  C_24
REMARK    7  A    between atoms: C_23  and  C_25
REMARK    8  A    between atoms: N_26  and  C_27
REMARK    9  A    between atoms: C_27  and  C_28
REMARK                            x       y       z     vdW  Elec       q    Type
REMARK                         _______ _______ _______ _____ _____    ______ ____
ROOT
ATOM      1  C   UNL     1      -6.726  11.317  18.031  0.00  0.00    +0.000 C 
ATOM      2  C   UNL     1      -5.268  11.403  18.375  0.00  0.00    +0.000 A 
ATOM      3  C   UNL     1      -4.334  10.559  17.773  0.00  0.00    +0.000 A 
ATOM      4  C   UNL     1      -2.968  10.654  18.067  0.00  0.00    +0.000 A 
ATOM      5  C   UNL     1      -2.552  11.623  18.995  0.00  0.00    +0.000 A 
ATOM      6  C   UNL     1      -3.466  12.442  19.653  0.00  0.00    +0.000 A 
ATOM      7  C   UNL     1      -4.838  12.332  19.334  0.00  0.00    +0.000 A 
ATOM      8  C   UNL     1      -2.729  13.232  20.582  0.00  0.00    +0.000 A 
ATOM      9  C   UNL     1      -1.373  12.948  20.446  0.00  0.00    +0.000 A 
ATOM     10  N   UNL     1      -1.291  11.986  19.437  0.00  0.00    +0.000 N 
ENDROOT
BRANCH   8  11
ATOM     11  C   UNL     1      -3.336  14.113  21.534  0.00  0.00    +0.000 A 
ATOM     12  C   UNL     1      -3.398  15.447  21.361  0.00  0.00    +0.000 A 
ATOM     13  C   UNL     1      -3.965  16.315  22.365  0.00  0.00    +0.000 A 
ATOM     14  C   UNL     1      -4.426  15.804  23.510  0.00  0.00    +0.000 A 
ATOM     15  N   UNL     1      -4.383  14.450  23.725  0.00  0.00    +0.000 N 
ATOM     16  C   UNL     1      -3.906  13.542  22.808  0.00  0.00    +0.000 A 
ATOM     17  O   UNL     1      -4.008  12.332  22.988  0.00  0.00    +0.000 OA
ATOM     18  H   UNL     1      -4.773  14.059  24.574  0.00  0.00    +0.000 HD
ENDBRANCH   8  11
BRANCH   9  19
ATOM     19  C   UNL     1      -0.218  13.441  21.176  0.00  0.00    +0.000 C 
ATOM     20  O   UNL     1       0.232  12.897  22.173  0.00  0.00    +0.000 OA
ATOM     21  N   UNL     1       0.393  14.564  20.621  0.00  0.00    +0.000 N 
ATOM     22  H   UNL     1       0.252  14.807  19.645  0.00  0.00    +0.000 HD
BRANCH  21  23
ATOM     23  S   UNL     1       1.578  15.438  21.380  0.00  0.00    +0.000 S 
ATOM     24  O   UNL     1       2.427  14.458  22.026  0.00  0.00    +0.000 OA
ATOM     25  O   UNL     1       2.137  16.376  20.432  0.00  0.00    +0.000 OA
BRANCH  23  26
ATOM     26  C   UNL     1       0.658  16.330  22.658  0.00  0.00    +0.000 C 
ATOM     27  C   UNL     1       1.609  17.005  23.640  0.00  0.00    +0.000 C 
ATOM     28  C   UNL     1      -0.283  17.347  22.021  0.00  0.00    +0.000 C 
ENDBRANCH  23  26
ENDBRANCH  21  23
ENDBRANCH   9  19
BRANCH  10  29
ATOM     29  C   UNL     1      -0.045  11.518  18.811  0.00  0.00    +0.000 C 
BRANCH  29  30
ATOM     30  C   UNL     1       0.494  10.211  19.333  0.00  0.00    +0.000 A 
ATOM     31  C   UNL     1       0.253   9.706  20.618  0.00  0.00    +0.000 A 
ATOM     32  C   UNL     1       0.898   8.547  21.045  0.00  0.00    +0.000 A 
ATOM     33  F   UNL     1       0.689   8.102  22.291  0.00  0.00    +0.000 F 
ATOM     34  C   UNL     1       1.766   7.851  20.210  0.00  0.00    +0.000 A 
ATOM     35  C   UNL     1       1.975   8.310  18.913  0.00  0.00    +0.000 A 
ATOM     36  C   UNL     1       1.339   9.476  18.488  0.00  0.00    +0.000 A 
ATOM     37  F   UNL     1       1.563   9.910  17.239  0.00  0.00    +0.000 F 
ENDBRANCH  29  30
ENDBRANCH  10  29
TORSDOF 6
ENDMDL
MODEL 5
REMARK VINA RESULT:      -6.8      2.761      5.447
REMARK  Name = 
REMARK  9 active torsions:
REMARK  status: ('A' for Active; 'I' for Inactive)
REMARK    1  A    between atoms: C_1  and  C_2
REMARK    2  A    between atoms: C_8  and  C_9
REMARK    3  A    between atoms: C_16  and  C_17
REMARK    4  A    between atoms: N_19  and  S_20
REMARK    5  A    between atoms: S_20  and  C_23
REMARK    6  A    between atoms: C_23  and  C_24
REMARK    7  A    between atoms: C_23  and  C_25
REMARK    8  A    between atoms: N_26  and  C_27
REMARK    9  A    between atoms: C_27  and  C_28
REMARK                            x       y       z     vdW  Elec       q    Type
REMARK                         _______ _______ _______ _____ _____    ______ ____
ROOT
ATOM      1  C   UNL     1       4.004  14.988  18.562  0.00  0.00    +0.000 C 
ATOM      2  C   UNL     1       2.694  14.293  18.794  0.00  0.00    +0.000 A 
ATOM      3  C   UNL     1       2.394  13.088  18.158  0.00  0.00    +0.000 A 
ATOM      4  C   UNL     1       1.186  12.419  18.392  0.00  0.00    +0.000 A 
ATOM      5  C   UNL     1       0.268  12.996  19.286  0.00  0.00    +0.000 A 
ATOM      6  C   UNL     1       0.515  14.224  19.894  0.00  0.00    +0.000 A 
ATOM      7  C   UNL     1       1.745  14.875  19.647  0.00  0.00    +0.000 A 
ATOM      8  C   UNL     1      -0.643  14.558  20.653  0.00  0.00    +0.000 A 
ATOM      9  C   UNL     1      -1.560  13.514  20.566  0.00  0.00    +0.000 A 
ATOM     10  N   UNL     1      -0.958  12.552  19.753  0.00  0.00    +0.000 N 
ENDROOT
BRANCH   8  11
ATOM     11  C   UNL     1      -0.821  15.810  21.326  0.00  0.00    +0.000 A 
ATOM     12  C   UNL     1      -1.471  16.851  20.773  0.00  0.00    +0.000 A 
ATOM     13  C   UNL     1      -1.585  18.119  21.455  0.00  0.00    +0.000 A 
ATOM     14  C   UNL     1      -1.021  18.290  22.653  0.00  0.00    +0.000 A 
ATOM     15  N   UNL     1      -0.351  17.253  23.251  0.00  0.00    +0.000 N 
ATOM     16  C   UNL     1      -0.232  15.996  22.701  0.00  0.00    +0.000 A 
ATOM     17  O   UNL     1       0.261  15.063  23.329  0.00  0.00    +0.000 OA
ATOM     18  H   UNL     1       0.038  17.369  24.179  0.00  0.00    +0.000 HD
ENDBRANCH   8  11
BRANCH   9  19
ATOM     19  C   UNL     1      -2.900  13.374  21.111  0.00  0.00    +0.000 C 
ATOM     20  O   UNL     1      -3.915  13.603  20.472  0.00  0.00    +0.000 OA
ATOM     21  N   UNL     1      -2.954  12.895  22.419  0.00  0.00    +0.000 N 
ATOM     22  H   UNL     1      -2.172  12.390  22.824  0.00  0.00    +0.000 HD
BRANCH  21  23
ATOM     23  S   UNL     1      -4.337  12.861  23.330  0.00  0.00    +0.000 S 
ATOM     24  O   UNL     1      -5.422  12.716  22.381  0.00  0.00    +0.000 OA
ATOM     25  O   UNL     1      -4.164  11.896  24.394  0.00  0.00    +0.000 OA
BRANCH  23  26
ATOM     26  C   UNL     1      -4.401  14.532  24.020  0.00  0.00    +0.000 C 
ATOM     27  C   UNL     1      -3.070  14.906  24.662  0.00  0.00    +0.000 C 
ATOM     28  C   UNL     1      -4.789  15.537  22.941  0.00  0.00    +0.000 C 
ENDBRANCH  23  26
ENDBRANCH  21  23
ENDBRANCH   9  19
BRANCH  10  29
ATOM     29  C   UNL     1      -1.467  11.190  19.530  0.00  0.00    +0.000 C 
BRANCH  29  30
ATOM     30  C   UNL     1      -2.237  10.985  18.251  0.00  0.00    +0.000 A 
ATOM     31  C   UNL     1      -3.491  11.549  17.978  0.00  0.00    +0.000 A 
ATOM     32  C   UNL     1      -4.176  11.198  16.815  0.00  0.00    +0.000 A 
ATOM     33  F   UNL     1      -5.391  11.714  16.590  0.00  0.00    +0.000 F 
ATOM     34  C   UNL     1      -3.629  10.313  15.892  0.00  0.00    +0.000 A 
ATOM     35  C   UNL     1      -2.363   9.785  16.124  0.00  0.00    +0.000 A 
ATOM     36  C   UNL     1      -1.682  10.126  17.291  0.00  0.00    +0.000 A 
ATOM     37  F   UNL     1      -0.468   9.597  17.503  0.00  0.00    +0.000 F 
ENDBRANCH  29  30
ENDBRANCH  10  29
TORSDOF 6
ENDMDL
MODEL 6
REMARK VINA RESULT:      -6.8      1.913      2.485
REMARK  Name = 
REMARK  9 active torsions:
REMARK  status: ('A' for Active; 'I' for Inactive)
REMARK    1  A    between atoms: C_1  and  C_2
REMARK    2  A    between atoms: C_8  and  C_9
REMARK    3  A    between atoms: C_16  and  C_17
REMARK    4  A    between atoms: N_19  and  S_20
REMARK    5  A    between atoms: S_20  and  C_23
REMARK    6  A    between atoms: C_23  and  C_24
REMARK    7  A    between atoms: C_23  and  C_25
REMARK    8  A    between atoms: N_26  and  C_27
REMARK    9  A    between atoms: C_27  and  C_28
REMARK                            x       y       z     vdW  Elec       q    Type
REMARK                         _______ _______ _______ _____ _____    ______ ____
ROOT
ATOM      1  C   UNL     1      -5.899  11.161  17.649  0.00  0.00    +0.000 C 
ATOM      2  C   UNL     1      -4.610  11.486  18.346  0.00  0.00    +0.000 A 
ATOM      3  C   UNL     1      -3.401  10.929  17.924  0.00  0.00    +0.000 A 
ATOM      4  C   UNL     1      -2.191  11.251  18.551  0.00  0.00    +0.000 A 
ATOM      5  C   UNL     1      -2.218  12.150  19.631  0.00  0.00    +0.000 A 
ATOM      6  C   UNL     1      -3.414  12.678  20.110  0.00  0.00    +0.000 A 
ATOM      7  C   UNL     1      -4.621  12.344  19.456  0.00  0.00    +0.000 A 
ATOM      8  C   UNL     1      -3.098  13.465  21.254  0.00  0.00    +0.000 A 
ATOM      9  C   UNL     1      -1.717  13.474  21.432  0.00  0.00    +0.000 A 
ATOM     10  N   UNL     1      -1.200  12.690  20.398  0.00  0.00    +0.000 N 
ENDROOT
BRANCH   8  11
ATOM     11  C   UNL     1      -4.081  14.075  22.098  0.00  0.00    +0.000 A 
ATOM     12  C   UNL     1      -4.622  15.280  21.839  0.00  0.00    +0.000 A 
ATOM     13  C   UNL     1      -5.570  15.894  22.739  0.00  0.00    +0.000 A 
ATOM     14  C   UNL     1      -5.915  15.276  23.872  0.00  0.00    +0.000 A 
ATOM     15  N   UNL     1      -5.387  14.046  24.173  0.00  0.00    +0.000 N 
ATOM     16  C   UNL     1      -4.516  13.363  23.354  0.00  0.00    +0.000 A 
ATOM     17  O   UNL     1      -4.173  12.210  23.600  0.00  0.00    +0.000 OA
ATOM     18  H   UNL     1      -5.682  13.559  25.010  0.00  0.00    +0.000 HD
ENDBRANCH   8  11
BRANCH   9  19
ATOM     19  C   UNL     1      -0.892  14.082  22.462  0.00  0.00    +0.000 C 
ATOM     20  O   UNL     1      -0.418  13.460  23.400  0.00  0.00    +0.000 OA
ATOM     21  N   UNL     1      -0.622  15.436  22.275  0.00  0.00    +0.000 N 
ATOM     22  H   UNL     1      -0.711  15.866  21.359  0.00  0.00    +0.000 HD
BRANCH  21  23
ATOM     23  S   UNL     1       0.100  16.397  23.415  0.00  0.00    +0.000 S 
ATOM     24  O   UNL     1      -0.669  16.205  24.627  0.00  0.00    +0.000 OA
ATOM     25  O   UNL     1       1.523  16.134  23.404  0.00  0.00    +0.000 OA
BRANCH  23  26
ATOM     26  C   UNL     1      -0.220  18.065  22.792  0.00  0.00    +0.000 C 
ATOM     27  C   UNL     1       0.435  18.273  21.431  0.00  0.00    +0.000 C 
ATOM     28  C   UNL     1      -1.722  18.325  22.721  0.00  0.00    +0.000 C 
ENDBRANCH  23  26
ENDBRANCH  21  23
ENDBRANCH   9  19
BRANCH  10  29
ATOM     29  C   UNL     1       0.226  12.564  20.060  0.00  0.00    +0.000 C 
BRANCH  29  30
ATOM     30  C   UNL     1       0.734  11.155  19.901  0.00  0.00    +0.000 A 
ATOM     31  C   UNL     1       1.223  10.615  18.703  0.00  0.00    +0.000 A 
ATOM     32  C   UNL     1       1.554   9.263  18.631  0.00  0.00    +0.000 A 
ATOM     33  F   UNL     1       1.980   8.755  17.467  0.00  0.00    +0.000 F 
ATOM     34  C   UNL     1       1.439   8.428  19.737  0.00  0.00    +0.000 A 
ATOM     35  C   UNL     1       1.004   8.960  20.947  0.00  0.00    +0.000 A 
ATOM     36  C   UNL     1       0.661  10.310  21.018  0.00  0.00    +0.000 A 
ATOM     37  F   UNL     1       0.232  10.802  22.190  0.00  0.00    +0.000 F 
ENDBRANCH  29  30
ENDBRANCH  10  29
TORSDOF 6
ENDMDL
MODEL 7
REMARK VINA RESULT:      -6.8      2.840      5.527
REMARK  Name = 
REMARK  9 active torsions:
REMARK  status: ('A' for Active; 'I' for Inactive)
REMARK    1  A    between atoms: C_1  and  C_2
REMARK    2  A    between atoms: C_8  and  C_9
REMARK    3  A    between atoms: C_16  and  C_17
REMARK    4  A    between atoms: N_19  and  S_20
REMARK    5  A    between atoms: S_20  and  C_23
REMARK    6  A    between atoms: C_23  and  C_24
REMARK    7  A    between atoms: C_23  and  C_25
REMARK    8  A    between atoms: N_26  and  C_27
REMARK    9  A    between atoms: C_27  and  C_28
REMARK                            x       y       z     vdW  Elec       q    Type
REMARK                         _______ _______ _______ _____ _____    ______ ____
ROOT
ATOM      1  C   UNL     1       3.792  15.231  18.825  0.00  0.00    +0.000 C 
ATOM      2  C   UNL     1       2.522  14.453  19.015  0.00  0.00    +0.000 A 
ATOM      3  C   UNL     1       2.254  13.313  18.257  0.00  0.00    +0.000 A 
ATOM      4  C   UNL     1       1.084  12.566  18.450  0.00  0.00    +0.000 A 
ATOM      5  C   UNL     1       0.173  12.996  19.429  0.00  0.00    +0.000 A 
ATOM      6  C   UNL     1       0.387  14.160  20.162  0.00  0.00    +0.000 A 
ATOM      7  C   UNL     1       1.577  14.892  19.955  0.00  0.00    +0.000 A 
ATOM      8  C   UNL     1      -0.759  14.354  20.987  0.00  0.00    +0.000 A 
ATOM      9  C   UNL     1      -1.632  13.284  20.810  0.00  0.00    +0.000 A 
ATOM     10  N   UNL     1      -1.016  12.447  19.877  0.00  0.00    +0.000 N 
ENDROOT
BRANCH   8  11
ATOM     11  C   UNL     1      -0.968  15.513  21.800  0.00  0.00    +0.000 A 
ATOM     12  C   UNL     1      -0.600  15.576  23.093  0.00  0.00    +0.000 A 
ATOM     13  C   UNL     1      -0.876  16.740  23.903  0.00  0.00    +0.000 A 
ATOM     14  C   UNL     1      -1.529  17.781  23.380  0.00  0.00    +0.000 A 
ATOM     15  N   UNL     1      -1.920  17.757  22.066  0.00  0.00    +0.000 N 
ATOM     16  C   UNL     1      -1.659  16.715  21.206  0.00  0.00    +0.000 A 
ATOM     17  O   UNL     1      -1.911  16.792  20.006  0.00  0.00    +0.000 OA
ATOM     18  H   UNL     1      -2.377  18.564  21.658  0.00  0.00    +0.000 HD
ENDBRANCH   8  11
BRANCH   9  19
ATOM     19  C   UNL     1      -2.945  13.021  21.375  0.00  0.00    +0.000 C 
ATOM     20  O   UNL     1      -3.131  12.295  22.338  0.00  0.00    +0.000 OA
ATOM     21  N   UNL     1      -3.993  13.714  20.770  0.00  0.00    +0.000 N 
ATOM     22  H   UNL     1      -3.820  14.551  20.223  0.00  0.00    +0.000 HD
BRANCH  21  23
ATOM     23  S   UNL     1      -5.593  13.418  21.083  0.00  0.00    +0.000 S 
ATOM     24  O   UNL     1      -6.315  13.956  19.948  0.00  0.00    +0.000 OA
ATOM     25  O   UNL     1      -5.741  12.026  21.449  0.00  0.00    +0.000 OA
BRANCH  23  26
ATOM     26  C   UNL     1      -5.919  14.469  22.519  0.00  0.00    +0.000 C 
ATOM     27  C   UNL     1      -5.989  13.638  23.795  0.00  0.00    +0.000 C 
ATOM     28  C   UNL     1      -4.856  15.557  22.632  0.00  0.00    +0.000 C 
ENDBRANCH  23  26
ENDBRANCH  21  23
ENDBRANCH   9  19
BRANCH  10  29
ATOM     29  C   UNL     1      -1.472  11.096  19.518  0.00  0.00    +0.000 C 
BRANCH  29  30
ATOM     30  C   UNL     1      -2.264  10.995  18.240  0.00  0.00    +0.000 A 
ATOM     31  C   UNL     1      -3.495  11.626  18.014  0.00  0.00    +0.000 A 
ATOM     32  C   UNL     1      -4.206  11.369  16.843  0.00  0.00    +0.000 A 
ATOM     33  F   UNL     1      -5.401  11.948  16.662  0.00  0.00    +0.000 F 
ATOM     34  C   UNL     1      -3.708  10.515  15.865  0.00  0.00    +0.000 A 
ATOM     35  C   UNL     1      -2.463   9.921  16.051  0.00  0.00    +0.000 A 
ATOM     36  C   UNL     1      -1.756  10.168  17.227  0.00  0.00    +0.000 A 
ATOM     37  F   UNL     1      -0.564   9.577  17.395  0.00  0.00    +0.000 F 
ENDBRANCH  29  30
ENDBRANCH  10  29
TORSDOF 6
ENDMDL
MODEL 8
REMARK VINA RESULT:      -6.7      1.964      2.836
REMARK  Name = 
REMARK  9 active torsions:
REMARK  status: ('A' for Active; 'I' for Inactive)
REMARK    1  A    between atoms: C_1  and  C_2
REMARK    2  A    between atoms: C_8  and  C_9
REMARK    3  A    between atoms: C_16  and  C_17
REMARK    4  A    between atoms: N_19  and  S_20
REMARK    5  A    between atoms: S_20  and  C_23
REMARK    6  A    between atoms: C_23  and  C_24
REMARK    7  A    between atoms: C_23  and  C_25
REMARK    8  A    between atoms: N_26  and  C_27
REMARK    9  A    between atoms: C_27  and  C_28
REMARK                            x       y       z     vdW  Elec       q    Type
REMARK                         _______ _______ _______ _____ _____    ______ ____
ROOT
ATOM      1  C   UNL     1      -6.735  11.755  17.652  0.00  0.00    +0.000 C 
ATOM      2  C   UNL     1      -5.467  11.961  18.429  0.00  0.00    +0.000 A 
ATOM      3  C   UNL     1      -4.311  11.239  18.128  0.00  0.00    +0.000 A 
ATOM      4  C   UNL     1      -3.117  11.448  18.830  0.00  0.00    +0.000 A 
ATOM      5  C   UNL     1      -3.107  12.405  19.859  0.00  0.00    +0.000 A 
ATOM      6  C   UNL     1      -4.258  13.100  20.219  0.00  0.00    +0.000 A 
ATOM      7  C   UNL     1      -5.449  12.878  19.491  0.00  0.00    +0.000 A 
ATOM      8  C   UNL     1      -3.927  13.909  21.344  0.00  0.00    +0.000 A 
ATOM      9  C   UNL     1      -2.572  13.761  21.626  0.00  0.00    +0.000 A 
ATOM     10  N   UNL     1      -2.085  12.862  20.674  0.00  0.00    +0.000 N 
ENDROOT
BRANCH   8  11
ATOM     11  C   UNL     1      -4.883  14.681  22.080  0.00  0.00    +0.000 A 
ATOM     12  C   UNL     1      -5.741  14.135  22.961  0.00  0.00    +0.000 A 
ATOM     13  C   UNL     1      -6.732  14.932  23.646  0.00  0.00    +0.000 A 
ATOM     14  C   UNL     1      -6.828  16.241  23.397  0.00  0.00    +0.000 A 
ATOM     15  N   UNL     1      -5.970  16.836  22.507  0.00  0.00    +0.000 N 
ATOM     16  C   UNL     1      -4.965  16.168  21.845  0.00  0.00    +0.000 A 
ATOM     17  O   UNL     1      -4.139  16.764  21.160  0.00  0.00    +0.000 OA
ATOM     18  H   UNL     1      -6.014  17.836  22.352  0.00  0.00    +0.000 HD
ENDBRANCH   8  11
BRANCH   9  19
ATOM     19  C   UNL     1      -1.751  14.323  22.686  0.00  0.00    +0.000 C 
ATOM     20  O   UNL     1      -1.332  13.673  23.631  0.00  0.00    +0.000 OA
ATOM     21  N   UNL     1      -1.418  15.666  22.519  0.00  0.00    +0.000 N 
ATOM     22  H   UNL     1      -1.461  16.107  21.606  0.00  0.00    +0.000 HD
BRANCH  21  23
ATOM     23  S   UNL     1      -0.688  16.585  23.689  0.00  0.00    +0.000 S 
ATOM     24  O   UNL     1       0.630  16.010  23.865  0.00  0.00    +0.000 OA
ATOM     25  O   UNL     1      -0.834  17.980  23.337  0.00  0.00    +0.000 OA
BRANCH  23  26
ATOM     26  C   UNL     1      -1.674  16.215  25.160  0.00  0.00    +0.000 C 
ATOM     27  C   UNL     1      -0.975  16.709  26.422  0.00  0.00    +0.000 C 
ATOM     28  C   UNL     1      -3.066  16.826  25.031  0.00  0.00    +0.000 C 
ENDBRANCH  23  26
ENDBRANCH  21  23
ENDBRANCH   9  19
BRANCH  10  29
ATOM     29  C   UNL     1      -0.667  12.545  20.453  0.00  0.00    +0.000 C 
BRANCH  29  30
ATOM     30  C   UNL     1      -0.213  11.203  20.966  0.00  0.00    +0.000 A 
ATOM     31  C   UNL     1      -0.324  10.779  22.297  0.00  0.00    +0.000 A 
ATOM     32  C   UNL     1       0.239   9.567  22.694  0.00  0.00    +0.000 A 
ATOM     33  F   UNL     1       0.160   9.198  23.979  0.00  0.00    +0.000 F 
ATOM     34  C   UNL     1       0.892   8.741  21.786  0.00  0.00    +0.000 A 
ATOM     35  C   UNL     1       0.966   9.123  20.450  0.00  0.00    +0.000 A 
ATOM     36  C   UNL     1       0.414  10.340  20.054  0.00  0.00    +0.000 A 
ATOM     37  F   UNL     1       0.506  10.697  18.765  0.00  0.00    +0.000 F 
ENDBRANCH  29  30
ENDBRANCH  10  29
TORSDOF 6
ENDMDL
MODEL 9
REMARK VINA RESULT:      -6.7      2.978      6.142
REMARK  Name = 
REMARK  9 active torsions:
REMARK  status: ('A' for Active; 'I' for Inactive)
REMARK    1  A    between atoms: C_1  and  C_2
REMARK    2  A    between atoms: C_8  and  C_9
REMARK    3  A    between atoms: C_16  and  C_17
REMARK    4  A    between atoms: N_19  and  S_20
REMARK    5  A    between atoms: S_20  and  C_23
REMARK    6  A    between atoms: C_23  and  C_24
REMARK    7  A    between atoms: C_23  and  C_25
REMARK    8  A    between atoms: N_26  and  C_27
REMARK    9  A    between atoms: C_27  and  C_28
REMARK                            x       y       z     vdW  Elec       q    Type
REMARK                         _______ _______ _______ _____ _____    ______ ____
ROOT
ATOM      1  C   UNL     1      -2.701  10.200  14.965  0.00  0.00    +0.000 C 
ATOM      2  C   UNL     1      -3.331  10.820  16.178  0.00  0.00    +0.000 A 
ATOM      3  C   UNL     1      -4.686  11.156  16.196  0.00  0.00    +0.000 A 
ATOM      4  C   UNL     1      -5.286  11.708  17.334  0.00  0.00    +0.000 A 
ATOM      5  C   UNL     1      -4.487  11.925  18.470  0.00  0.00    +0.000 A 
ATOM      6  C   UNL     1      -3.122  11.652  18.464  0.00  0.00    +0.000 A 
ATOM      7  C   UNL     1      -2.541  11.089  17.306  0.00  0.00    +0.000 A 
ATOM      8  C   UNL     1      -2.604  12.071  19.723  0.00  0.00    +0.000 A 
ATOM      9  C   UNL     1      -3.652  12.532  20.515  0.00  0.00    +0.000 A 
ATOM     10  N   UNL     1      -4.801  12.394  19.734  0.00  0.00    +0.000 N 
ENDROOT
BRANCH   8  11
ATOM     11  C   UNL     1      -1.210  12.065  20.053  0.00  0.00    +0.000 A 
ATOM     12  C   UNL     1      -0.580  10.984  20.547  0.00  0.00    +0.000 A 
ATOM     13  C   UNL     1       0.814  11.027  20.923  0.00  0.00    +0.000 A 
ATOM     14  C   UNL     1       1.506  12.163  20.804  0.00  0.00    +0.000 A 
ATOM     15  N   UNL     1       0.901  13.287  20.302  0.00  0.00    +0.000 N 
ATOM     16  C   UNL     1      -0.406  13.329  19.874  0.00  0.00    +0.000 A 
ATOM     17  O   UNL     1      -0.868  14.318  19.310  0.00  0.00    +0.000 OA
ATOM     18  H   UNL     1       1.437  14.136  20.171  0.00  0.00    +0.000 HD
ENDBRANCH   8  11
BRANCH   9  19
ATOM     19  C   UNL     1      -3.657  13.104  21.851  0.00  0.00    +0.000 C 
ATOM     20  O   UNL     1      -3.796  12.442  22.867  0.00  0.00    +0.000 OA
ATOM     21  N   UNL     1      -3.428  14.478  21.901  0.00  0.00    +0.000 N 
ATOM     22  H   UNL     1      -2.981  14.963  21.129  0.00  0.00    +0.000 HD
BRANCH  21  23
ATOM     23  S   UNL     1      -3.606  15.391  23.272  0.00  0.00    +0.000 S 
ATOM     24  O   UNL     1      -3.351  16.757  22.863  0.00  0.00    +0.000 OA
ATOM     25  O   UNL     1      -4.861  15.040  23.899  0.00  0.00    +0.000 OA
BRANCH  23  26
ATOM     26  C   UNL     1      -2.228  14.836  24.303  0.00  0.00    +0.000 C 
ATOM     27  C   UNL     1      -0.937  15.551  23.918  0.00  0.00    +0.000 C 
ATOM     28  C   UNL     1      -2.550  15.047  25.778  0.00  0.00    +0.000 C 
ENDBRANCH  23  26
ENDBRANCH  21  23
ENDBRANCH   9  19
BRANCH  10  29
ATOM     29  C   UNL     1      -6.180  12.573  20.215  0.00  0.00    +0.000 C 
BRANCH  29  30
ATOM     30  C   UNL     1      -6.696  13.988  20.197  0.00  0.00    +0.000 A 
ATOM     31  C   UNL     1      -6.631  14.846  19.090  0.00  0.00    +0.000 A 
ATOM     32  C   UNL     1      -7.025  16.177  19.214  0.00  0.00    +0.000 A 
ATOM     33  F   UNL     1      -6.916  16.994  18.158  0.00  0.00    +0.000 F 
ATOM     34  C   UNL     1      -7.516  16.678  20.415  0.00  0.00    +0.000 A 
ATOM     35  C   UNL     1      -7.635  15.826  21.509  0.00  0.00    +0.000 A 
ATOM     36  C   UNL     1      -7.231  14.498  21.390  0.00  0.00    +0.000 A 
ATOM     37  F   UNL     1      -7.342  13.695  22.458  0.00  0.00    +0.000 F 
ENDBRANCH  29  30
ENDBRANCH  10  29
TORSDOF 6
ENDMDL
