MODEL 1
REMARK VINA RESULT:      -7.0      0.000      0.000
REMARK  Name = 
REMARK  7 active torsions:
REMARK  status: ('A' for Active; 'I' for Inactive)
REMARK    1  A    between atoms: C_1  and  C_2
REMARK    2  A    between atoms: C_2  and  C_3
REMARK    3  A    between atoms: C_2  and  C_4
REMARK    4  A    between atoms: C_4  and  C_5
REMARK    5  A    between atoms: C_4  and  N_15
REMARK    6  A    between atoms: N_7  and  C_8
REMARK    7  A    between atoms: C_16  and  C_17
REMARK                            x       y       z     vdW  Elec       q    Type
REMARK                         _______ _______ _______ _____ _____    ______ ____
ROOT
ATOM      1  C   UNL     1       0.338  10.870  19.027  0.00  0.00    +0.000 C 
ENDROOT
BRANCH   1   2
ATOM      2  N   UNL     1       0.994  11.984  19.733  0.00  0.00    +0.000 N 
ATOM      3  C   UNL     1       0.763  12.381  21.047  0.00  0.00    +0.000 A 
ATOM      4  N   UNL     1       1.655  13.274  21.428  0.00  0.00    +0.000 NA
ATOM      5  C   UNL     1       2.389  13.578  20.327  0.00  0.00    +0.000 A 
ATOM      6  C   UNL     1       3.440  14.498  20.209  0.00  0.00    +0.000 A 
ATOM      7  C   UNL     1       4.055  14.664  18.967  0.00  0.00    +0.000 A 
ATOM      8  C   UNL     1       3.597  13.958  17.856  0.00  0.00    +0.000 A 
ATOM      9  C   UNL     1       2.528  13.056  17.953  0.00  0.00    +0.000 A 
ATOM     10  C   UNL     1       1.963  12.845  19.220  0.00  0.00    +0.000 A 
BRANCH   3  11
ATOM     11  C   UNL     1      -0.325  11.969  22.000  0.00  0.00    +0.000 A 
ATOM     12  C   UNL     1      -1.468  12.740  22.139  0.00  0.00    +0.000 A 
ATOM     13  S   UNL     1      -2.549  12.007  23.245  0.00  0.00    +0.000 S 
ATOM     14  C   UNL     1      -1.425  10.729  23.449  0.00  0.00    +0.000 A 
ATOM     15  N   UNL     1      -0.312  10.808  22.749  0.00  0.00    +0.000 NA
ENDBRANCH   3  11
ENDBRANCH   1   2
BRANCH   1  16
ATOM     16  C   UNL     1       1.327   9.765  18.549  0.00  0.00    +0.000 C 
ATOM     17  O   UNL     1       1.916   9.922  17.478  0.00  0.00    +0.000 OA
ATOM     18  N   UNL     1       1.544   8.684  19.387  0.00  0.00    +0.000 N 
ATOM     19  H   UNL     1       0.998   8.633  20.233  0.00  0.00    +0.000 HD
BRANCH  18  20
ATOM     20  C   UNL     1       2.324   7.526  19.143  0.00  0.00    +0.000 A 
ATOM     21  C   UNL     1       3.171   7.350  18.046  0.00  0.00    +0.000 A 
ATOM     22  C   UNL     1       3.855   6.142  17.854  0.00  0.00    +0.000 A 
ATOM     23  C   UNL     1       3.706   5.098  18.766  0.00  0.00    +0.000 A 
ATOM     24 CL   UNL     1       4.516   3.606  18.509  0.00  0.00    +0.000 Cl
ATOM     25  C   UNL     1       2.887   5.265  19.879  0.00  0.00    +0.000 A 
ATOM     26  C   UNL     1       2.206   6.471  20.067  0.00  0.00    +0.000 A 
ENDBRANCH  18  20
ENDBRANCH   1  16
BRANCH   1  28
ATOM     27  C   UNL     1      -1.530  10.103  17.439  0.00  0.00    +0.000 C 
ATOM     28  C   UNL     1      -0.705  11.299  17.950  0.00  0.00    +0.000 C 
ATOM     29  C   UNL     1      -1.681  12.353  18.497  0.00  0.00    +0.000 C 
ENDBRANCH   1  28
TORSDOF 5
ENDMDL
MODEL 2
REMARK VINA RESULT:      -6.9      5.058      9.307
REMARK  Name = 
REMARK  7 active torsions:
REMARK  status: ('A' for Active; 'I' for Inactive)
REMARK    1  A    between atoms: C_1  and  C_2
REMARK    2  A    between atoms: C_2  and  C_3
REMARK    3  A    between atoms: C_2  and  C_4
REMARK    4  A    between atoms: C_4  and  C_5
REMARK    5  A    between atoms: C_4  and  N_15
REMARK    6  A    between atoms: N_7  and  C_8
REMARK    7  A    between atoms: C_16  and  C_17
REMARK                            x       y       z     vdW  Elec       q    Type
REMARK                         _______ _______ _______ _____ _____    ______ ____
ROOT
ATOM      1  C   UNL     1       4.423   4.505  16.705  0.00  0.00    +0.000 C 
ENDROOT
BRANCH   1   2
ATOM      2  N   UNL     1       5.549   4.566  15.756  0.00  0.00    +0.000 N 
ATOM      3  C   UNL     1       6.850   4.971  16.041  0.00  0.00    +0.000 A 
ATOM      4  N   UNL     1       7.651   4.716  15.025  0.00  0.00    +0.000 NA
ATOM      5  C   UNL     1       6.858   4.277  14.014  0.00  0.00    +0.000 A 
ATOM      6  C   UNL     1       7.233   3.907  12.714  0.00  0.00    +0.000 A 
ATOM      7  C   UNL     1       6.245   3.493  11.819  0.00  0.00    +0.000 A 
ATOM      8  C   UNL     1       4.905   3.492  12.203  0.00  0.00    +0.000 A 
ATOM      9  C   UNL     1       4.513   3.887  13.490  0.00  0.00    +0.000 A 
ATOM     10  C   UNL     1       5.521   4.235  14.403  0.00  0.00    +0.000 A 
BRANCH   3  11
ATOM     11  C   UNL     1       7.402   5.646  17.266  0.00  0.00    +0.000 A 
ATOM     12  C   UNL     1       7.609   7.016  17.281  0.00  0.00    +0.000 A 
ATOM     13  S   UNL     1       8.191   7.513  18.812  0.00  0.00    +0.000 S 
ATOM     14  C   UNL     1       8.118   5.882  19.335  0.00  0.00    +0.000 A 
ATOM     15  N   UNL     1       7.686   5.002  18.456  0.00  0.00    +0.000 NA
ENDBRANCH   3  11
ENDBRANCH   1   2
BRANCH   1  16
ATOM     16  C   UNL     1       3.924   5.906  17.170  0.00  0.00    +0.000 C 
ATOM     17  O   UNL     1       4.497   6.911  16.742  0.00  0.00    +0.000 OA
ATOM     18  N   UNL     1       2.816   5.957  17.999  0.00  0.00    +0.000 N 
ATOM     19  H   UNL     1       2.429   5.082  18.315  0.00  0.00    +0.000 HD
BRANCH  18  20
ATOM     20  C   UNL     1       2.229   7.092  18.614  0.00  0.00    +0.000 A 
ATOM     21  C   UNL     1       1.873   8.266  17.947  0.00  0.00    +0.000 A 
ATOM     22  C   UNL     1       1.358   9.363  18.651  0.00  0.00    +0.000 A 
ATOM     23  C   UNL     1       1.184   9.291  20.033  0.00  0.00    +0.000 A 
ATOM     24 CL   UNL     1       0.587  10.649  20.899  0.00  0.00    +0.000 Cl
ATOM     25  C   UNL     1       1.510   8.120  20.710  0.00  0.00    +0.000 A 
ATOM     26  C   UNL     1       2.023   7.028  20.005  0.00  0.00    +0.000 A 
ENDBRANCH  18  20
ENDBRANCH   1  16
BRANCH   1  28
ATOM     27  C   UNL     1       4.563   4.151  19.245  0.00  0.00    +0.000 C 
ATOM     28  C   UNL     1       4.594   3.475  17.862  0.00  0.00    +0.000 C 
ATOM     29  C   UNL     1       3.492   2.403  17.830  0.00  0.00    +0.000 C 
ENDBRANCH   1  28
TORSDOF 5
ENDMDL
MODEL 3
REMARK VINA RESULT:      -6.8      2.027      3.153
REMARK  Name = 
REMARK  7 active torsions:
REMARK  status: ('A' for Active; 'I' for Inactive)
REMARK    1  A    between atoms: C_1  and  C_2
REMARK    2  A    between atoms: C_2  and  C_3
REMARK    3  A    between atoms: C_2  and  C_4
REMARK    4  A    between atoms: C_4  and  C_5
REMARK    5  A    between atoms: C_4  and  N_15
REMARK    6  A    between atoms: N_7  and  C_8
REMARK    7  A    between atoms: C_16  and  C_17
REMARK                            x       y       z     vdW  Elec       q    Type
REMARK                         _______ _______ _______ _____ _____    ______ ____
ROOT
ATOM      1  C   UNL     1       0.127  11.374  21.073  0.00  0.00    +0.000 C 
ENDROOT
BRANCH   1   2
ATOM      2  N   UNL     1       0.283  12.467  20.098  0.00  0.00    +0.000 N 
ATOM      3  C   UNL     1      -0.635  12.841  19.121  0.00  0.00    +0.000 A 
ATOM      4  N   UNL     1      -0.278  13.976  18.554  0.00  0.00    +0.000 NA
ATOM      5  C   UNL     1       0.949  14.283  19.051  0.00  0.00    +0.000 A 
ATOM      6  C   UNL     1       1.765  15.378  18.735  0.00  0.00    +0.000 A 
ATOM      7  C   UNL     1       3.008  15.495  19.361  0.00  0.00    +0.000 A 
ATOM      8  C   UNL     1       3.442  14.513  20.249  0.00  0.00    +0.000 A 
ATOM      9  C   UNL     1       2.649  13.398  20.552  0.00  0.00    +0.000 A 
ATOM     10  C   UNL     1       1.373  13.325  19.971  0.00  0.00    +0.000 A 
BRANCH   3  11
ATOM     11  C   UNL     1      -1.876  12.136  18.645  0.00  0.00    +0.000 A 
ATOM     12  C   UNL     1      -1.829  11.291  17.548  0.00  0.00    +0.000 A 
ATOM     13  S   UNL     1      -3.366  10.592  17.269  0.00  0.00    +0.000 S 
ATOM     14  C   UNL     1      -3.970  11.456  18.621  0.00  0.00    +0.000 A 
ATOM     15  N   UNL     1      -3.109  12.217  19.264  0.00  0.00    +0.000 NA
ENDBRANCH   3  11
ENDBRANCH   1   2
BRANCH   1  16
ATOM     16  C   UNL     1       0.238   9.954  20.440  0.00  0.00    +0.000 C 
ATOM     17  O   UNL     1      -0.797   9.374  20.105  0.00  0.00    +0.000 OA
ATOM     18  N   UNL     1       1.505   9.436  20.228  0.00  0.00    +0.000 N 
ATOM     19  H   UNL     1       2.289   9.975  20.558  0.00  0.00    +0.000 HD
BRANCH  18  20
ATOM     20  C   UNL     1       1.859   8.150  19.749  0.00  0.00    +0.000 A 
ATOM     21  C   UNL     1       2.325   7.879  18.460  0.00  0.00    +0.000 A 
ATOM     22  C   UNL     1       2.589   6.563  18.056  0.00  0.00    +0.000 A 
ATOM     23  C   UNL     1       2.398   5.504  18.942  0.00  0.00    +0.000 A 
ATOM     24 CL   UNL     1       2.687   3.889  18.432  0.00  0.00    +0.000 Cl
ATOM     25  C   UNL     1       1.959   5.758  20.238  0.00  0.00    +0.000 A 
ATOM     26  C   UNL     1       1.696   7.071  20.639  0.00  0.00    +0.000 A 
ENDBRANCH  18  20
ENDBRANCH   1  16
BRANCH   1  28
ATOM     27  C   UNL     1      -1.025  10.500  23.196  0.00  0.00    +0.000 C 
ATOM     28  C   UNL     1      -1.068  11.538  22.060  0.00  0.00    +0.000 C 
ATOM     29  C   UNL     1      -1.087  12.938  22.695  0.00  0.00    +0.000 C 
ENDBRANCH   1  28
TORSDOF 5
ENDMDL
MODEL 4
REMARK VINA RESULT:      -6.8      2.097      4.349
REMARK  Name = 
REMARK  7 active torsions:
REMARK  status: ('A' for Active; 'I' for Inactive)
REMARK    1  A    between atoms: C_1  and  C_2
REMARK    2  A    between atoms: C_2  and  C_3
REMARK    3  A    between atoms: C_2  and  C_4
REMARK    4  A    between atoms: C_4  and  C_5
REMARK    5  A    between atoms: C_4  and  N_15
REMARK    6  A    between atoms: N_7  and  C_8
REMARK    7  A    between atoms: C_16  and  C_17
REMARK                            x       y       z     vdW  Elec       q    Type
REMARK                         _______ _______ _______ _____ _____    ______ ____
ROOT
ATOM      1  C   UNL     1       0.909   9.960  19.668  0.00  0.00    +0.000 C 
ENDROOT
BRANCH   1   2
ATOM      2  N   UNL     1      -0.027  10.916  19.052  0.00  0.00    +0.000 N 
ATOM      3  C   UNL     1       0.139  12.295  18.962  0.00  0.00    +0.000 A 
ATOM      4  N   UNL     1      -0.779  12.826  18.178  0.00  0.00    +0.000 NA
ATOM      5  C   UNL     1      -1.640  11.824  17.864  0.00  0.00    +0.000 A 
ATOM      6  C   UNL     1      -2.801  11.890  17.081  0.00  0.00    +0.000 A 
ATOM      7  C   UNL     1      -3.555  10.730  16.893  0.00  0.00    +0.000 A 
ATOM      8  C   UNL     1      -3.179   9.541  17.515  0.00  0.00    +0.000 A 
ATOM      9  C   UNL     1      -2.038   9.467  18.324  0.00  0.00    +0.000 A 
ATOM     10  C   UNL     1      -1.249  10.621  18.450  0.00  0.00    +0.000 A 
BRANCH   3  11
ATOM     11  C   UNL     1       1.146  13.190  19.632  0.00  0.00    +0.000 A 
ATOM     12  C   UNL     1       1.902  14.080  18.886  0.00  0.00    +0.000 A 
ATOM     13  S   UNL     1       2.920  14.999  19.910  0.00  0.00    +0.000 S 
ATOM     14  C   UNL     1       2.279  14.152  21.256  0.00  0.00    +0.000 A 
ATOM     15  N   UNL     1       1.361  13.245  20.996  0.00  0.00    +0.000 NA
ENDBRANCH   3  11
ENDBRANCH   1   2
BRANCH   1  16
ATOM     16  C   UNL     1       1.627   9.039  18.638  0.00  0.00    +0.000 C 
ATOM     17  O   UNL     1       1.691   9.404  17.462  0.00  0.00    +0.000 OA
ATOM     18  N   UNL     1       2.216   7.877  19.107  0.00  0.00    +0.000 N 
ATOM     19  H   UNL     1       2.091   7.651  20.081  0.00  0.00    +0.000 HD
BRANCH  18  20
ATOM     20  C   UNL     1       2.849   6.849  18.363  0.00  0.00    +0.000 A 
ATOM     21  C   UNL     1       2.435   5.515  18.331  0.00  0.00    +0.000 A 
ATOM     22  C   UNL     1       3.163   4.556  17.616  0.00  0.00    +0.000 A 
ATOM     23  C   UNL     1       4.312   4.923  16.915  0.00  0.00    +0.000 A 
ATOM     24 CL   UNL     1       5.223   3.738  16.070  0.00  0.00    +0.000 Cl
ATOM     25  C   UNL     1       4.724   6.253  16.914  0.00  0.00    +0.000 A 
ATOM     26  C   UNL     1       3.995   7.208  17.629  0.00  0.00    +0.000 A 
ENDBRANCH  18  20
ENDBRANCH   1  16
BRANCH   1  28
ATOM     27  C   UNL     1       1.481   8.674  21.817  0.00  0.00    +0.000 C 
ATOM     28  C   UNL     1       0.353   9.207  20.915  0.00  0.00    +0.000 C 
ATOM     29  C   UNL     1      -0.550  10.114  21.766  0.00  0.00    +0.000 C 
ENDBRANCH   1  28
TORSDOF 5
ENDMDL
MODEL 5
REMARK VINA RESULT:      -6.8      1.861      3.226
REMARK  Name = 
REMARK  7 active torsions:
REMARK  status: ('A' for Active; 'I' for Inactive)
REMARK    1  A    between atoms: C_1  and  C_2
REMARK    2  A    between atoms: C_2  and  C_3
REMARK    3  A    between atoms: C_2  and  C_4
REMARK    4  A    between atoms: C_4  and  C_5
REMARK    5  A    between atoms: C_4  and  N_15
REMARK    6  A    between atoms: N_7  and  C_8
REMARK    7  A    between atoms: C_16  and  C_17
REMARK                            x       y       z     vdW  Elec       q    Type
REMARK                         _______ _______ _______ _____ _____    ______ ____
ROOT
ATOM      1  C   UNL     1       0.409  11.584  21.433  0.00  0.00    +0.000 C 
ENDROOT
BRANCH   1   2
ATOM      2  N   UNL     1       0.666  12.459  20.277  0.00  0.00    +0.000 N 
ATOM      3  C   UNL     1      -0.091  12.533  19.111  0.00  0.00    +0.000 A 
ATOM      4  N   UNL     1       0.293  13.553  18.369  0.00  0.00    +0.000 NA
ATOM      5  C   UNL     1       1.396  14.070  18.969  0.00  0.00    +0.000 A 
ATOM      6  C   UNL     1       2.190  15.146  18.549  0.00  0.00    +0.000 A 
ATOM      7  C   UNL     1       3.298  15.507  19.318  0.00  0.00    +0.000 A 
ATOM      8  C   UNL     1       3.630  14.777  20.458  0.00  0.00    +0.000 A 
ATOM      9  C   UNL     1       2.862  13.681  20.874  0.00  0.00    +0.000 A 
ATOM     10  C   UNL     1       1.711  13.370  20.132  0.00  0.00    +0.000 A 
BRANCH   3  11
ATOM     11  C   UNL     1      -1.189  11.631  18.617  0.00  0.00    +0.000 A 
ATOM     12  C   UNL     1      -2.504  12.067  18.605  0.00  0.00    +0.000 A 
ATOM     13  S   UNL     1      -3.525  10.860  17.948  0.00  0.00    +0.000 S 
ATOM     14  C   UNL     1      -2.149   9.862  17.726  0.00  0.00    +0.000 A 
ATOM     15  N   UNL     1      -0.991  10.365  18.099  0.00  0.00    +0.000 NA
ENDBRANCH   3  11
ENDBRANCH   1   2
BRANCH   1  16
ATOM     16  C   UNL     1       1.095  10.190  21.325  0.00  0.00    +0.000 C 
ATOM     17  O   UNL     1       1.687   9.743  22.310  0.00  0.00    +0.000 OA
ATOM     18  N   UNL     1       0.954   9.488  20.139  0.00  0.00    +0.000 N 
ATOM     19  H   UNL     1       0.472   9.946  19.381  0.00  0.00    +0.000 HD
BRANCH  18  20
ATOM     20  C   UNL     1       1.546   8.253  19.773  0.00  0.00    +0.000 A 
ATOM     21  C   UNL     1       1.539   7.100  20.561  0.00  0.00    +0.000 A 
ATOM     22  C   UNL     1       2.208   5.942  20.142  0.00  0.00    +0.000 A 
ATOM     23  C   UNL     1       2.884   5.923  18.923  0.00  0.00    +0.000 A 
ATOM     24 CL   UNL     1       3.734   4.514  18.430  0.00  0.00    +0.000 Cl
ATOM     25  C   UNL     1       2.880   7.055  18.113  0.00  0.00    +0.000 A 
ATOM     26  C   UNL     1       2.212   8.208  18.533  0.00  0.00    +0.000 A 
ENDBRANCH  18  20
ENDBRANCH   1  16
BRANCH   1  28
ATOM     27  C   UNL     1      -1.260  10.641  23.143  0.00  0.00    +0.000 C 
ATOM     28  C   UNL     1      -1.079  11.526  21.896  0.00  0.00    +0.000 C 
ATOM     29  C   UNL     1      -1.624  12.926  22.221  0.00  0.00    +0.000 C 
ENDBRANCH   1  28
TORSDOF 5
ENDMDL
MODEL 6
REMARK VINA RESULT:      -6.7      1.159      1.494
REMARK  Name = 
REMARK  7 active torsions:
REMARK  status: ('A' for Active; 'I' for Inactive)
REMARK    1  A    between atoms: C_1  and  C_2
REMARK    2  A    between atoms: C_2  and  C_3
REMARK    3  A    between atoms: C_2  and  C_4
REMARK    4  A    between atoms: C_4  and  C_5
REMARK    5  A    between atoms: C_4  and  N_15
REMARK    6  A    between atoms: N_7  and  C_8
REMARK    7  A    between atoms: C_16  and  C_17
REMARK                            x       y       z     vdW  Elec       q    Type
REMARK                         _______ _______ _______ _____ _____    ______ ____
ROOT
ATOM      1  C   UNL     1      -0.085  10.810  19.671  0.00  0.00    +0.000 C 
ENDROOT
BRANCH   1   2
ATOM      2  N   UNL     1       0.473  12.069  20.197  0.00  0.00    +0.000 N 
ATOM      3  C   UNL     1       0.006  12.785  21.296  0.00  0.00    +0.000 A 
ATOM      4  N   UNL     1       0.847  13.749  21.616  0.00  0.00    +0.000 NA
ATOM      5  C   UNL     1       1.797  13.766  20.645  0.00  0.00    +0.000 A 
ATOM      6  C   UNL     1       2.893  14.631  20.518  0.00  0.00    +0.000 A 
ATOM      7  C   UNL     1       3.747  14.480  19.424  0.00  0.00    +0.000 A 
ATOM      8  C   UNL     1       3.484  13.514  18.455  0.00  0.00    +0.000 A 
ATOM      9  C   UNL     1       2.376  12.662  18.554  0.00  0.00    +0.000 A 
ATOM     10  C   UNL     1       1.563  12.776  19.693  0.00  0.00    +0.000 A 
BRANCH   3  11
ATOM     11  C   UNL     1      -1.266  12.623  22.082  0.00  0.00    +0.000 A 
ATOM     12  C   UNL     1      -2.403  13.332  21.732  0.00  0.00    +0.000 A 
ATOM     13  S   UNL     1      -3.706  12.912  22.761  0.00  0.00    +0.000 S 
ATOM     14  C   UNL     1      -2.666  11.824  23.581  0.00  0.00    +0.000 A 
ATOM     15  N   UNL     1      -1.428  11.749  23.140  0.00  0.00    +0.000 NA
ENDBRANCH   3  11
ENDBRANCH   1   2
BRANCH   1  16
ATOM     16  C   UNL     1       0.857   9.584  19.862  0.00  0.00    +0.000 C 
ATOM     17  O   UNL     1       1.090   9.190  21.007  0.00  0.00    +0.000 OA
ATOM     18  N   UNL     1       1.341   8.955  18.727  0.00  0.00    +0.000 N 
ATOM     19  H   UNL     1       1.114   9.365  17.835  0.00  0.00    +0.000 HD
BRANCH  18  20
ATOM     20  C   UNL     1       2.267   7.885  18.642  0.00  0.00    +0.000 A 
ATOM     21  C   UNL     1       2.345   6.823  19.547  0.00  0.00    +0.000 A 
ATOM     22  C   UNL     1       3.338   5.843  19.417  0.00  0.00    +0.000 A 
ATOM     23  C   UNL     1       4.260   5.910  18.373  0.00  0.00    +0.000 A 
ATOM     24 CL   UNL     1       5.499   4.728  18.239  0.00  0.00    +0.000 Cl
ATOM     25  C   UNL     1       4.181   6.947  17.448  0.00  0.00    +0.000 A 
ATOM     26  C   UNL     1       3.189   7.923  17.580  0.00  0.00    +0.000 A 
ENDBRANCH  18  20
ENDBRANCH   1  16
BRANCH   1  28
ATOM     27  C   UNL     1      -1.815   9.861  18.028  0.00  0.00    +0.000 C 
ATOM     28  C   UNL     1      -0.714  10.913  18.249  0.00  0.00    +0.000 C 
ATOM     29  C   UNL     1      -1.325  12.302  18.001  0.00  0.00    +0.000 C 
ENDBRANCH   1  28
TORSDOF 5
ENDMDL
MODEL 7
REMARK VINA RESULT:      -6.6      1.944      3.113
REMARK  Name = 
REMARK  7 active torsions:
REMARK  status: ('A' for Active; 'I' for Inactive)
REMARK    1  A    between atoms: C_1  and  C_2
REMARK    2  A    between atoms: C_2  and  C_3
REMARK    3  A    between atoms: C_2  and  C_4
REMARK    4  A    between atoms: C_4  and  C_5
REMARK    5  A    between atoms: C_4  and  N_15
REMARK    6  A    between atoms: N_7  and  C_8
REMARK    7  A    between atoms: C_16  and  C_17
REMARK                            x       y       z     vdW  Elec       q    Type
REMARK                         _______ _______ _______ _____ _____    ______ ____
ROOT
ATOM      1  C   UNL     1       0.680  10.555  19.948  0.00  0.00    +0.000 C 
ENDROOT
BRANCH   1   2
ATOM      2  N   UNL     1       0.438  11.868  19.326  0.00  0.00    +0.000 N 
ATOM      3  C   UNL     1      -0.707  12.259  18.638  0.00  0.00    +0.000 A 
ATOM      4  N   UNL     1      -0.681  13.553  18.386  0.00  0.00    +0.000 NA
ATOM      5  C   UNL     1       0.543  13.994  18.776  0.00  0.00    +0.000 A 
ATOM      6  C   UNL     1       1.068  15.291  18.685  0.00  0.00    +0.000 A 
ATOM      7  C   UNL     1       2.368  15.525  19.139  0.00  0.00    +0.000 A 
ATOM      8  C   UNL     1       3.140  14.475  19.630  0.00  0.00    +0.000 A 
ATOM      9  C   UNL     1       2.639  13.168  19.699  0.00  0.00    +0.000 A 
ATOM     10  C   UNL     1       1.308  12.957  19.305  0.00  0.00    +0.000 A 
BRANCH   3  11
ATOM     11  C   UNL     1      -1.869  11.435  18.154  0.00  0.00    +0.000 A 
ATOM     12  C   UNL     1      -3.153  11.698  18.604  0.00  0.00    +0.000 A 
ATOM     13  S   UNL     1      -4.273  10.645  17.851  0.00  0.00    +0.000 S 
ATOM     14  C   UNL     1      -2.975   9.931  16.988  0.00  0.00    +0.000 A 
ATOM     15  N   UNL     1      -1.776  10.425  17.216  0.00  0.00    +0.000 NA
ENDBRANCH   3  11
ENDBRANCH   1   2
BRANCH   1  16
ATOM     16  C   UNL     1       1.267   9.498  18.966  0.00  0.00    +0.000 C 
ATOM     17  O   UNL     1       1.166   9.697  17.753  0.00  0.00    +0.000 OA
ATOM     18  N   UNL     1       1.934   8.410  19.506  0.00  0.00    +0.000 N 
ATOM     19  H   UNL     1       1.945   8.322  20.510  0.00  0.00    +0.000 HD
BRANCH  18  20
ATOM     20  C   UNL     1       2.476   7.288  18.831  0.00  0.00    +0.000 A 
ATOM     21  C   UNL     1       2.118   5.960  19.073  0.00  0.00    +0.000 A 
ATOM     22  C   UNL     1       2.757   4.911  18.399  0.00  0.00    +0.000 A 
ATOM     23  C   UNL     1       3.758   5.181  17.467  0.00  0.00    +0.000 A 
ATOM     24 CL   UNL     1       4.566   3.891  16.670  0.00  0.00    +0.000 Cl
ATOM     25  C   UNL     1       4.110   6.499  17.194  0.00  0.00    +0.000 A 
ATOM     26  C   UNL     1       3.471   7.544  17.867  0.00  0.00    +0.000 A 
ENDBRANCH  18  20
ENDBRANCH   1  16
BRANCH   1  28
ATOM     27  C   UNL     1      -0.135   8.684  21.507  0.00  0.00    +0.000 C 
ATOM     28  C   UNL     1      -0.488  10.021  20.832  0.00  0.00    +0.000 C 
ATOM     29  C   UNL     1      -0.868  11.026  21.932  0.00  0.00    +0.000 C 
ENDBRANCH   1  28
TORSDOF 5
ENDMDL
MODEL 8
REMARK VINA RESULT:      -6.6      1.839      2.967
REMARK  Name = 
REMARK  7 active torsions:
REMARK  status: ('A' for Active; 'I' for Inactive)
REMARK    1  A    between atoms: C_1  and  C_2
REMARK    2  A    between atoms: C_2  and  C_3
REMARK    3  A    between atoms: C_2  and  C_4
REMARK    4  A    between atoms: C_4  and  C_5
REMARK    5  A    between atoms: C_4  and  N_15
REMARK    6  A    between atoms: N_7  and  C_8
REMARK    7  A    between atoms: C_16  and  C_17
REMARK                            x       y       z     vdW  Elec       q    Type
REMARK                         _______ _______ _______ _____ _____    ______ ____
ROOT
ATOM      1  C   UNL     1       0.572  10.660  20.343  0.00  0.00    +0.000 C 
ENDROOT
BRANCH   1   2
ATOM      2  N   UNL     1       0.417  11.920  19.597  0.00  0.00    +0.000 N 
ATOM      3  C   UNL     1      -0.658  12.276  18.787  0.00  0.00    +0.000 A 
ATOM      4  N   UNL     1      -0.576  13.544  18.433  0.00  0.00    +0.000 NA
ATOM      5  C   UNL     1       0.624  13.991  18.884  0.00  0.00    +0.000 A 
ATOM      6  C   UNL     1       1.191  15.264  18.731  0.00  0.00    +0.000 A 
ATOM      7  C   UNL     1       2.456  15.509  19.269  0.00  0.00    +0.000 A 
ATOM      8  C   UNL     1       3.157  14.487  19.907  0.00  0.00    +0.000 A 
ATOM      9  C   UNL     1       2.616  13.202  20.042  0.00  0.00    +0.000 A 
ATOM     10  C   UNL     1       1.316  12.986  19.558  0.00  0.00    +0.000 A 
BRANCH   3  11
ATOM     11  C   UNL     1      -1.799  11.439  18.279  0.00  0.00    +0.000 A 
ATOM     12  C   UNL     1      -3.100  11.709  18.673  0.00  0.00    +0.000 A 
ATOM     13  S   UNL     1      -4.189  10.637  17.902  0.00  0.00    +0.000 S 
ATOM     14  C   UNL     1      -2.858   9.906  17.106  0.00  0.00    +0.000 A 
ATOM     15  N   UNL     1      -1.669  10.407  17.368  0.00  0.00    +0.000 NA
ENDBRANCH   3  11
ENDBRANCH   1   2
BRANCH   1  16
ATOM     16  C   UNL     1       1.137   9.491  19.481  0.00  0.00    +0.000 C 
ATOM     17  O   UNL     1       1.113   9.596  18.253  0.00  0.00    +0.000 OA
ATOM     18  N   UNL     1       1.698   8.411  20.143  0.00  0.00    +0.000 N 
ATOM     19  H   UNL     1       1.650   8.404  21.149  0.00  0.00    +0.000 HD
BRANCH  18  20
ATOM     20  C   UNL     1       2.197   7.205  19.589  0.00  0.00    +0.000 A 
ATOM     21  C   UNL     1       2.935   7.115  18.406  0.00  0.00    +0.000 A 
ATOM     22  C   UNL     1       3.332   5.869  17.903  0.00  0.00    +0.000 A 
ATOM     23  C   UNL     1       3.002   4.698  18.584  0.00  0.00    +0.000 A 
ATOM     24 CL   UNL     1       3.458   3.170  17.945  0.00  0.00    +0.000 Cl
ATOM     25  C   UNL     1       2.290   4.771  19.778  0.00  0.00    +0.000 A 
ATOM     26  C   UNL     1       1.896   6.015  20.278  0.00  0.00    +0.000 A 
ENDBRANCH  18  20
ENDBRANCH   1  16
BRANCH   1  28
ATOM     27  C   UNL     1      -0.343   9.054  22.126  0.00  0.00    +0.000 C 
ATOM     28  C   UNL     1      -0.650  10.265  21.227  0.00  0.00    +0.000 C 
ATOM     29  C   UNL     1      -1.094  11.429  22.128  0.00  0.00    +0.000 C 
ENDBRANCH   1  28
TORSDOF 5
ENDMDL
MODEL 9
REMARK VINA RESULT:      -6.6      2.477      4.575
REMARK  Name = 
REMARK  7 active torsions:
REMARK  status: ('A' for Active; 'I' for Inactive)
REMARK    1  A    between atoms: C_1  and  C_2
REMARK    2  A    between atoms: C_2  and  C_3
REMARK    3  A    between atoms: C_2  and  C_4
REMARK    4  A    between atoms: C_4  and  C_5
REMARK    5  A    between atoms: C_4  and  N_15
REMARK    6  A    between atoms: N_7  and  C_8
REMARK    7  A    between atoms: C_16  and  C_17
REMARK                            x       y       z     vdW  Elec       q    Type
REMARK                         _______ _______ _______ _____ _____    ______ ____
ROOT
ATOM      1  C   UNL     1      -0.076  12.679  19.703  0.00  0.00    +0.000 C 
ENDROOT
BRANCH   1   2
ATOM      2  N   UNL     1      -1.303  12.877  20.494  0.00  0.00    +0.000 N 
ATOM      3  C   UNL     1      -2.580  12.432  20.165  0.00  0.00    +0.000 A 
ATOM      4  N   UNL     1      -3.408  12.599  21.177  0.00  0.00    +0.000 NA
ATOM      5  C   UNL     1      -2.720  13.284  22.126  0.00  0.00    +0.000 A 
ATOM      6  C   UNL     1      -3.173  13.730  23.376  0.00  0.00    +0.000 A 
ATOM      7  C   UNL     1      -2.293  14.436  24.199  0.00  0.00    +0.000 A 
ATOM      8  C   UNL     1      -1.003  14.728  23.762  0.00  0.00    +0.000 A 
ATOM      9  C   UNL     1      -0.546  14.313  22.503  0.00  0.00    +0.000 A 
ATOM     10  C   UNL     1      -1.415  13.545  21.712  0.00  0.00    +0.000 A 
BRANCH   3  11
ATOM     11  C   UNL     1      -3.097  11.859  18.874  0.00  0.00    +0.000 A 
ATOM     12  C   UNL     1      -4.389  12.129  18.452  0.00  0.00    +0.000 A 
ATOM     13  S   UNL     1      -4.685  11.395  16.934  0.00  0.00    +0.000 S 
ATOM     14  C   UNL     1      -3.083  10.784  16.953  0.00  0.00    +0.000 A 
ATOM     15  N   UNL     1      -2.348  11.094  18.000  0.00  0.00    +0.000 NA
ENDBRANCH   3  11
ENDBRANCH   1   2
BRANCH   1  16
ATOM     16  C   UNL     1       0.711  11.390  20.086  0.00  0.00    +0.000 C 
ATOM     17  O   UNL     1       1.351  11.378  21.139  0.00  0.00    +0.000 OA
ATOM     18  N   UNL     1       0.602  10.292  19.248  0.00  0.00    +0.000 N 
ATOM     19  H   UNL     1       0.074  10.406  18.398  0.00  0.00    +0.000 HD
BRANCH  18  20
ATOM     20  C   UNL     1       1.277   9.049  19.337  0.00  0.00    +0.000 A 
ATOM     21  C   UNL     1       1.280   8.220  20.461  0.00  0.00    +0.000 A 
ATOM     22  C   UNL     1       2.031   7.037  20.478  0.00  0.00    +0.000 A 
ATOM     23  C   UNL     1       2.783   6.667  19.364  0.00  0.00    +0.000 A 
ATOM     24 CL   UNL     1       3.733   5.236  19.401  0.00  0.00    +0.000 Cl
ATOM     25  C   UNL     1       2.772   7.468  18.226  0.00  0.00    +0.000 A 
ATOM     26  C   UNL     1       2.022   8.647  18.212  0.00  0.00    +0.000 A 
ENDBRANCH  18  20
ENDBRANCH   1  16
BRANCH   1  28
ATOM     27  C   UNL     1       2.093  13.657  18.737  0.00  0.00    +0.000 C 
ATOM     28  C   UNL     1       0.818  13.947  19.549  0.00  0.00    +0.000 C 
ATOM     29  C   UNL     1       0.060  15.091  18.855  0.00  0.00    +0.000 C 
ENDBRANCH   1  28
TORSDOF 5
ENDMDL
