MODEL 1
REMARK VINA RESULT:      -6.9      0.000      0.000
REMARK  Name = 
REMARK  7 active torsions:
REMARK  status: ('A' for Active; 'I' for Inactive)
REMARK    1  A    between atoms: C_1  and  C_2
REMARK    2  A    between atoms: C_2  and  N_3
REMARK    3  A    between atoms: C_6  and  O_7
REMARK    4  A    between atoms: O_7  and  C_8
REMARK    5  A    between atoms: C_8  and  C_9
REMARK    6  A    between atoms: C_23  and  C_24
REMARK    7  A    between atoms: C_23  and  C_25
REMARK                            x       y       z     vdW  Elec       q    Type
REMARK                         _______ _______ _______ _____ _____    ______ ____
ROOT
ATOM      1  N   UNL     1      -1.955  10.201  16.614  0.00  0.00    +0.000 N 
ATOM      2  C   UNL     1      -1.822  10.737  17.891  0.00  0.00    +0.000 A 
ATOM      3  N   UNL     1      -0.665  10.502  18.512  0.00  0.00    +0.000 NA
ATOM      4  C   UNL     1      -0.559  10.998  19.758  0.00  0.00    +0.000 A 
ATOM      5  C   UNL     1      -1.524  11.753  20.415  0.00  0.00    +0.000 A 
ATOM      6  C   UNL     1      -2.678  11.934  19.678  0.00  0.00    +0.000 A 
ATOM      7  N   UNL     1      -2.825  11.435  18.429  0.00  0.00    +0.000 NA
ATOM      8  C   UNL     1      -3.836  12.672  20.212  0.00  0.00    +0.000 A 
ATOM      9  C   UNL     1      -5.039  12.805  19.488  0.00  0.00    +0.000 A 
ATOM     10  C   UNL     1      -6.130  13.514  20.000  0.00  0.00    +0.000 A 
ATOM     11  C   UNL     1      -6.047  14.104  21.254  0.00  0.00    +0.000 A 
ATOM     12  C   UNL     1      -4.875  13.981  21.990  0.00  0.00    +0.000 A 
ATOM     13  C   UNL     1      -3.774  13.269  21.479  0.00  0.00    +0.000 A 
ATOM     14  C   UNL     1      -2.521  13.227  22.305  0.00  0.00    +0.000 C 
ATOM     15  C   UNL     1      -1.344  12.324  21.815  0.00  0.00    +0.000 C 
ATOM     16  C   UNL     1      -1.192  11.177  22.842  0.00  0.00    +0.000 C 
ATOM     17  C   UNL     1      -0.080  13.225  21.853  0.00  0.00    +0.000 C 
ATOM     18  H   UNL     1      -1.023  10.001  16.278  0.00  0.00    +0.000 HD
ENDROOT
BRANCH   1  20
ATOM     19  C   UNL     1      -3.220  10.130  14.536  0.00  0.00    +0.000 C 
ATOM     20  C   UNL     1      -2.809  10.975  15.732  0.00  0.00    +0.000 C 
ENDBRANCH   1  20
BRANCH   4  21
ATOM     21  O   UNL     1       0.545  10.631  20.491  0.00  0.00    +0.000 OA
BRANCH  21  22
ATOM     22  C   UNL     1       1.101   9.354  20.188  0.00  0.00    +0.000 C 
BRANCH  22  23
ATOM     23  C   UNL     1       0.819   8.403  21.350  0.00  0.00    +0.000 C 
ATOM     24  F   UNL     1      -0.505   8.175  21.529  0.00  0.00    +0.000 F 
ATOM     25  F   UNL     1       1.410   7.201  21.158  0.00  0.00    +0.000 F 
ATOM     26  F   UNL     1       1.292   8.904  22.515  0.00  0.00    +0.000 F 
ENDBRANCH  22  23
ENDBRANCH  21  22
ENDBRANCH   4  21
TORSDOF 4
ENDMDL
MODEL 2
REMARK VINA RESULT:      -6.6      6.396      9.835
REMARK  Name = 
REMARK  7 active torsions:
REMARK  status: ('A' for Active; 'I' for Inactive)
REMARK    1  A    between atoms: C_1  and  C_2
REMARK    2  A    between atoms: C_2  and  N_3
REMARK    3  A    between atoms: C_6  and  O_7
REMARK    4  A    between atoms: O_7  and  C_8
REMARK    5  A    between atoms: C_8  and  C_9
REMARK    6  A    between atoms: C_23  and  C_24
REMARK    7  A    between atoms: C_23  and  C_25
REMARK                            x       y       z     vdW  Elec       q    Type
REMARK                         _______ _______ _______ _____ _____    ______ ____
ROOT
ATOM      1  N   UNL     1       2.222   8.802  17.509  0.00  0.00    +0.000 N 
ATOM      2  C   UNL     1       2.967   7.644  17.708  0.00  0.00    +0.000 A 
ATOM      3  N   UNL     1       4.085   7.530  16.989  0.00  0.00    +0.000 NA
ATOM      4  C   UNL     1       4.781   6.393  17.167  0.00  0.00    +0.000 A 
ATOM      5  C   UNL     1       4.452   5.370  18.049  0.00  0.00    +0.000 A 
ATOM      6  C   UNL     1       3.278   5.595  18.741  0.00  0.00    +0.000 A 
ATOM      7  N   UNL     1       2.545   6.720  18.575  0.00  0.00    +0.000 NA
ATOM      8  C   UNL     1       2.735   4.613  19.695  0.00  0.00    +0.000 A 
ATOM      9  C   UNL     1       1.505   4.809  20.356  0.00  0.00    +0.000 A 
ATOM     10  C   UNL     1       1.001   3.875  21.266  0.00  0.00    +0.000 A 
ATOM     11  C   UNL     1       1.716   2.716  21.536  0.00  0.00    +0.000 A 
ATOM     12  C   UNL     1       2.928   2.496  20.893  0.00  0.00    +0.000 A 
ATOM     13  C   UNL     1       3.438   3.433  19.975  0.00  0.00    +0.000 A 
ATOM     14  C   UNL     1       4.781   3.156  19.363  0.00  0.00    +0.000 C 
ATOM     15  C   UNL     1       5.293   4.115  18.241  0.00  0.00    +0.000 C 
ATOM     16  C   UNL     1       5.334   3.298  16.928  0.00  0.00    +0.000 C 
ATOM     17  C   UNL     1       6.737   4.510  18.652  0.00  0.00    +0.000 C 
ATOM     18  H   UNL     1       2.839   9.482  17.087  0.00  0.00    +0.000 HD
ENDROOT
BRANCH   1  20
ATOM     19  C   UNL     1       0.230   9.988  18.249  0.00  0.00    +0.000 C 
ATOM     20  C   UNL     1       1.482   9.239  18.679  0.00  0.00    +0.000 C 
ENDBRANCH   1  20
BRANCH   4  21
ATOM     21  O   UNL     1       5.841   6.164  16.321  0.00  0.00    +0.000 OA
BRANCH  21  22
ATOM     22  C   UNL     1       5.507   5.805  14.983  0.00  0.00    +0.000 C 
BRANCH  22  23
ATOM     23  C   UNL     1       6.621   4.929  14.413  0.00  0.00    +0.000 C 
ATOM     24  F   UNL     1       7.280   5.522  13.389  0.00  0.00    +0.000 F 
ATOM     25  F   UNL     1       7.540   4.623  15.357  0.00  0.00    +0.000 F 
ATOM     26  F   UNL     1       6.127   3.761  13.938  0.00  0.00    +0.000 F 
ENDBRANCH  22  23
ENDBRANCH  21  22
ENDBRANCH   4  21
TORSDOF 4
ENDMDL
MODEL 3
REMARK VINA RESULT:      -6.4      1.034      1.352
REMARK  Name = 
REMARK  7 active torsions:
REMARK  status: ('A' for Active; 'I' for Inactive)
REMARK    1  A    between atoms: C_1  and  C_2
REMARK    2  A    between atoms: C_2  and  N_3
REMARK    3  A    between atoms: C_6  and  O_7
REMARK    4  A    between atoms: O_7  and  C_8
REMARK    5  A    between atoms: C_8  and  C_9
REMARK    6  A    between atoms: C_23  and  C_24
REMARK    7  A    between atoms: C_23  and  C_25
REMARK                            x       y       z     vdW  Elec       q    Type
REMARK                         _______ _______ _______ _____ _____    ______ ____
ROOT
ATOM      1  N   UNL     1      -1.851  10.554  16.984  0.00  0.00    +0.000 N 
ATOM      2  C   UNL     1      -2.063  11.165  18.217  0.00  0.00    +0.000 A 
ATOM      3  N   UNL     1      -1.017  11.204  19.044  0.00  0.00    +0.000 NA
ATOM      4  C   UNL     1      -1.240  11.770  20.243  0.00  0.00    +0.000 A 
ATOM      5  C   UNL     1      -2.439  12.337  20.662  0.00  0.00    +0.000 A 
ATOM      6  C   UNL     1      -3.450  12.241  19.726  0.00  0.00    +0.000 A 
ATOM      7  N   UNL     1      -3.264  11.665  18.516  0.00  0.00    +0.000 NA
ATOM      8  C   UNL     1      -4.809  12.746  19.991  0.00  0.00    +0.000 A 
ATOM      9  C   UNL     1      -5.860  12.594  19.064  0.00  0.00    +0.000 A 
ATOM     10  C   UNL     1      -7.144  13.084  19.321  0.00  0.00    +0.000 A 
ATOM     11  C   UNL     1      -7.410  13.736  20.518  0.00  0.00    +0.000 A 
ATOM     12  C   UNL     1      -6.392  13.894  21.451  0.00  0.00    +0.000 A 
ATOM     13  C   UNL     1      -5.098  13.402  21.196  0.00  0.00    +0.000 A 
ATOM     14  C   UNL     1      -4.035  13.659  22.225  0.00  0.00    +0.000 C 
ATOM     15  C   UNL     1      -2.634  12.998  22.019  0.00  0.00    +0.000 C 
ATOM     16  C   UNL     1      -2.453  11.956  23.149  0.00  0.00    +0.000 C 
ATOM     17  C   UNL     1      -1.600  14.142  22.198  0.00  0.00    +0.000 C 
ATOM     18  H   UNL     1      -0.853  10.537  16.831  0.00  0.00    +0.000 HD
ENDROOT
BRANCH   1  20
ATOM     19  C   UNL     1      -3.029   9.986  14.933  0.00  0.00    +0.000 C 
ATOM     20  C   UNL     1      -2.663  11.093  15.908  0.00  0.00    +0.000 C 
ENDBRANCH   1  20
BRANCH   4  21
ATOM     21  O   UNL     1      -0.241  11.674  21.182  0.00  0.00    +0.000 OA
BRANCH  21  22
ATOM     22  C   UNL     1       0.708  10.629  20.982  0.00  0.00    +0.000 C 
BRANCH  22  23
ATOM     23  C   UNL     1       0.447   9.521  21.999  0.00  0.00    +0.000 C 
ATOM     24  F   UNL     1       0.126  10.001  23.225  0.00  0.00    +0.000 F 
ATOM     25  F   UNL     1      -0.569   8.718  21.605  0.00  0.00    +0.000 F 
ATOM     26  F   UNL     1       1.540   8.738  22.158  0.00  0.00    +0.000 F 
ENDBRANCH  22  23
ENDBRANCH  21  22
ENDBRANCH   4  21
TORSDOF 4
ENDMDL
MODEL 4
REMARK VINA RESULT:      -6.4      6.382      8.798
REMARK  Name = 
REMARK  7 active torsions:
REMARK  status: ('A' for Active; 'I' for Inactive)
REMARK    1  A    between atoms: C_1  and  C_2
REMARK    2  A    between atoms: C_2  and  N_3
REMARK    3  A    between atoms: C_6  and  O_7
REMARK    4  A    between atoms: O_7  and  C_8
REMARK    5  A    between atoms: C_8  and  C_9
REMARK    6  A    between atoms: C_23  and  C_24
REMARK    7  A    between atoms: C_23  and  C_25
REMARK                            x       y       z     vdW  Elec       q    Type
REMARK                         _______ _______ _______ _____ _____    ______ ____
ROOT
ATOM      1  N   UNL     1       5.039   4.298  15.634  0.00  0.00    +0.000 N 
ATOM      2  C   UNL     1       4.261   4.445  16.778  0.00  0.00    +0.000 A 
ATOM      3  N   UNL     1       4.034   3.336  17.484  0.00  0.00    +0.000 NA
ATOM      4  C   UNL     1       3.255   3.484  18.571  0.00  0.00    +0.000 A 
ATOM      5  C   UNL     1       2.715   4.682  19.025  0.00  0.00    +0.000 A 
ATOM      6  C   UNL     1       3.015   5.763  18.219  0.00  0.00    +0.000 A 
ATOM      7  N   UNL     1       3.782   5.647  17.110  0.00  0.00    +0.000 NA
ATOM      8  C   UNL     1       2.504   7.115  18.504  0.00  0.00    +0.000 A 
ATOM      9  C   UNL     1       2.756   8.208  17.650  0.00  0.00    +0.000 A 
ATOM     10  C   UNL     1       2.274   9.489  17.934  0.00  0.00    +0.000 A 
ATOM     11  C   UNL     1       1.522   9.708  19.080  0.00  0.00    +0.000 A 
ATOM     12  C   UNL     1       1.255   8.646  19.935  0.00  0.00    +0.000 A 
ATOM     13  C   UNL     1       1.738   7.354  19.653  0.00  0.00    +0.000 A 
ATOM     14  C   UNL     1       1.459   6.268  20.651  0.00  0.00    +0.000 C 
ATOM     15  C   UNL     1       1.867   4.805  20.283  0.00  0.00    +0.000 C 
ATOM     16  C   UNL     1       0.558   3.995  20.124  0.00  0.00    +0.000 C 
ATOM     17  C   UNL     1       2.662   4.271  21.505  0.00  0.00    +0.000 C 
ATOM     18  H   UNL     1       5.546   3.430  15.731  0.00  0.00    +0.000 HD
ENDROOT
BRANCH   1  20
ATOM     19  C   UNL     1       7.082   5.056  14.550  0.00  0.00    +0.000 C 
ATOM     20  C   UNL     1       5.824   5.472  15.296  0.00  0.00    +0.000 C 
ENDBRANCH   1  20
BRANCH   4  21
ATOM     21  O   UNL     1       2.859   2.340  19.223  0.00  0.00    +0.000 OA
BRANCH  21  22
ATOM     22  C   UNL     1       3.808   1.277  19.256  0.00  0.00    +0.000 C 
BRANCH  22  23
ATOM     23  C   UNL     1       4.775   1.512  20.415  0.00  0.00    +0.000 C 
ATOM     24  F   UNL     1       5.654   0.494  20.577  0.00  0.00    +0.000 F 
ATOM     25  F   UNL     1       5.498   2.641  20.233  0.00  0.00    +0.000 F 
ATOM     26  F   UNL     1       4.107   1.646  21.586  0.00  0.00    +0.000 F 
ENDBRANCH  22  23
ENDBRANCH  21  22
ENDBRANCH   4  21
TORSDOF 4
ENDMDL
MODEL 5
REMARK VINA RESULT:      -6.3      6.151     10.069
REMARK  Name = 
REMARK  7 active torsions:
REMARK  status: ('A' for Active; 'I' for Inactive)
REMARK    1  A    between atoms: C_1  and  C_2
REMARK    2  A    between atoms: C_2  and  N_3
REMARK    3  A    between atoms: C_6  and  O_7
REMARK    4  A    between atoms: O_7  and  C_8
REMARK    5  A    between atoms: C_8  and  C_9
REMARK    6  A    between atoms: C_23  and  C_24
REMARK    7  A    between atoms: C_23  and  C_25
REMARK                            x       y       z     vdW  Elec       q    Type
REMARK                         _______ _______ _______ _____ _____    ______ ____
ROOT
ATOM      1  N   UNL     1       2.103   8.493  18.922  0.00  0.00    +0.000 N 
ATOM      2  C   UNL     1       2.435   7.170  18.649  0.00  0.00    +0.000 A 
ATOM      3  N   UNL     1       1.733   6.240  19.299  0.00  0.00    +0.000 NA
ATOM      4  C   UNL     1       2.082   4.965  19.051  0.00  0.00    +0.000 A 
ATOM      5  C   UNL     1       3.069   4.552  18.163  0.00  0.00    +0.000 A 
ATOM      6  C   UNL     1       3.729   5.598  17.547  0.00  0.00    +0.000 A 
ATOM      7  N   UNL     1       3.414   6.892  17.785  0.00  0.00    +0.000 NA
ATOM      8  C   UNL     1       4.835   5.372  16.601  0.00  0.00    +0.000 A 
ATOM      9  C   UNL     1       5.553   6.437  16.019  0.00  0.00    +0.000 A 
ATOM     10  C   UNL     1       6.597   6.214  15.115  0.00  0.00    +0.000 A 
ATOM     11  C   UNL     1       6.952   4.916  14.774  0.00  0.00    +0.000 A 
ATOM     12  C   UNL     1       6.264   3.849  15.339  0.00  0.00    +0.000 A 
ATOM     13  C   UNL     1       5.213   4.069  16.249  0.00  0.00    +0.000 A 
ATOM     14  C   UNL     1       4.477   2.870  16.774  0.00  0.00    +0.000 C 
ATOM     15  C   UNL     1       3.405   3.093  17.890  0.00  0.00    +0.000 C 
ATOM     16  C   UNL     1       3.942   2.421  19.176  0.00  0.00    +0.000 C 
ATOM     17  C   UNL     1       2.135   2.344  17.405  0.00  0.00    +0.000 C 
ATOM     18  H   UNL     1       1.177   8.489  19.325  0.00  0.00    +0.000 HD
ENDROOT
BRANCH   1  20
ATOM     19  C   UNL     1       1.855  10.798  18.183  0.00  0.00    +0.000 C 
ATOM     20  C   UNL     1       2.321   9.400  17.809  0.00  0.00    +0.000 C 
ENDBRANCH   1  20
BRANCH   4  21
ATOM     21  O   UNL     1       1.501   3.989  19.827  0.00  0.00    +0.000 OA
BRANCH  21  22
ATOM     22  C   UNL     1       1.844   4.003  21.211  0.00  0.00    +0.000 C 
BRANCH  22  23
ATOM     23  C   UNL     1       1.763   2.579  21.755  0.00  0.00    +0.000 C 
ATOM     24  F   UNL     1       2.956   2.125  22.210  0.00  0.00    +0.000 F 
ATOM     25  F   UNL     1       0.884   2.492  22.780  0.00  0.00    +0.000 F 
ATOM     26  F   UNL     1       1.353   1.714  20.797  0.00  0.00    +0.000 F 
ENDBRANCH  22  23
ENDBRANCH  21  22
ENDBRANCH   4  21
TORSDOF 4
ENDMDL
MODEL 6
REMARK VINA RESULT:      -6.3      3.206      5.298
REMARK  Name = 
REMARK  7 active torsions:
REMARK  status: ('A' for Active; 'I' for Inactive)
REMARK    1  A    between atoms: C_1  and  C_2
REMARK    2  A    between atoms: C_2  and  N_3
REMARK    3  A    between atoms: C_6  and  O_7
REMARK    4  A    between atoms: O_7  and  C_8
REMARK    5  A    between atoms: C_8  and  C_9
REMARK    6  A    between atoms: C_23  and  C_24
REMARK    7  A    between atoms: C_23  and  C_25
REMARK                            x       y       z     vdW  Elec       q    Type
REMARK                         _______ _______ _______ _____ _____    ______ ____
ROOT
ATOM      1  N   UNL     1      -0.289  11.750  19.275  0.00  0.00    +0.000 N 
ATOM      2  C   UNL     1      -1.676  11.821  19.196  0.00  0.00    +0.000 A 
ATOM      3  N   UNL     1      -2.221  11.453  18.036  0.00  0.00    +0.000 NA
ATOM      4  C   UNL     1      -3.561  11.554  17.961  0.00  0.00    +0.000 A 
ATOM      5  C   UNL     1      -4.402  11.966  18.988  0.00  0.00    +0.000 A 
ATOM      6  C   UNL     1      -3.730  12.320  20.142  0.00  0.00    +0.000 A 
ATOM      7  N   UNL     1      -2.383  12.246  20.247  0.00  0.00    +0.000 NA
ATOM      8  C   UNL     1      -4.437  12.822  21.333  0.00  0.00    +0.000 A 
ATOM      9  C   UNL     1      -3.751  13.244  22.490  0.00  0.00    +0.000 A 
ATOM     10  C   UNL     1      -4.431  13.711  23.619  0.00  0.00    +0.000 A 
ATOM     11  C   UNL     1      -5.818  13.771  23.617  0.00  0.00    +0.000 A 
ATOM     12  C   UNL     1      -6.517  13.366  22.487  0.00  0.00    +0.000 A 
ATOM     13  C   UNL     1      -5.837  12.896  21.348  0.00  0.00    +0.000 A 
ATOM     14  C   UNL     1      -6.660  12.421  20.185  0.00  0.00    +0.000 C 
ATOM     15  C   UNL     1      -5.918  12.031  18.866  0.00  0.00    +0.000 C 
ATOM     16  C   UNL     1      -6.321  13.070  17.793  0.00  0.00    +0.000 C 
ATOM     17  C   UNL     1      -6.472  10.635  18.471  0.00  0.00    +0.000 C 
ATOM     18  H   UNL     1       0.018  11.131  18.537  0.00  0.00    +0.000 HD
ENDROOT
BRANCH   1  20
ATOM     19  C   UNL     1       0.371   9.969  20.796  0.00  0.00    +0.000 C 
ATOM     20  C   UNL     1       0.216  11.470  20.607  0.00  0.00    +0.000 C 
ENDBRANCH   1  20
BRANCH   4  21
ATOM     21  O   UNL     1      -4.141  11.350  16.731  0.00  0.00    +0.000 OA
BRANCH  21  22
ATOM     22  C   UNL     1      -3.259  11.381  15.610  0.00  0.00    +0.000 C 
BRANCH  22  23
ATOM     23  C   UNL     1      -3.313  10.029  14.902  0.00  0.00    +0.000 C 
ATOM     24  F   UNL     1      -2.388   9.917  13.918  0.00  0.00    +0.000 F 
ATOM     25  F   UNL     1      -3.102   9.010  15.766  0.00  0.00    +0.000 F 
ATOM     26  F   UNL     1      -4.523   9.827  14.328  0.00  0.00    +0.000 F 
ENDBRANCH  22  23
ENDBRANCH  21  22
ENDBRANCH   4  21
TORSDOF 4
ENDMDL
MODEL 7
REMARK VINA RESULT:      -6.2      3.246      3.636
REMARK  Name = 
REMARK  7 active torsions:
REMARK  status: ('A' for Active; 'I' for Inactive)
REMARK    1  A    between atoms: C_1  and  C_2
REMARK    2  A    between atoms: C_2  and  N_3
REMARK    3  A    between atoms: C_6  and  O_7
REMARK    4  A    between atoms: O_7  and  C_8
REMARK    5  A    between atoms: C_8  and  C_9
REMARK    6  A    between atoms: C_23  and  C_24
REMARK    7  A    between atoms: C_23  and  C_25
REMARK                            x       y       z     vdW  Elec       q    Type
REMARK                         _______ _______ _______ _____ _____    ______ ____
ROOT
ATOM      1  N   UNL     1      -2.200  10.941  16.293  0.00  0.00    +0.000 N 
ATOM      2  C   UNL     1      -2.371  11.544  17.536  0.00  0.00    +0.000 A 
ATOM      3  N   UNL     1      -1.287  12.103  18.075  0.00  0.00    +0.000 NA
ATOM      4  C   UNL     1      -1.456  12.656  19.289  0.00  0.00    +0.000 A 
ATOM      5  C   UNL     1      -2.656  12.722  19.990  0.00  0.00    +0.000 A 
ATOM      6  C   UNL     1      -3.710  12.114  19.337  0.00  0.00    +0.000 A 
ATOM      7  N   UNL     1      -3.571  11.534  18.122  0.00  0.00    +0.000 NA
ATOM      8  C   UNL     1      -5.057  12.041  19.930  0.00  0.00    +0.000 A 
ATOM      9  C   UNL     1      -6.120  11.366  19.295  0.00  0.00    +0.000 A 
ATOM     10  C   UNL     1      -7.397  11.309  19.862  0.00  0.00    +0.000 A 
ATOM     11  C   UNL     1      -7.641  11.923  21.083  0.00  0.00    +0.000 A 
ATOM     12  C   UNL     1      -6.609  12.589  21.731  0.00  0.00    +0.000 A 
ATOM     13  C   UNL     1      -5.321  12.649  21.164  0.00  0.00    +0.000 A 
ATOM     14  C   UNL     1      -4.270  13.435  21.894  0.00  0.00    +0.000 C 
ATOM     15  C   UNL     1      -2.806  13.391  21.349  0.00  0.00    +0.000 C 
ATOM     16  C   UNL     1      -1.950  12.651  22.404  0.00  0.00    +0.000 C 
ATOM     17  C   UNL     1      -2.348  14.872  21.257  0.00  0.00    +0.000 C 
ATOM     18  H   UNL     1      -1.352  11.320  15.895  0.00  0.00    +0.000 HD
ENDROOT
BRANCH   1  20
ATOM     19  C   UNL     1      -3.201  10.031  14.271  0.00  0.00    +0.000 C 
ATOM     20  C   UNL     1      -3.382  10.973  15.451  0.00  0.00    +0.000 C 
ENDBRANCH   1  20
BRANCH   4  21
ATOM     21  O   UNL     1      -0.330  13.087  19.949  0.00  0.00    +0.000 OA
BRANCH  21  22
ATOM     22  C   UNL     1       0.751  13.518  19.126  0.00  0.00    +0.000 C 
BRANCH  22  23
ATOM     23  C   UNL     1       0.714  15.041  19.018  0.00  0.00    +0.000 C 
ATOM     24  F   UNL     1      -0.392  15.492  18.377  0.00  0.00    +0.000 F 
ATOM     25  F   UNL     1       0.734  15.624  20.239  0.00  0.00    +0.000 F 
ATOM     26  F   UNL     1       1.784  15.507  18.331  0.00  0.00    +0.000 F 
ENDBRANCH  22  23
ENDBRANCH  21  22
ENDBRANCH   4  21
TORSDOF 4
ENDMDL
MODEL 8
REMARK VINA RESULT:      -6.2      3.272      5.264
REMARK  Name = 
REMARK  7 active torsions:
REMARK  status: ('A' for Active; 'I' for Inactive)
REMARK    1  A    between atoms: C_1  and  C_2
REMARK    2  A    between atoms: C_2  and  N_3
REMARK    3  A    between atoms: C_6  and  O_7
REMARK    4  A    between atoms: O_7  and  C_8
REMARK    5  A    between atoms: C_8  and  C_9
REMARK    6  A    between atoms: C_23  and  C_24
REMARK    7  A    between atoms: C_23  and  C_25
REMARK                            x       y       z     vdW  Elec       q    Type
REMARK                         _______ _______ _______ _____ _____    ______ ____
ROOT
ATOM      1  N   UNL     1       0.065  11.715  18.575  0.00  0.00    +0.000 N 
ATOM      2  C   UNL     1      -1.320  11.763  18.700  0.00  0.00    +0.000 A 
ATOM      3  N   UNL     1      -2.023  11.380  17.633  0.00  0.00    +0.000 NA
ATOM      4  C   UNL     1      -3.360  11.459  17.755  0.00  0.00    +0.000 A 
ATOM      5  C   UNL     1      -4.048  11.864  18.893  0.00  0.00    +0.000 A 
ATOM      6  C   UNL     1      -3.221  12.236  19.934  0.00  0.00    +0.000 A 
ATOM      7  N   UNL     1      -1.872  12.184  19.841  0.00  0.00    +0.000 NA
ATOM      8  C   UNL     1      -3.754  12.734  21.214  0.00  0.00    +0.000 A 
ATOM      9  C   UNL     1      -2.913  13.175  22.257  0.00  0.00    +0.000 A 
ATOM     10  C   UNL     1      -3.428  13.638  23.471  0.00  0.00    +0.000 A 
ATOM     11  C   UNL     1      -4.801  13.676  23.672  0.00  0.00    +0.000 A 
ATOM     12  C   UNL     1      -5.652  13.253  22.658  0.00  0.00    +0.000 A 
ATOM     13  C   UNL     1      -5.137  12.786  21.433  0.00  0.00    +0.000 A 
ATOM     14  C   UNL     1      -6.114  12.291  20.406  0.00  0.00    +0.000 C 
ATOM     15  C   UNL     1      -5.567  11.904  18.994  0.00  0.00    +0.000 C 
ATOM     16  C   UNL     1      -6.140  12.930  17.987  0.00  0.00    +0.000 C 
ATOM     17  C   UNL     1      -6.149  10.498  18.690  0.00  0.00    +0.000 C 
ATOM     18  H   UNL     1       0.271  11.096  17.803  0.00  0.00    +0.000 HD
ENDROOT
BRANCH   1  20
ATOM     19  C   UNL     1       1.664  12.628  20.166  0.00  0.00    +0.000 C 
ATOM     20  C   UNL     1       0.764  11.452  19.820  0.00  0.00    +0.000 C 
ENDBRANCH   1  20
BRANCH   4  21
ATOM     21  O   UNL     1      -4.110  11.238  16.624  0.00  0.00    +0.000 OA
BRANCH  21  22
ATOM     22  C   UNL     1      -3.422  11.365  15.382  0.00  0.00    +0.000 C 
BRANCH  22  23
ATOM     23  C   UNL     1      -3.391  10.002  14.692  0.00  0.00    +0.000 C 
ATOM     24  F   UNL     1      -4.555   9.708  14.064  0.00  0.00    +0.000 F 
ATOM     25  F   UNL     1      -2.408   9.941  13.764  0.00  0.00    +0.000 F 
ATOM     26  F   UNL     1      -3.165   9.010  15.585  0.00  0.00    +0.000 F 
ENDBRANCH  22  23
ENDBRANCH  21  22
ENDBRANCH   4  21
TORSDOF 4
ENDMDL
MODEL 9
REMARK VINA RESULT:      -6.2      1.641      2.097
REMARK  Name = 
REMARK  7 active torsions:
REMARK  status: ('A' for Active; 'I' for Inactive)
REMARK    1  A    between atoms: C_1  and  C_2
REMARK    2  A    between atoms: C_2  and  N_3
REMARK    3  A    between atoms: C_6  and  O_7
REMARK    4  A    between atoms: O_7  and  C_8
REMARK    5  A    between atoms: C_8  and  C_9
REMARK    6  A    between atoms: C_23  and  C_24
REMARK    7  A    between atoms: C_23  and  C_25
REMARK                            x       y       z     vdW  Elec       q    Type
REMARK                         _______ _______ _______ _____ _____    ______ ____
ROOT
ATOM      1  N   UNL     1      -2.471   9.810  16.071  0.00  0.00    +0.000 N 
ATOM      2  C   UNL     1      -1.946  10.266  17.276  0.00  0.00    +0.000 A 
ATOM      3  N   UNL     1      -0.709   9.864  17.571  0.00  0.00    +0.000 NA
ATOM      4  C   UNL     1      -0.223  10.286  18.752  0.00  0.00    +0.000 A 
ATOM      5  C   UNL     1      -0.881  11.121  19.649  0.00  0.00    +0.000 A 
ATOM      6  C   UNL     1      -2.152  11.474  19.240  0.00  0.00    +0.000 A 
ATOM      7  N   UNL     1      -2.679  11.055  18.066  0.00  0.00    +0.000 NA
ATOM      8  C   UNL     1      -3.030  12.321  20.068  0.00  0.00    +0.000 A 
ATOM      9  C   UNL     1      -4.350  12.633  19.684  0.00  0.00    +0.000 A 
ATOM     10  C   UNL     1      -5.173  13.444  20.472  0.00  0.00    +0.000 A 
ATOM     11  C   UNL     1      -4.695  13.960  21.669  0.00  0.00    +0.000 A 
ATOM     12  C   UNL     1      -3.399  13.663  22.072  0.00  0.00    +0.000 A 
ATOM     13  C   UNL     1      -2.567  12.847  21.282  0.00  0.00    +0.000 A 
ATOM     14  C   UNL     1      -1.160  12.616  21.752  0.00  0.00    +0.000 C 
ATOM     15  C   UNL     1      -0.275  11.600  20.960  0.00  0.00    +0.000 C 
ATOM     16  C   UNL     1      -0.014  10.397  21.897  0.00  0.00    +0.000 C 
ATOM     17  C   UNL     1       1.061  12.339  20.679  0.00  0.00    +0.000 C 
ATOM     18  H   UNL     1      -1.690   9.515  15.501  0.00  0.00    +0.000 HD
ENDROOT
BRANCH   1  20
ATOM     19  C   UNL     1      -3.867  10.168  14.110  0.00  0.00    +0.000 C 
ATOM     20  C   UNL     1      -3.416  10.722  15.452  0.00  0.00    +0.000 C 
ENDBRANCH   1  20
BRANCH   4  21
ATOM     21  O   UNL     1       0.975   9.755  19.167  0.00  0.00    +0.000 OA
BRANCH  21  22
ATOM     22  C   UNL     1       1.937   9.503  18.145  0.00  0.00    +0.000 C 
BRANCH  22  23
ATOM     23  C   UNL     1       2.421   8.060  18.265  0.00  0.00    +0.000 C 
ATOM     24  F   UNL     1       3.655   7.877  17.736  0.00  0.00    +0.000 F 
ATOM     25  F   UNL     1       2.478   7.665  19.558  0.00  0.00    +0.000 F 
ATOM     26  F   UNL     1       1.587   7.211  17.620  0.00  0.00    +0.000 F 
ENDBRANCH  22  23
ENDBRANCH  21  22
ENDBRANCH   4  21
TORSDOF 4
ENDMDL
