MODEL 1
REMARK VINA RESULT:      -7.8      0.000      0.000
REMARK  Name = 
REMARK  9 active torsions:
REMARK  status: ('A' for Active; 'I' for Inactive)
REMARK    1  A    between atoms: C_1  and  C_2
REMARK    2  A    between atoms: C_2  and  C_3
REMARK    3  A    between atoms: C_2  and  N_4
REMARK    4  A    between atoms: C_7  and  N_8
REMARK    5  A    between atoms: N_11  and  C_12
REMARK    6  A    between atoms: C_12  and  C_13
REMARK    7  A    between atoms: C_23  and  C_24
REMARK    8  A    between atoms: C_24  and  C_25
REMARK    9  A    between atoms: C_25  and  O_26
REMARK                            x       y       z     vdW  Elec       q    Type
REMARK                         _______ _______ _______ _____ _____    ______ ____
ROOT
ATOM      1  N   UNL     1       3.867   4.083  17.842  0.00  0.00    +0.000 NA
ATOM      2  C   UNL     1       4.574   4.599  19.044  0.00  0.00    +0.000 C 
ATOM      3  C   UNL     1       4.309   6.076  19.466  0.00  0.00    +0.000 C 
ATOM      4  N   UNL     1       2.977   6.653  19.203  0.00  0.00    +0.000 NA
ATOM      5  C   UNL     1       2.327   6.020  18.055  0.00  0.00    +0.000 C 
ATOM      6  C   UNL     1       2.450   4.485  17.917  0.00  0.00    +0.000 C 
ENDROOT
BRANCH   1  10
ATOM      7  N   UNL     1       7.107   6.099  16.640  0.00  0.00    +0.000 NA
ATOM      8  C   UNL     1       7.235   4.635  16.628  0.00  0.00    +0.000 C 
ATOM      9  C   UNL     1       6.018   3.768  16.243  0.00  0.00    +0.000 C 
ATOM     10  C   UNL     1       4.608   4.315  16.556  0.00  0.00    +0.000 C 
ATOM     11  C   UNL     1       4.622   5.774  16.075  0.00  0.00    +0.000 C 
ATOM     12  C   UNL     1       5.741   6.631  16.661  0.00  0.00    +0.000 C 
BRANCH   7  14
ATOM     13  C   UNL     1       7.732   8.238  17.833  0.00  0.00    +0.000 C 
ATOM     14  C   UNL     1       7.985   6.728  17.675  0.00  0.00    +0.000 C 
ATOM     15  C   UNL     1       7.857   6.109  19.080  0.00  0.00    +0.000 C 
ENDBRANCH   7  14
ENDBRANCH   1  10
BRANCH   4  16
ATOM     16  C   UNL     1       2.069   6.764  20.335  0.00  0.00    +0.000 C 
BRANCH  16  17
ATOM     17  C   UNL     1       1.400   8.114  20.462  0.00  0.00    +0.000 A 
ATOM     18  C   UNL     1       1.333   8.937  19.303  0.00  0.00    +0.000 A 
ATOM     19  C   UNL     1       0.790  10.231  19.296  0.00  0.00    +0.000 A 
ATOM     20  C   UNL     1       0.294  10.701  20.537  0.00  0.00    +0.000 A 
ATOM     21  N   UNL     1      -0.262  11.899  20.752  0.00  0.00    +0.000 NA
ATOM     22  S   UNL     1      -0.655  11.946  22.363  0.00  0.00    +0.000 S 
ATOM     23  N   UNL     1      -0.141  10.448  22.867  0.00  0.00    +0.000 NA
ATOM     24  C   UNL     1       0.368   9.844  21.771  0.00  0.00    +0.000 A 
ATOM     25  C   UNL     1       0.929   8.548  21.724  0.00  0.00    +0.000 A 
ENDBRANCH  16  17
ENDBRANCH   4  16
BRANCH   6  26
ATOM     26  C   UNL     1       1.643   3.770  19.041  0.00  0.00    +0.000 C 
BRANCH  26  27
ATOM     27  C   UNL     1       1.152   2.358  18.741  0.00  0.00    +0.000 C 
BRANCH  27  28
ATOM     28  O   UNL     1       2.121   1.610  18.026  0.00  0.00    +0.000 OA
ATOM     29  H   UNL     1       2.971   2.080  18.146  0.00  0.00    +0.000 HD
ENDBRANCH  27  28
ENDBRANCH  26  27
ENDBRANCH   6  26
TORSDOF 7
ENDMDL
MODEL 2
REMARK VINA RESULT:      -7.8      0.750      1.387
REMARK  Name = 
REMARK  9 active torsions:
REMARK  status: ('A' for Active; 'I' for Inactive)
REMARK    1  A    between atoms: C_1  and  C_2
REMARK    2  A    between atoms: C_2  and  C_3
REMARK    3  A    between atoms: C_2  and  N_4
REMARK    4  A    between atoms: C_7  and  N_8
REMARK    5  A    between atoms: N_11  and  C_12
REMARK    6  A    between atoms: C_12  and  C_13
REMARK    7  A    between atoms: C_23  and  C_24
REMARK    8  A    between atoms: C_24  and  C_25
REMARK    9  A    between atoms: C_25  and  O_26
REMARK                            x       y       z     vdW  Elec       q    Type
REMARK                         _______ _______ _______ _____ _____    ______ ____
ROOT
ATOM      1  N   UNL     1       3.857   3.976  17.711  0.00  0.00    +0.000 NA
ATOM      2  C   UNL     1       4.558   4.456  18.932  0.00  0.00    +0.000 C 
ATOM      3  C   UNL     1       4.325   5.933  19.370  0.00  0.00    +0.000 C 
ATOM      4  N   UNL     1       3.014   6.549  19.095  0.00  0.00    +0.000 NA
ATOM      5  C   UNL     1       2.367   5.951  17.927  0.00  0.00    +0.000 C 
ATOM      6  C   UNL     1       2.451   4.415  17.768  0.00  0.00    +0.000 C 
ENDROOT
BRANCH   1  10
ATOM      7  N   UNL     1       7.074   6.058  16.558  0.00  0.00    +0.000 NA
ATOM      8  C   UNL     1       7.241   4.597  16.575  0.00  0.00    +0.000 C 
ATOM      9  C   UNL     1       6.058   3.692  16.173  0.00  0.00    +0.000 C 
ATOM     10  C   UNL     1       4.626   4.206  16.441  0.00  0.00    +0.000 C 
ATOM     11  C   UNL     1       4.614   5.657  15.934  0.00  0.00    +0.000 C 
ATOM     12  C   UNL     1       5.695   6.553  16.534  0.00  0.00    +0.000 C 
BRANCH   7  14
ATOM     13  C   UNL     1       7.579   8.224  17.761  0.00  0.00    +0.000 C 
ATOM     14  C   UNL     1       7.907   6.728  17.605  0.00  0.00    +0.000 C 
ATOM     15  C   UNL     1       7.792   6.101  19.008  0.00  0.00    +0.000 C 
ENDBRANCH   7  14
ENDBRANCH   1  10
BRANCH   4  16
ATOM     16  C   UNL     1       2.090   6.669  20.213  0.00  0.00    +0.000 C 
BRANCH  16  17
ATOM     17  C   UNL     1       1.566   8.069  20.436  0.00  0.00    +0.000 A 
ATOM     18  C   UNL     1       1.143   8.423  21.747  0.00  0.00    +0.000 A 
ATOM     19  C   UNL     1       0.586   9.669  22.077  0.00  0.00    +0.000 A 
ATOM     20  C   UNL     1       0.456  10.592  21.010  0.00  0.00    +0.000 A 
ATOM     21  N   UNL     1      -0.045  11.829  21.104  0.00  0.00    +0.000 NA
ATOM     22  S   UNL     1       0.021  12.474  19.577  0.00  0.00    +0.000 S 
ATOM     23  N   UNL     1       0.691  11.216  18.721  0.00  0.00    +0.000 NA
ATOM     24  C   UNL     1       0.892  10.226  19.618  0.00  0.00    +0.000 A 
ATOM     25  C   UNL     1       1.443   8.955  19.338  0.00  0.00    +0.000 A 
ENDBRANCH  16  17
ENDBRANCH   4  16
BRANCH   6  26
ATOM     26  C   UNL     1       1.606   3.706  18.869  0.00  0.00    +0.000 C 
BRANCH  26  27
ATOM     27  C   UNL     1       1.269   2.237  18.635  0.00  0.00    +0.000 C 
BRANCH  27  28
ATOM     28  O   UNL     1       2.435   1.431  18.622  0.00  0.00    +0.000 OA
ATOM     29  H   UNL     1       2.924   1.646  19.441  0.00  0.00    +0.000 HD
ENDBRANCH  27  28
ENDBRANCH  26  27
ENDBRANCH   6  26
TORSDOF 7
ENDMDL
MODEL 3
REMARK VINA RESULT:      -7.1      4.169      9.471
REMARK  Name = 
REMARK  9 active torsions:
REMARK  status: ('A' for Active; 'I' for Inactive)
REMARK    1  A    between atoms: C_1  and  C_2
REMARK    2  A    between atoms: C_2  and  C_3
REMARK    3  A    between atoms: C_2  and  N_4
REMARK    4  A    between atoms: C_7  and  N_8
REMARK    5  A    between atoms: N_11  and  C_12
REMARK    6  A    between atoms: C_12  and  C_13
REMARK    7  A    between atoms: C_23  and  C_24
REMARK    8  A    between atoms: C_24  and  C_25
REMARK    9  A    between atoms: C_25  and  O_26
REMARK                            x       y       z     vdW  Elec       q    Type
REMARK                         _______ _______ _______ _____ _____    ______ ____
ROOT
ATOM      1  N   UNL     1      -0.569  12.013  19.552  0.00  0.00    +0.000 NA
ATOM      2  C   UNL     1       0.592  12.280  18.662  0.00  0.00    +0.000 C 
ATOM      3  C   UNL     1       1.795  11.291  18.720  0.00  0.00    +0.000 C 
ATOM      4  N   UNL     1       1.525   9.873  19.021  0.00  0.00    +0.000 NA
ATOM      5  C   UNL     1       0.317   9.709  19.828  0.00  0.00    +0.000 C 
ATOM      6  C   UNL     1      -0.910  10.582  19.471  0.00  0.00    +0.000 C 
ENDROOT
BRANCH   1  10
ATOM      7  N   UNL     1      -3.017  13.626  22.276  0.00  0.00    +0.000 NA
ATOM      8  C   UNL     1      -2.419  12.337  22.651  0.00  0.00    +0.000 C 
ATOM      9  C   UNL     1      -0.972  12.016  22.221  0.00  0.00    +0.000 C 
ATOM     10  C   UNL     1      -0.447  12.643  20.911  0.00  0.00    +0.000 C 
ATOM     11  C   UNL     1      -0.857  14.122  20.975  0.00  0.00    +0.000 C 
ATOM     12  C   UNL     1      -2.348  14.364  21.200  0.00  0.00    +0.000 C 
BRANCH   7  14
ATOM     13  C   UNL     1      -4.860  12.654  20.845  0.00  0.00    +0.000 C 
ATOM     14  C   UNL     1      -4.494  13.517  22.066  0.00  0.00    +0.000 C 
ATOM     15  C   UNL     1      -5.267  12.938  23.266  0.00  0.00    +0.000 C 
ENDBRANCH   7  14
ENDBRANCH   1  10
BRANCH   4  16
ATOM     16  C   UNL     1       1.548   8.943  17.901  0.00  0.00    +0.000 C 
BRANCH  16  17
ATOM     17  C   UNL     1       2.519   7.796  18.070  0.00  0.00    +0.000 A 
ATOM     18  C   UNL     1       3.711   7.810  17.293  0.00  0.00    +0.000 A 
ATOM     19  C   UNL     1       4.666   6.782  17.312  0.00  0.00    +0.000 A 
ATOM     20  C   UNL     1       4.384   5.690  18.169  0.00  0.00    +0.000 A 
ATOM     21  N   UNL     1       5.157   4.610  18.339  0.00  0.00    +0.000 NA
ATOM     22  S   UNL     1       4.367   3.641  19.430  0.00  0.00    +0.000 S 
ATOM     23  N   UNL     1       3.006   4.545  19.742  0.00  0.00    +0.000 NA
ATOM     24  C   UNL     1       3.123   5.660  18.989  0.00  0.00    +0.000 A 
ATOM     25  C   UNL     1       2.191   6.719  18.929  0.00  0.00    +0.000 A 
ENDBRANCH  16  17
ENDBRANCH   4  16
BRANCH   6  26
ATOM     26  C   UNL     1      -1.507  10.145  18.100  0.00  0.00    +0.000 C 
BRANCH  26  27
ATOM     27  C   UNL     1      -2.887  10.691  17.748  0.00  0.00    +0.000 C 
BRANCH  27  28
ATOM     28  O   UNL     1      -2.899  12.109  17.737  0.00  0.00    +0.000 OA
ATOM     29  H   UNL     1      -2.231  12.382  17.077  0.00  0.00    +0.000 HD
ENDBRANCH  27  28
ENDBRANCH  26  27
ENDBRANCH   6  26
TORSDOF 7
ENDMDL
MODEL 4
REMARK VINA RESULT:      -7.1      1.962      4.480
REMARK  Name = 
REMARK  9 active torsions:
REMARK  status: ('A' for Active; 'I' for Inactive)
REMARK    1  A    between atoms: C_1  and  C_2
REMARK    2  A    between atoms: C_2  and  C_3
REMARK    3  A    between atoms: C_2  and  N_4
REMARK    4  A    between atoms: C_7  and  N_8
REMARK    5  A    between atoms: N_11  and  C_12
REMARK    6  A    between atoms: C_12  and  C_13
REMARK    7  A    between atoms: C_23  and  C_24
REMARK    8  A    between atoms: C_24  and  C_25
REMARK    9  A    between atoms: C_25  and  O_26
REMARK                            x       y       z     vdW  Elec       q    Type
REMARK                         _______ _______ _______ _____ _____    ______ ____
ROOT
ATOM      1  N   UNL     1       5.035   3.777  17.820  0.00  0.00    +0.000 NA
ATOM      2  C   UNL     1       3.913   4.102  16.899  0.00  0.00    +0.000 C 
ATOM      3  C   UNL     1       2.736   4.956  17.460  0.00  0.00    +0.000 C 
ATOM      4  N   UNL     1       3.029   5.959  18.500  0.00  0.00    +0.000 NA
ATOM      5  C   UNL     1       4.199   5.591  19.297  0.00  0.00    +0.000 C 
ATOM      6  C   UNL     1       5.418   4.998  18.551  0.00  0.00    +0.000 C 
ENDROOT
BRANCH   1  10
ATOM      7  N   UNL     1       2.173   2.173  20.112  0.00  0.00    +0.000 NA
ATOM      8  C   UNL     1       2.384   1.516  18.814  0.00  0.00    +0.000 C 
ATOM      9  C   UNL     1       3.811   1.407  18.239  0.00  0.00    +0.000 C 
ATOM     10  C   UNL     1       4.827   2.511  18.603  0.00  0.00    +0.000 C 
ATOM     11  C   UNL     1       4.686   2.709  20.121  0.00  0.00    +0.000 C 
ATOM     12  C   UNL     1       3.268   3.017  20.597  0.00  0.00    +0.000 C 
BRANCH   7  14
ATOM     13  C   UNL     1       0.949   4.310  20.681  0.00  0.00    +0.000 C 
ATOM     14  C   UNL     1       0.845   2.857  20.183  0.00  0.00    +0.000 C 
ATOM     15  C   UNL     1       0.078   2.901  18.847  0.00  0.00    +0.000 C 
ENDBRANCH   7  14
ENDBRANCH   1  10
BRANCH   4  16
ATOM     16  C   UNL     1       3.087   7.351  18.079  0.00  0.00    +0.000 C 
BRANCH  16  17
ATOM     17  C   UNL     1       2.097   8.252  18.781  0.00  0.00    +0.000 A 
ATOM     18  C   UNL     1       1.496   9.299  18.027  0.00  0.00    +0.000 A 
ATOM     19  C   UNL     1       0.605  10.238  18.571  0.00  0.00    +0.000 A 
ATOM     20  C   UNL     1       0.319  10.095  19.950  0.00  0.00    +0.000 A 
ATOM     21  N   UNL     1      -0.500  10.877  20.663  0.00  0.00    +0.000 NA
ATOM     22  S   UNL     1      -0.471  10.288  22.215  0.00  0.00    +0.000 S 
ATOM     23  N   UNL     1       0.581   9.010  22.057  0.00  0.00    +0.000 NA
ATOM     24  C   UNL     1       0.955   8.997  20.759  0.00  0.00    +0.000 A 
ATOM     25  C   UNL     1       1.850   8.080  20.164  0.00  0.00    +0.000 A 
ENDBRANCH  16  17
ENDBRANCH   4  16
BRANCH   6  26
ATOM     26  C   UNL     1       6.095   6.086  17.664  0.00  0.00    +0.000 C 
BRANCH  26  27
ATOM     27  C   UNL     1       7.456   5.737  17.072  0.00  0.00    +0.000 C 
BRANCH  27  28
ATOM     28  O   UNL     1       7.781   4.373  17.280  0.00  0.00    +0.000 OA
ATOM     29  H   UNL     1       8.758   4.318  17.254  0.00  0.00    +0.000 HD
ENDBRANCH  27  28
ENDBRANCH  26  27
ENDBRANCH   6  26
TORSDOF 7
ENDMDL
MODEL 5
REMARK VINA RESULT:      -7.1      4.291      9.675
REMARK  Name = 
REMARK  9 active torsions:
REMARK  status: ('A' for Active; 'I' for Inactive)
REMARK    1  A    between atoms: C_1  and  C_2
REMARK    2  A    between atoms: C_2  and  C_3
REMARK    3  A    between atoms: C_2  and  N_4
REMARK    4  A    between atoms: C_7  and  N_8
REMARK    5  A    between atoms: N_11  and  C_12
REMARK    6  A    between atoms: C_12  and  C_13
REMARK    7  A    between atoms: C_23  and  C_24
REMARK    8  A    between atoms: C_24  and  C_25
REMARK    9  A    between atoms: C_25  and  O_26
REMARK                            x       y       z     vdW  Elec       q    Type
REMARK                         _______ _______ _______ _____ _____    ______ ____
ROOT
ATOM      1  N   UNL     1      -0.597  12.225  19.519  0.00  0.00    +0.000 NA
ATOM      2  C   UNL     1       0.628  12.421  18.698  0.00  0.00    +0.000 C 
ATOM      3  C   UNL     1       1.774  11.375  18.840  0.00  0.00    +0.000 C 
ATOM      4  N   UNL     1       1.415   9.976  19.140  0.00  0.00    +0.000 NA
ATOM      5  C   UNL     1       0.153   9.884  19.875  0.00  0.00    +0.000 C 
ATOM      6  C   UNL     1      -1.003  10.811  19.434  0.00  0.00    +0.000 C 
ENDROOT
BRANCH   1  10
ATOM      7  N   UNL     1      -3.152  13.274  22.414  0.00  0.00    +0.000 NA
ATOM      8  C   UNL     1      -2.267  12.144  22.733  0.00  0.00    +0.000 C 
ATOM      9  C   UNL     1      -0.817  12.143  22.208  0.00  0.00    +0.000 C 
ATOM     10  C   UNL     1      -0.525  12.867  20.876  0.00  0.00    +0.000 C 
ATOM     11  C   UNL     1      -1.239  14.223  20.986  0.00  0.00    +0.000 C 
ATOM     12  C   UNL     1      -2.730  14.137  21.308  0.00  0.00    +0.000 C 
BRANCH   7  14
ATOM     13  C   UNL     1      -5.368  13.037  23.607  0.00  0.00    +0.000 C 
ATOM     14  C   UNL     1      -4.582  12.848  22.297  0.00  0.00    +0.000 C 
ATOM     15  C   UNL     1      -5.375  13.577  21.196  0.00  0.00    +0.000 C 
ENDBRANCH   7  14
ENDBRANCH   1  10
BRANCH   4  16
ATOM     16  C   UNL     1       1.459   9.030  18.035  0.00  0.00    +0.000 C 
BRANCH  16  17
ATOM     17  C   UNL     1       2.373   7.849  18.267  0.00  0.00    +0.000 A 
ATOM     18  C   UNL     1       2.142   7.042  19.416  0.00  0.00    +0.000 A 
ATOM     19  C   UNL     1       2.949   5.952  19.777  0.00  0.00    +0.000 A 
ATOM     20  C   UNL     1       4.044   5.680  18.920  0.00  0.00    +0.000 A 
ATOM     21  N   UNL     1       4.933   4.692  19.079  0.00  0.00    +0.000 NA
ATOM     22  S   UNL     1       6.003   4.825  17.817  0.00  0.00    +0.000 S 
ATOM     23  N   UNL     1       5.389   6.140  17.007  0.00  0.00    +0.000 NA
ATOM     24  C   UNL     1       4.303   6.531  17.708  0.00  0.00    +0.000 A 
ATOM     25  C   UNL     1       3.462   7.621  17.391  0.00  0.00    +0.000 A 
ENDBRANCH  16  17
ENDBRANCH   4  16
BRANCH   6  26
ATOM     26  C   UNL     1      -1.539  10.386  18.033  0.00  0.00    +0.000 C 
BRANCH  26  27
ATOM     27  C   UNL     1      -2.649  11.242  17.435  0.00  0.00    +0.000 C 
BRANCH  27  28
ATOM     28  O   UNL     1      -3.173  12.155  18.385  0.00  0.00    +0.000 OA
ATOM     29  H   UNL     1      -2.460  12.307  19.037  0.00  0.00    +0.000 HD
ENDBRANCH  27  28
ENDBRANCH  26  27
ENDBRANCH   6  26
TORSDOF 7
ENDMDL
MODEL 6
REMARK VINA RESULT:      -7.0      2.257      4.350
REMARK  Name = 
REMARK  9 active torsions:
REMARK  status: ('A' for Active; 'I' for Inactive)
REMARK    1  A    between atoms: C_1  and  C_2
REMARK    2  A    between atoms: C_2  and  C_3
REMARK    3  A    between atoms: C_2  and  N_4
REMARK    4  A    between atoms: C_7  and  N_8
REMARK    5  A    between atoms: N_11  and  C_12
REMARK    6  A    between atoms: C_12  and  C_13
REMARK    7  A    between atoms: C_23  and  C_24
REMARK    8  A    between atoms: C_24  and  C_25
REMARK    9  A    between atoms: C_25  and  O_26
REMARK                            x       y       z     vdW  Elec       q    Type
REMARK                         _______ _______ _______ _____ _____    ______ ____
ROOT
ATOM      1  N   UNL     1       4.297   3.682  17.002  0.00  0.00    +0.000 NA
ATOM      2  C   UNL     1       2.880   4.085  16.797  0.00  0.00    +0.000 C 
ATOM      3  C   UNL     1       2.267   5.116  17.791  0.00  0.00    +0.000 C 
ATOM      4  N   UNL     1       3.151   6.142  18.375  0.00  0.00    +0.000 NA
ATOM      5  C   UNL     1       4.538   5.682  18.454  0.00  0.00    +0.000 C 
ATOM      6  C   UNL     1       5.102   4.891  17.252  0.00  0.00    +0.000 C 
ENDROOT
BRANCH   1  10
ATOM      7  N   UNL     1       2.794   2.454  20.501  0.00  0.00    +0.000 NA
ATOM      8  C   UNL     1       2.385   1.668  19.329  0.00  0.00    +0.000 C 
ATOM      9  C   UNL     1       3.391   1.430  18.183  0.00  0.00    +0.000 C 
ATOM     10  C   UNL     1       4.466   2.508  17.925  0.00  0.00    +0.000 C 
ATOM     11  C   UNL     1       5.035   2.854  19.309  0.00  0.00    +0.000 C 
ATOM     12  C   UNL     1       3.994   3.281  20.341  0.00  0.00    +0.000 C 
BRANCH   7  14
ATOM     13  C   UNL     1       2.005   4.673  21.419  0.00  0.00    +0.000 C 
ATOM     14  C   UNL     1       1.649   3.211  21.095  0.00  0.00    +0.000 C 
ATOM     15  C   UNL     1       0.385   3.248  20.214  0.00  0.00    +0.000 C 
ENDBRANCH   7  14
ENDBRANCH   1  10
BRANCH   4  16
ATOM     16  C   UNL     1       3.066   7.484  17.817  0.00  0.00    +0.000 C 
BRANCH  16  17
ATOM     17  C   UNL     1       2.161   8.417  18.588  0.00  0.00    +0.000 A 
ATOM     18  C   UNL     1       1.757   9.628  17.958  0.00  0.00    +0.000 A 
ATOM     19  C   UNL     1       0.965  10.604  18.582  0.00  0.00    +0.000 A 
ATOM     20  C   UNL     1       0.572  10.326  19.913  0.00  0.00    +0.000 A 
ATOM     21  N   UNL     1      -0.181  11.117  20.687  0.00  0.00    +0.000 NA
ATOM     22  S   UNL     1      -0.333  10.334  22.142  0.00  0.00    +0.000 S 
ATOM     23  N   UNL     1       0.546   8.952  21.861  0.00  0.00    +0.000 NA
ATOM     24  C   UNL     1       1.000   9.054  20.593  0.00  0.00    +0.000 A 
ATOM     25  C   UNL     1       1.802   8.105  19.922  0.00  0.00    +0.000 A 
ENDBRANCH  16  17
ENDBRANCH   4  16
BRANCH   6  26
ATOM     26  C   UNL     1       5.256   5.822  16.011  0.00  0.00    +0.000 C 
BRANCH  26  27
ATOM     27  C   UNL     1       6.072   5.279  14.844  0.00  0.00    +0.000 C 
BRANCH  27  28
ATOM     28  O   UNL     1       7.462   5.476  15.042  0.00  0.00    +0.000 OA
ATOM     29  H   UNL     1       7.760   6.063  14.318  0.00  0.00    +0.000 HD
ENDBRANCH  27  28
ENDBRANCH  26  27
ENDBRANCH   6  26
TORSDOF 7
ENDMDL
MODEL 7
REMARK VINA RESULT:      -6.9      3.847      6.631
REMARK  Name = 
REMARK  9 active torsions:
REMARK  status: ('A' for Active; 'I' for Inactive)
REMARK    1  A    between atoms: C_1  and  C_2
REMARK    2  A    between atoms: C_2  and  C_3
REMARK    3  A    between atoms: C_2  and  N_4
REMARK    4  A    between atoms: C_7  and  N_8
REMARK    5  A    between atoms: N_11  and  C_12
REMARK    6  A    between atoms: C_12  and  C_13
REMARK    7  A    between atoms: C_23  and  C_24
REMARK    8  A    between atoms: C_24  and  C_25
REMARK    9  A    between atoms: C_25  and  O_26
REMARK                            x       y       z     vdW  Elec       q    Type
REMARK                         _______ _______ _______ _____ _____    ______ ____
ROOT
ATOM      1  N   UNL     1       0.324   8.986  19.667  0.00  0.00    +0.000 NA
ATOM      2  C   UNL     1      -0.189   9.291  21.029  0.00  0.00    +0.000 C 
ATOM      3  C   UNL     1       0.039  10.727  21.588  0.00  0.00    +0.000 C 
ATOM      4  N   UNL     1       0.057  11.856  20.638  0.00  0.00    +0.000 NA
ATOM      5  C   UNL     1       0.493  11.438  19.306  0.00  0.00    +0.000 C 
ATOM      6  C   UNL     1      -0.043  10.092  18.764  0.00  0.00    +0.000 C 
ENDROOT
BRANCH   1  10
ATOM      7  N   UNL     1       2.216   5.496  19.162  0.00  0.00    +0.000 NA
ATOM      8  C   UNL     1       2.379   6.466  18.069  0.00  0.00    +0.000 C 
ATOM      9  C   UNL     1       2.478   7.971  18.396  0.00  0.00    +0.000 C 
ATOM     10  C   UNL     1       1.743   8.492  19.650  0.00  0.00    +0.000 C 
ATOM     11  C   UNL     1       2.092   7.498  20.768  0.00  0.00    +0.000 C 
ATOM     12  C   UNL     1       1.774   6.039  20.450  0.00  0.00    +0.000 C 
BRANCH   7  14
ATOM     13  C   UNL     1       2.165   3.421  17.720  0.00  0.00    +0.000 C 
ATOM     14  C   UNL     1       1.419   4.304  18.737  0.00  0.00    +0.000 C 
ATOM     15  C   UNL     1       0.988   3.381  19.893  0.00  0.00    +0.000 C 
ENDBRANCH   7  14
ENDBRANCH   1  10
BRANCH   4  16
ATOM     16  C   UNL     1      -1.138  12.685  20.573  0.00  0.00    +0.000 C 
BRANCH  16  17
ATOM     17  C   UNL     1      -1.580  13.239  21.908  0.00  0.00    +0.000 A 
ATOM     18  C   UNL     1      -2.899  12.941  22.351  0.00  0.00    +0.000 A 
ATOM     19  C   UNL     1      -3.452  13.438  23.542  0.00  0.00    +0.000 A 
ATOM     20  C   UNL     1      -2.612  14.279  24.312  0.00  0.00    +0.000 A 
ATOM     21  N   UNL     1      -2.938  14.855  25.475  0.00  0.00    +0.000 NA
ATOM     22  S   UNL     1      -1.613  15.736  25.944  0.00  0.00    +0.000 S 
ATOM     23  N   UNL     1      -0.559  15.428  24.696  0.00  0.00    +0.000 NA
ATOM     24  C   UNL     1      -1.219  14.608  23.850  0.00  0.00    +0.000 A 
ATOM     25  C   UNL     1      -0.711  14.085  22.639  0.00  0.00    +0.000 A 
ENDBRANCH  16  17
ENDBRANCH   4  16
BRANCH   6  26
ATOM     26  C   UNL     1      -1.570  10.194  18.469  0.00  0.00    +0.000 C 
BRANCH  26  27
ATOM     27  C   UNL     1      -1.974  10.914  17.187  0.00  0.00    +0.000 C 
BRANCH  27  28
ATOM     28  O   UNL     1      -2.794  12.039  17.457  0.00  0.00    +0.000 OA
ATOM     29  H   UNL     1      -2.720  12.205  18.418  0.00  0.00    +0.000 HD
ENDBRANCH  27  28
ENDBRANCH  26  27
ENDBRANCH   6  26
TORSDOF 7
ENDMDL
MODEL 8
REMARK VINA RESULT:      -6.9      2.107      4.564
REMARK  Name = 
REMARK  9 active torsions:
REMARK  status: ('A' for Active; 'I' for Inactive)
REMARK    1  A    between atoms: C_1  and  C_2
REMARK    2  A    between atoms: C_2  and  C_3
REMARK    3  A    between atoms: C_2  and  N_4
REMARK    4  A    between atoms: C_7  and  N_8
REMARK    5  A    between atoms: N_11  and  C_12
REMARK    6  A    between atoms: C_12  and  C_13
REMARK    7  A    between atoms: C_23  and  C_24
REMARK    8  A    between atoms: C_24  and  C_25
REMARK    9  A    between atoms: C_25  and  O_26
REMARK                            x       y       z     vdW  Elec       q    Type
REMARK                         _______ _______ _______ _____ _____    ______ ____
ROOT
ATOM      1  N   UNL     1       4.643   3.552  17.469  0.00  0.00    +0.000 NA
ATOM      2  C   UNL     1       3.518   4.137  16.691  0.00  0.00    +0.000 C 
ATOM      3  C   UNL     1       2.501   5.041  17.450  0.00  0.00    +0.000 C 
ATOM      4  N   UNL     1       2.988   5.847  18.585  0.00  0.00    +0.000 NA
ATOM      5  C   UNL     1       4.148   5.232  19.230  0.00  0.00    +0.000 C 
ATOM      6  C   UNL     1       5.228   4.605  18.319  0.00  0.00    +0.000 C 
ENDROOT
BRANCH   1  10
ATOM      7  N   UNL     1       2.381   2.194  20.478  0.00  0.00    +0.000 NA
ATOM      8  C   UNL     1       1.914   1.843  19.130  0.00  0.00    +0.000 C 
ATOM      9  C   UNL     1       2.944   1.529  18.025  0.00  0.00    +0.000 C 
ATOM     10  C   UNL     1       4.321   2.225  18.096  0.00  0.00    +0.000 C 
ATOM     11  C   UNL     1       4.777   2.075  19.556  0.00  0.00    +0.000 C 
ATOM     12  C   UNL     1       3.786   2.598  20.594  0.00  0.00    +0.000 C 
BRANCH   7  14
ATOM     13  C   UNL     1       2.193   4.239  21.952  0.00  0.00    +0.000 C 
ATOM     14  C   UNL     1       1.451   3.145  21.162  0.00  0.00    +0.000 C 
ATOM     15  C   UNL     1       0.472   3.868  20.218  0.00  0.00    +0.000 C 
ENDBRANCH   7  14
ENDBRANCH   1  10
BRANCH   4  16
ATOM     16  C   UNL     1       3.203   7.267  18.344  0.00  0.00    +0.000 C 
BRANCH  16  17
ATOM     17  C   UNL     1       2.200   8.169  19.026  0.00  0.00    +0.000 A 
ATOM     18  C   UNL     1       1.816   7.852  20.360  0.00  0.00    +0.000 A 
ATOM     19  C   UNL     1       0.855   8.573  21.086  0.00  0.00    +0.000 A 
ATOM     20  C   UNL     1       0.261   9.667  20.412  0.00  0.00    +0.000 A 
ATOM     21  N   UNL     1      -0.672  10.483  20.918  0.00  0.00    +0.000 NA
ATOM     22  S   UNL     1      -1.029  11.577  19.723  0.00  0.00    +0.000 S 
ATOM     23  N   UNL     1      -0.016  11.071  18.505  0.00  0.00    +0.000 NA
ATOM     24  C   UNL     1       0.651  10.006  19.000  0.00  0.00    +0.000 A 
ATOM     25  C   UNL     1       1.622   9.245  18.310  0.00  0.00    +0.000 A 
ENDBRANCH  16  17
ENDBRANCH   4  16
BRANCH   6  26
ATOM     26  C   UNL     1       5.986   5.714  17.529  0.00  0.00    +0.000 C 
BRANCH  26  27
ATOM     27  C   UNL     1       7.114   5.254  16.613  0.00  0.00    +0.000 C 
BRANCH  27  28
ATOM     28  O   UNL     1       7.816   4.152  17.164  0.00  0.00    +0.000 OA
ATOM     29  H   UNL     1       8.689   4.136  16.721  0.00  0.00    +0.000 HD
ENDBRANCH  27  28
ENDBRANCH  26  27
ENDBRANCH   6  26
TORSDOF 7
ENDMDL
MODEL 9
REMARK VINA RESULT:      -6.9      4.136      9.342
REMARK  Name = 
REMARK  9 active torsions:
REMARK  status: ('A' for Active; 'I' for Inactive)
REMARK    1  A    between atoms: C_1  and  C_2
REMARK    2  A    between atoms: C_2  and  C_3
REMARK    3  A    between atoms: C_2  and  N_4
REMARK    4  A    between atoms: C_7  and  N_8
REMARK    5  A    between atoms: N_11  and  C_12
REMARK    6  A    between atoms: C_12  and  C_13
REMARK    7  A    between atoms: C_23  and  C_24
REMARK    8  A    between atoms: C_24  and  C_25
REMARK    9  A    between atoms: C_25  and  O_26
REMARK                            x       y       z     vdW  Elec       q    Type
REMARK                         _______ _______ _______ _____ _____    ______ ____
ROOT
ATOM      1  N   UNL     1       0.360  11.508  20.263  0.00  0.00    +0.000 NA
ATOM      2  C   UNL     1       1.216  10.499  20.942  0.00  0.00    +0.000 C 
ATOM      3  C   UNL     1       1.311   9.080  20.307  0.00  0.00    +0.000 C 
ATOM      4  N   UNL     1       1.210   8.958  18.840  0.00  0.00    +0.000 NA
ATOM      5  C   UNL     1       0.421  10.044  18.258  0.00  0.00    +0.000 C 
ATOM      6  C   UNL     1       0.639  11.469  18.816  0.00  0.00    +0.000 C 
ENDROOT
BRANCH   1  10
ATOM      7  N   UNL     1      -2.015  13.727  22.596  0.00  0.00    +0.000 NA
ATOM      8  C   UNL     1      -2.310  13.788  21.157  0.00  0.00    +0.000 C 
ATOM      9  C   UNL     1      -2.142  12.521  20.293  0.00  0.00    +0.000 C 
ATOM     10  C   UNL     1      -1.073  11.490  20.715  0.00  0.00    +0.000 C 
ATOM     11  C   UNL     1      -1.269  11.296  22.226  0.00  0.00    +0.000 C 
ATOM     12  C   UNL     1      -1.219  12.582  23.048  0.00  0.00    +0.000 C 
BRANCH   7  14
ATOM     13  C   UNL     1      -1.477  15.093  24.654  0.00  0.00    +0.000 C 
ATOM     14  C   UNL     1      -1.496  15.030  23.116  0.00  0.00    +0.000 C 
ATOM     15  C   UNL     1      -0.073  15.383  22.641  0.00  0.00    +0.000 C 
ENDBRANCH   7  14
ENDBRANCH   1  10
BRANCH   4  16
ATOM     16  C   UNL     1       2.450   8.747  18.107  0.00  0.00    +0.000 C 
BRANCH  16  17
ATOM     17  C   UNL     1       2.838   7.294  17.952  0.00  0.00    +0.000 A 
ATOM     18  C   UNL     1       4.142   6.999  17.465  0.00  0.00    +0.000 A 
ATOM     19  C   UNL     1       4.607   5.697  17.223  0.00  0.00    +0.000 A 
ATOM     20  C   UNL     1       3.691   4.652  17.492  0.00  0.00    +0.000 A 
ATOM     21  N   UNL     1       3.929   3.344  17.333  0.00  0.00    +0.000 NA
ATOM     22  S   UNL     1       2.535   2.561  17.777  0.00  0.00    +0.000 S 
ATOM     23  N   UNL     1       1.562   3.842  18.196  0.00  0.00    +0.000 NA
ATOM     24  C   UNL     1       2.307   4.951  17.999  0.00  0.00    +0.000 A 
ATOM     25  C   UNL     1       1.886   6.282  18.223  0.00  0.00    +0.000 A 
ENDBRANCH  16  17
ENDBRANCH   4  16
BRANCH   6  26
ATOM     26  C   UNL     1       2.052  11.997  18.425  0.00  0.00    +0.000 C 
BRANCH  26  27
ATOM     27  C   UNL     1       2.419  13.397  18.906  0.00  0.00    +0.000 C 
BRANCH  27  28
ATOM     28  O   UNL     1       1.264  14.171  19.185  0.00  0.00    +0.000 OA
ATOM     29  H   UNL     1       1.281  14.348  20.147  0.00  0.00    +0.000 HD
ENDBRANCH  27  28
ENDBRANCH  26  27
ENDBRANCH   6  26
TORSDOF 7
ENDMDL
