MODEL 1
REMARK VINA RESULT:      -7.4      0.000      0.000
REMARK  Name = 
REMARK  7 active torsions:
REMARK  status: ('A' for Active; 'I' for Inactive)
REMARK    1  A    between atoms: C_1  and  C_2
REMARK    2  A    between atoms: C_2  and  O_3
REMARK    3  A    between atoms: O_3  and  C_4
REMARK    4  A    between atoms: C_9  and  N_10
REMARK    5  A    between atoms: N_13  and  C_14
REMARK    6  A    between atoms: C_14  and  C_15
REMARK    7  A    between atoms: C_15  and  C_16
REMARK                            x       y       z     vdW  Elec       q    Type
REMARK                         _______ _______ _______ _____ _____    ______ ____
ROOT
ATOM      1  N   UNL     1       5.704   6.513  16.805  0.00  0.00    +0.000 N 
ATOM      2  C   UNL     1       6.734   6.958  17.621  0.00  0.00    +0.000 C 
ATOM      3  O   UNL     1       7.131   6.431  18.660  0.00  0.00    +0.000 OA
ATOM      4  N   UNL     1       7.327   8.120  17.163  0.00  0.00    +0.000 N 
ATOM      5  H   UNL     1       5.720   6.790  15.840  0.00  0.00    +0.000 HD
ATOM      6  H   UNL     1       6.703   8.770  16.707  0.00  0.00    +0.000 HD
ENDROOT
BRANCH   1  12
ATOM      7  C   UNL     1       4.871   4.164  16.582  0.00  0.00    +0.000 A 
ATOM      8  C   UNL     1       3.974   3.162  16.999  0.00  0.00    +0.000 A 
ATOM      9  C   UNL     1       2.957   3.435  17.905  0.00  0.00    +0.000 A 
ATOM     10  C   UNL     1       2.869   4.712  18.440  0.00  0.00    +0.000 A 
ATOM     11  C   UNL     1       3.770   5.693  18.066  0.00  0.00    +0.000 A 
ATOM     12  C   UNL     1       4.808   5.457  17.157  0.00  0.00    +0.000 A 
BRANCH   7  13
ATOM     13  O   UNL     1       5.817   3.876  15.616  0.00  0.00    +0.000 OA
BRANCH  13  15
ATOM     14  C   UNL     1       6.259   3.629  13.269  0.00  0.00    +0.000 C 
ATOM     15  C   UNL     1       5.506   4.418  14.313  0.00  0.00    +0.000 C 
ENDBRANCH  13  15
ENDBRANCH   7  13
ENDBRANCH   1  12
BRANCH   4  16
ATOM     16  C   UNL     1       8.361   8.717  18.018  0.00  0.00    +0.000 C 
BRANCH  16  17
ATOM     17  C   UNL     1       8.329  10.246  18.101  0.00  0.00    +0.000 C 
BRANCH  17  18
ATOM     18  C   UNL     1       9.623  10.894  18.551  0.00  0.00    +0.000 C 
ATOM     19  C   UNL     1      10.492  11.449  17.686  0.00  0.00    +0.000 C 
ATOM     20  C   UNL     1      11.779  12.104  18.101  0.00  0.00    +0.000 C 
ATOM     21  C   UNL     1      12.168  11.809  19.550  0.00  0.00    +0.000 C 
ATOM     22  C   UNL     1      10.957  11.914  20.467  0.00  0.00    +0.000 C 
ATOM     23  C   UNL     1       9.861  10.935  20.045  0.00  0.00    +0.000 C 
ENDBRANCH  17  18
ENDBRANCH  16  17
ENDBRANCH   4  16
TORSDOF 6
ENDMDL
MODEL 2
REMARK VINA RESULT:      -7.4      1.393      2.763
REMARK  Name = 
REMARK  7 active torsions:
REMARK  status: ('A' for Active; 'I' for Inactive)
REMARK    1  A    between atoms: C_1  and  C_2
REMARK    2  A    between atoms: C_2  and  O_3
REMARK    3  A    between atoms: O_3  and  C_4
REMARK    4  A    between atoms: C_9  and  N_10
REMARK    5  A    between atoms: N_13  and  C_14
REMARK    6  A    between atoms: C_14  and  C_15
REMARK    7  A    between atoms: C_15  and  C_16
REMARK                            x       y       z     vdW  Elec       q    Type
REMARK                         _______ _______ _______ _____ _____    ______ ____
ROOT
ATOM      1  N   UNL     1       5.800   6.488  16.610  0.00  0.00    +0.000 N 
ATOM      2  C   UNL     1       6.747   6.935  17.519  0.00  0.00    +0.000 C 
ATOM      3  O   UNL     1       6.909   6.533  18.671  0.00  0.00    +0.000 OA
ATOM      4  N   UNL     1       7.555   7.938  17.015  0.00  0.00    +0.000 N 
ATOM      5  H   UNL     1       5.997   6.609  15.633  0.00  0.00    +0.000 HD
ATOM      6  H   UNL     1       7.100   8.576  16.378  0.00  0.00    +0.000 HD
ENDROOT
BRANCH   1  12
ATOM      7  C   UNL     1       3.529   6.045  17.563  0.00  0.00    +0.000 A 
ATOM      8  C   UNL     1       2.499   5.126  17.838  0.00  0.00    +0.000 A 
ATOM      9  C   UNL     1       2.662   3.767  17.598  0.00  0.00    +0.000 A 
ATOM     10  C   UNL     1       3.849   3.330  17.030  0.00  0.00    +0.000 A 
ATOM     11  C   UNL     1       4.852   4.231  16.721  0.00  0.00    +0.000 A 
ATOM     12  C   UNL     1       4.726   5.608  16.945  0.00  0.00    +0.000 A 
BRANCH   7  13
ATOM     13  O   UNL     1       3.362   7.378  17.892  0.00  0.00    +0.000 OA
BRANCH  13  15
ATOM     14  C   UNL     1       1.640   9.049  17.991  0.00  0.00    +0.000 C 
ATOM     15  C   UNL     1       2.072   7.682  18.466  0.00  0.00    +0.000 C 
ENDBRANCH  13  15
ENDBRANCH   7  13
ENDBRANCH   1  12
BRANCH   4  16
ATOM     16  C   UNL     1       8.521   8.539  17.943  0.00  0.00    +0.000 C 
BRANCH  16  17
ATOM     17  C   UNL     1       8.328  10.037  18.197  0.00  0.00    +0.000 C 
BRANCH  17  18
ATOM     18  C   UNL     1       9.559  10.771  18.692  0.00  0.00    +0.000 C 
ATOM     19  C   UNL     1      10.473  11.294  17.853  0.00  0.00    +0.000 C 
ATOM     20  C   UNL     1      11.699  12.032  18.312  0.00  0.00    +0.000 C 
ATOM     21  C   UNL     1      11.984  11.863  19.805  0.00  0.00    +0.000 C 
ATOM     22  C   UNL     1      10.702  11.987  20.617  0.00  0.00    +0.000 C 
ATOM     23  C   UNL     1       9.677  10.934  20.191  0.00  0.00    +0.000 C 
ENDBRANCH  17  18
ENDBRANCH  16  17
ENDBRANCH   4  16
TORSDOF 6
ENDMDL
MODEL 3
REMARK VINA RESULT:      -7.3      1.388      2.003
REMARK  Name = 
REMARK  7 active torsions:
REMARK  status: ('A' for Active; 'I' for Inactive)
REMARK    1  A    between atoms: C_1  and  C_2
REMARK    2  A    between atoms: C_2  and  O_3
REMARK    3  A    between atoms: O_3  and  C_4
REMARK    4  A    between atoms: C_9  and  N_10
REMARK    5  A    between atoms: N_13  and  C_14
REMARK    6  A    between atoms: C_14  and  C_15
REMARK    7  A    between atoms: C_15  and  C_16
REMARK                            x       y       z     vdW  Elec       q    Type
REMARK                         _______ _______ _______ _____ _____    ______ ____
ROOT
ATOM      1  N   UNL     1       6.746   7.609  16.937  0.00  0.00    +0.000 N 
ATOM      2  C   UNL     1       7.738   7.806  17.885  0.00  0.00    +0.000 C 
ATOM      3  O   UNL     1       8.216   6.957  18.638  0.00  0.00    +0.000 OA
ATOM      4  N   UNL     1       8.189   9.112  17.939  0.00  0.00    +0.000 N 
ATOM      5  H   UNL     1       6.708   8.246  16.161  0.00  0.00    +0.000 HD
ATOM      6  H   UNL     1       7.485   9.816  17.764  0.00  0.00    +0.000 HD
ENDROOT
BRANCH   1  12
ATOM      7  C   UNL     1       6.318   5.357  15.931  0.00  0.00    +0.000 A 
ATOM      8  C   UNL     1       5.535   4.188  15.891  0.00  0.00    +0.000 A 
ATOM      9  C   UNL     1       4.374   4.071  16.645  0.00  0.00    +0.000 A 
ATOM     10  C   UNL     1       4.020   5.114  17.488  0.00  0.00    +0.000 A 
ATOM     11  C   UNL     1       4.804   6.251  17.564  0.00  0.00    +0.000 A 
ATOM     12  C   UNL     1       5.981   6.408  16.820  0.00  0.00    +0.000 A 
BRANCH   7  13
ATOM     13  O   UNL     1       7.420   5.472  15.103  0.00  0.00    +0.000 OA
BRANCH  13  15
ATOM     14  C   UNL     1       8.155   5.539  12.819  0.00  0.00    +0.000 C 
ATOM     15  C   UNL     1       7.248   4.851  13.811  0.00  0.00    +0.000 C 
ENDBRANCH  13  15
ENDBRANCH   7  13
ENDBRANCH   1  12
BRANCH   4  16
ATOM     16  C   UNL     1       9.169   9.432  18.984  0.00  0.00    +0.000 C 
BRANCH  16  17
ATOM     17  C   UNL     1       9.059  10.845  19.564  0.00  0.00    +0.000 C 
BRANCH  17  18
ATOM     18  C   UNL     1      10.183  11.788  19.183  0.00  0.00    +0.000 C 
ATOM     19  C   UNL     1      10.936  12.422  20.102  0.00  0.00    +0.000 C 
ATOM     20  C   UNL     1      12.060  13.357  19.757  0.00  0.00    +0.000 C 
ATOM     21  C   UNL     1      12.073  13.772  18.285  0.00  0.00    +0.000 C 
ATOM     22  C   UNL     1      11.807  12.573  17.384  0.00  0.00    +0.000 C 
ATOM     23  C   UNL     1      10.454  11.936  17.702  0.00  0.00    +0.000 C 
ENDBRANCH  17  18
ENDBRANCH  16  17
ENDBRANCH   4  16
TORSDOF 6
ENDMDL
MODEL 4
REMARK VINA RESULT:      -7.2      4.373      6.313
REMARK  Name = 
REMARK  7 active torsions:
REMARK  status: ('A' for Active; 'I' for Inactive)
REMARK    1  A    between atoms: C_1  and  C_2
REMARK    2  A    between atoms: C_2  and  O_3
REMARK    3  A    between atoms: O_3  and  C_4
REMARK    4  A    between atoms: C_9  and  N_10
REMARK    5  A    between atoms: N_13  and  C_14
REMARK    6  A    between atoms: C_14  and  C_15
REMARK    7  A    between atoms: C_15  and  C_16
REMARK                            x       y       z     vdW  Elec       q    Type
REMARK                         _______ _______ _______ _____ _____    ______ ____
ROOT
ATOM      1  N   UNL     1       4.862   3.145  19.176  0.00  0.00    +0.000 N 
ATOM      2  C   UNL     1       5.710   4.235  19.060  0.00  0.00    +0.000 C 
ATOM      3  O   UNL     1       5.585   5.328  19.613  0.00  0.00    +0.000 OA
ATOM      4  N   UNL     1       6.783   4.004  18.219  0.00  0.00    +0.000 N 
ATOM      5  H   UNL     1       5.244   2.234  18.996  0.00  0.00    +0.000 HD
ATOM      6  H   UNL     1       6.586   3.408  17.427  0.00  0.00    +0.000 HD
ENDROOT
BRANCH   1  12
ATOM      7  C   UNL     1       2.514   3.993  19.359  0.00  0.00    +0.000 A 
ATOM      8  C   UNL     1       1.275   3.966  20.027  0.00  0.00    +0.000 A 
ATOM      9  C   UNL     1       1.100   3.233  21.194  0.00  0.00    +0.000 A 
ATOM     10  C   UNL     1       2.161   2.478  21.671  0.00  0.00    +0.000 A 
ATOM     11  C   UNL     1       3.372   2.467  21.000  0.00  0.00    +0.000 A 
ATOM     12  C   UNL     1       3.587   3.191  19.821  0.00  0.00    +0.000 A 
BRANCH   7  13
ATOM     13  O   UNL     1       2.675   4.800  18.248  0.00  0.00    +0.000 OA
BRANCH  13  15
ATOM     14  C   UNL     1       3.398   7.015  17.671  0.00  0.00    +0.000 C 
ATOM     15  C   UNL     1       2.437   6.201  18.503  0.00  0.00    +0.000 C 
ENDBRANCH  13  15
ENDBRANCH   7  13
ENDBRANCH   1  12
BRANCH   4  16
ATOM     16  C   UNL     1       7.678   5.139  17.959  0.00  0.00    +0.000 C 
BRANCH  16  17
ATOM     17  C   UNL     1       7.247   6.054  16.809  0.00  0.00    +0.000 C 
BRANCH  17  18
ATOM     18  C   UNL     1       6.792   5.339  15.553  0.00  0.00    +0.000 C 
ATOM     19  C   UNL     1       5.527   4.907  15.386  0.00  0.00    +0.000 C 
ATOM     20  C   UNL     1       5.043   4.202  14.151  0.00  0.00    +0.000 C 
ATOM     21  C   UNL     1       6.176   3.737  13.236  0.00  0.00    +0.000 C 
ATOM     22  C   UNL     1       7.239   4.818  13.099  0.00  0.00    +0.000 C 
ATOM     23  C   UNL     1       7.829   5.186  14.462  0.00  0.00    +0.000 C 
ENDBRANCH  17  18
ENDBRANCH  16  17
ENDBRANCH   4  16
TORSDOF 6
ENDMDL
MODEL 5
REMARK VINA RESULT:      -7.1      0.783      1.328
REMARK  Name = 
REMARK  7 active torsions:
REMARK  status: ('A' for Active; 'I' for Inactive)
REMARK    1  A    between atoms: C_1  and  C_2
REMARK    2  A    between atoms: C_2  and  O_3
REMARK    3  A    between atoms: O_3  and  C_4
REMARK    4  A    between atoms: C_9  and  N_10
REMARK    5  A    between atoms: N_13  and  C_14
REMARK    6  A    between atoms: C_14  and  C_15
REMARK    7  A    between atoms: C_15  and  C_16
REMARK                            x       y       z     vdW  Elec       q    Type
REMARK                         _______ _______ _______ _____ _____    ______ ____
ROOT
ATOM      1  N   UNL     1       5.781   6.582  17.220  0.00  0.00    +0.000 N 
ATOM      2  C   UNL     1       6.965   7.042  17.776  0.00  0.00    +0.000 C 
ATOM      3  O   UNL     1       7.725   6.415  18.514  0.00  0.00    +0.000 OA
ATOM      4  N   UNL     1       7.258   8.349  17.430  0.00  0.00    +0.000 N 
ATOM      5  H   UNL     1       5.459   7.022  16.377  0.00  0.00    +0.000 HD
ATOM      6  H   UNL     1       6.456   8.956  17.328  0.00  0.00    +0.000 HD
ENDROOT
BRANCH   1  12
ATOM      7  C   UNL     1       4.816   4.348  16.636  0.00  0.00    +0.000 A 
ATOM      8  C   UNL     1       4.231   3.142  17.065  0.00  0.00    +0.000 A 
ATOM      9  C   UNL     1       3.894   2.938  18.397  0.00  0.00    +0.000 A 
ATOM     10  C   UNL     1       4.193   3.930  19.319  0.00  0.00    +0.000 A 
ATOM     11  C   UNL     1       4.803   5.104  18.913  0.00  0.00    +0.000 A 
ATOM     12  C   UNL     1       5.158   5.348  17.580  0.00  0.00    +0.000 A 
BRANCH   7  13
ATOM     13  O   UNL     1       5.060   4.549  15.290  0.00  0.00    +0.000 OA
BRANCH  13  15
ATOM     14  C   UNL     1       6.129   3.715  13.308  0.00  0.00    +0.000 C 
ATOM     15  C   UNL     1       6.246   3.885  14.804  0.00  0.00    +0.000 C 
ENDBRANCH  13  15
ENDBRANCH   7  13
ENDBRANCH   1  12
BRANCH   4  16
ATOM     16  C   UNL     1       8.443   8.950  18.054  0.00  0.00    +0.000 C 
BRANCH  16  17
ATOM     17  C   UNL     1       8.624  10.448  17.790  0.00  0.00    +0.000 C 
BRANCH  17  18
ATOM     18  C   UNL     1       9.687  11.127  18.630  0.00  0.00    +0.000 C 
ATOM     19  C   UNL     1       9.604  11.207  19.972  0.00  0.00    +0.000 C 
ATOM     20  C   UNL     1      10.643  11.868  20.833  0.00  0.00    +0.000 C 
ATOM     21  C   UNL     1      11.639  12.713  20.039  0.00  0.00    +0.000 C 
ATOM     22  C   UNL     1      12.081  11.985  18.777  0.00  0.00    +0.000 C 
ATOM     23  C   UNL     1      10.885  11.664  17.880  0.00  0.00    +0.000 C 
ENDBRANCH  17  18
ENDBRANCH  16  17
ENDBRANCH   4  16
TORSDOF 6
ENDMDL
MODEL 6
REMARK VINA RESULT:      -7.0      1.611      1.947
REMARK  Name = 
REMARK  7 active torsions:
REMARK  status: ('A' for Active; 'I' for Inactive)
REMARK    1  A    between atoms: C_1  and  C_2
REMARK    2  A    between atoms: C_2  and  O_3
REMARK    3  A    between atoms: O_3  and  C_4
REMARK    4  A    between atoms: C_9  and  N_10
REMARK    5  A    between atoms: N_13  and  C_14
REMARK    6  A    between atoms: C_14  and  C_15
REMARK    7  A    between atoms: C_15  and  C_16
REMARK                            x       y       z     vdW  Elec       q    Type
REMARK                         _______ _______ _______ _____ _____    ______ ____
ROOT
ATOM      1  N   UNL     1       6.651   7.306  16.637  0.00  0.00    +0.000 N 
ATOM      2  C   UNL     1       7.561   7.703  17.605  0.00  0.00    +0.000 C 
ATOM      3  O   UNL     1       8.013   7.012  18.518  0.00  0.00    +0.000 OA
ATOM      4  N   UNL     1       7.954   9.022  17.475  0.00  0.00    +0.000 N 
ATOM      5  H   UNL     1       6.646   7.808  15.767  0.00  0.00    +0.000 HD
ATOM      6  H   UNL     1       7.238   9.652  17.140  0.00  0.00    +0.000 HD
ENDROOT
BRANCH   1  12
ATOM      7  C   UNL     1       6.343   4.927  15.923  0.00  0.00    +0.000 A 
ATOM      8  C   UNL     1       5.616   3.727  16.024  0.00  0.00    +0.000 A 
ATOM      9  C   UNL     1       4.450   3.650  16.776  0.00  0.00    +0.000 A 
ATOM     10  C   UNL     1       4.035   4.773  17.476  0.00  0.00    +0.000 A 
ATOM     11  C   UNL     1       4.764   5.948  17.413  0.00  0.00    +0.000 A 
ATOM     12  C   UNL     1       5.944   6.065  16.668  0.00  0.00    +0.000 A 
BRANCH   7  13
ATOM     13  O   UNL     1       7.451   4.989  15.098  0.00  0.00    +0.000 OA
BRANCH  13  15
ATOM     14  C   UNL     1       8.213   5.551  12.891  0.00  0.00    +0.000 C 
ATOM     15  C   UNL     1       7.144   4.848  13.693  0.00  0.00    +0.000 C 
ENDBRANCH  13  15
ENDBRANCH   7  13
ENDBRANCH   1  12
BRANCH   4  16
ATOM     16  C   UNL     1       8.840   9.555  18.517  0.00  0.00    +0.000 C 
BRANCH  16  17
ATOM     17  C   UNL     1       9.524  10.881  18.171  0.00  0.00    +0.000 C 
BRANCH  17  18
ATOM     18  C   UNL     1       9.547  11.905  19.287  0.00  0.00    +0.000 C 
ATOM     19  C   UNL     1       9.421  13.226  19.057  0.00  0.00    +0.000 C 
ATOM     20  C   UNL     1       9.434  14.266  20.142  0.00  0.00    +0.000 C 
ATOM     21  C   UNL     1       9.918  13.729  21.489  0.00  0.00    +0.000 C 
ATOM     22  C   UNL     1       9.304  12.366  21.780  0.00  0.00    +0.000 C 
ATOM     23  C   UNL     1       9.665  11.356  20.691  0.00  0.00    +0.000 C 
ENDBRANCH  17  18
ENDBRANCH  16  17
ENDBRANCH   4  16
TORSDOF 6
ENDMDL
MODEL 7
REMARK VINA RESULT:      -7.0      4.530      6.823
REMARK  Name = 
REMARK  7 active torsions:
REMARK  status: ('A' for Active; 'I' for Inactive)
REMARK    1  A    between atoms: C_1  and  C_2
REMARK    2  A    between atoms: C_2  and  O_3
REMARK    3  A    between atoms: O_3  and  C_4
REMARK    4  A    between atoms: C_9  and  N_10
REMARK    5  A    between atoms: N_13  and  C_14
REMARK    6  A    between atoms: C_14  and  C_15
REMARK    7  A    between atoms: C_15  and  C_16
REMARK                            x       y       z     vdW  Elec       q    Type
REMARK                         _______ _______ _______ _____ _____    ______ ____
ROOT
ATOM      1  N   UNL     1       3.092   4.877  17.360  0.00  0.00    +0.000 N 
ATOM      2  C   UNL     1       4.469   5.024  17.414  0.00  0.00    +0.000 C 
ATOM      3  O   UNL     1       5.223   4.587  18.284  0.00  0.00    +0.000 OA
ATOM      4  N   UNL     1       4.982   5.751  16.355  0.00  0.00    +0.000 N 
ATOM      5  H   UNL     1       2.650   4.941  16.461  0.00  0.00    +0.000 HD
ATOM      6  H   UNL     1       4.388   6.497  16.020  0.00  0.00    +0.000 HD
ENDROOT
BRANCH   1  12
ATOM      7  C   UNL     1       2.176   4.981  19.687  0.00  0.00    +0.000 A 
ATOM      8  C   UNL     1       1.358   4.415  20.683  0.00  0.00    +0.000 A 
ATOM      9  C   UNL     1       0.736   3.188  20.494  0.00  0.00    +0.000 A 
ATOM     10  C   UNL     1       0.891   2.544  19.276  0.00  0.00    +0.000 A 
ATOM     11  C   UNL     1       1.661   3.111  18.276  0.00  0.00    +0.000 A 
ATOM     12  C   UNL     1       2.304   4.346  18.427  0.00  0.00    +0.000 A 
BRANCH   7  13
ATOM     13  O   UNL     1       2.847   6.163  19.942  0.00  0.00    +0.000 OA
BRANCH  13  15
ATOM     14  C   UNL     1       2.267   8.068  18.601  0.00  0.00    +0.000 C 
ATOM     15  C   UNL     1       2.006   7.336  19.896  0.00  0.00    +0.000 C 
ENDBRANCH  13  15
ENDBRANCH   7  13
ENDBRANCH   1  12
BRANCH   4  16
ATOM     16  C   UNL     1       6.420   6.040  16.384  0.00  0.00    +0.000 C 
BRANCH  16  17
ATOM     17  C   UNL     1       7.316   4.933  15.820  0.00  0.00    +0.000 C 
BRANCH  17  18
ATOM     18  C   UNL     1       7.080   4.594  14.362  0.00  0.00    +0.000 C 
ATOM     19  C   UNL     1       6.084   3.780  13.962  0.00  0.00    +0.000 C 
ATOM     20  C   UNL     1       5.821   3.429  12.525  0.00  0.00    +0.000 C 
ATOM     21  C   UNL     1       6.964   3.819  11.587  0.00  0.00    +0.000 C 
ATOM     22  C   UNL     1       7.489   5.208  11.923  0.00  0.00    +0.000 C 
ATOM     23  C   UNL     1       7.995   5.270  13.365  0.00  0.00    +0.000 C 
ENDBRANCH  17  18
ENDBRANCH  16  17
ENDBRANCH   4  16
TORSDOF 6
ENDMDL
MODEL 8
REMARK VINA RESULT:      -7.0      1.608      3.030
REMARK  Name = 
REMARK  7 active torsions:
REMARK  status: ('A' for Active; 'I' for Inactive)
REMARK    1  A    between atoms: C_1  and  C_2
REMARK    2  A    between atoms: C_2  and  O_3
REMARK    3  A    between atoms: O_3  and  C_4
REMARK    4  A    between atoms: C_9  and  N_10
REMARK    5  A    between atoms: N_13  and  C_14
REMARK    6  A    between atoms: C_14  and  C_15
REMARK    7  A    between atoms: C_15  and  C_16
REMARK                            x       y       z     vdW  Elec       q    Type
REMARK                         _______ _______ _______ _____ _____    ______ ____
ROOT
ATOM      1  N   UNL     1       7.384   6.367  18.180  0.00  0.00    +0.000 N 
ATOM      2  C   UNL     1       7.580   7.718  17.932  0.00  0.00    +0.000 C 
ATOM      3  O   UNL     1       7.003   8.403  17.089  0.00  0.00    +0.000 OA
ATOM      4  N   UNL     1       8.540   8.287  18.749  0.00  0.00    +0.000 N 
ATOM      5  H   UNL     1       7.618   6.021  19.093  0.00  0.00    +0.000 HD
ATOM      6  H   UNL     1       9.312   7.682  18.990  0.00  0.00    +0.000 HD
ENDROOT
BRANCH   1  12
ATOM      7  C   UNL     1       5.365   4.950  17.758  0.00  0.00    +0.000 A 
ATOM      8  C   UNL     1       4.631   4.137  16.874  0.00  0.00    +0.000 A 
ATOM      9  C   UNL     1       5.133   3.791  15.626  0.00  0.00    +0.000 A 
ATOM     10  C   UNL     1       6.361   4.306  15.237  0.00  0.00    +0.000 A 
ATOM     11  C   UNL     1       7.073   5.137  16.083  0.00  0.00    +0.000 A 
ATOM     12  C   UNL     1       6.600   5.510  17.348  0.00  0.00    +0.000 A 
BRANCH   7  13
ATOM     13  O   UNL     1       4.871   5.205  19.024  0.00  0.00    +0.000 OA
BRANCH  13  15
ATOM     14  C   UNL     1       2.683   6.088  19.469  0.00  0.00    +0.000 C 
ATOM     15  C   UNL     1       3.485   4.838  19.196  0.00  0.00    +0.000 C 
ENDBRANCH  13  15
ENDBRANCH   7  13
ENDBRANCH   1  12
BRANCH   4  16
ATOM     16  C   UNL     1       8.883   9.691  18.488  0.00  0.00    +0.000 C 
BRANCH  16  17
ATOM     17  C   UNL     1       9.694  10.375  19.593  0.00  0.00    +0.000 C 
BRANCH  17  18
ATOM     18  C   UNL     1      10.509  11.572  19.147  0.00  0.00    +0.000 C 
ATOM     19  C   UNL     1      10.703  11.870  17.848  0.00  0.00    +0.000 C 
ATOM     20  C   UNL     1      11.500  13.053  17.374  0.00  0.00    +0.000 C 
ATOM     21  C   UNL     1      12.331  13.705  18.479  0.00  0.00    +0.000 C 
ATOM     22  C   UNL     1      11.521  13.827  19.763  0.00  0.00    +0.000 C 
ATOM     23  C   UNL     1      11.050  12.456  20.249  0.00  0.00    +0.000 C 
ENDBRANCH  17  18
ENDBRANCH  16  17
ENDBRANCH   4  16
TORSDOF 6
ENDMDL
MODEL 9
REMARK VINA RESULT:      -7.0      1.548      3.172
REMARK  Name = 
REMARK  7 active torsions:
REMARK  status: ('A' for Active; 'I' for Inactive)
REMARK    1  A    between atoms: C_1  and  C_2
REMARK    2  A    between atoms: C_2  and  O_3
REMARK    3  A    between atoms: O_3  and  C_4
REMARK    4  A    between atoms: C_9  and  N_10
REMARK    5  A    between atoms: N_13  and  C_14
REMARK    6  A    between atoms: C_14  and  C_15
REMARK    7  A    between atoms: C_15  and  C_16
REMARK                            x       y       z     vdW  Elec       q    Type
REMARK                         _______ _______ _______ _____ _____    ______ ____
ROOT
ATOM      1  N   UNL     1       7.258   6.218  18.180  0.00  0.00    +0.000 N 
ATOM      2  C   UNL     1       7.532   7.534  17.839  0.00  0.00    +0.000 C 
ATOM      3  O   UNL     1       7.076   8.157  16.880  0.00  0.00    +0.000 OA
ATOM      4  N   UNL     1       8.420   8.147  18.703  0.00  0.00    +0.000 N 
ATOM      5  H   UNL     1       7.379   5.949  19.140  0.00  0.00    +0.000 HD
ATOM      6  H   UNL     1       9.138   7.543  19.080  0.00  0.00    +0.000 HD
ENDROOT
BRANCH   1  12
ATOM      7  C   UNL     1       5.277   4.765  17.700  0.00  0.00    +0.000 A 
ATOM      8  C   UNL     1       4.607   3.901  16.814  0.00  0.00    +0.000 A 
ATOM      9  C   UNL     1       5.192   3.494  15.622  0.00  0.00    +0.000 A 
ATOM     10  C   UNL     1       6.441   3.997  15.289  0.00  0.00    +0.000 A 
ATOM     11  C   UNL     1       7.091   4.878  16.135  0.00  0.00    +0.000 A 
ATOM     12  C   UNL     1       6.535   5.312  17.344  0.00  0.00    +0.000 A 
BRANCH   7  13
ATOM     13  O   UNL     1       4.699   5.081  18.916  0.00  0.00    +0.000 OA
BRANCH  13  15
ATOM     14  C   UNL     1       2.731   5.537  20.214  0.00  0.00    +0.000 C 
ATOM     15  C   UNL     1       3.264   4.926  18.940  0.00  0.00    +0.000 C 
ENDBRANCH  13  15
ENDBRANCH   7  13
ENDBRANCH   1  12
BRANCH   4  16
ATOM     16  C   UNL     1       8.844   9.510  18.361  0.00  0.00    +0.000 C 
BRANCH  16  17
ATOM     17  C   UNL     1       9.349  10.347  19.541  0.00  0.00    +0.000 C 
BRANCH  17  18
ATOM     18  C   UNL     1      10.307  11.463  19.176  0.00  0.00    +0.000 C 
ATOM     19  C   UNL     1      11.363  11.789  19.947  0.00  0.00    +0.000 C 
ATOM     20  C   UNL     1      12.333  12.885  19.610  0.00  0.00    +0.000 C 
ATOM     21  C   UNL     1      11.846  13.803  18.489  0.00  0.00    +0.000 C 
ATOM     22  C   UNL     1      11.227  12.992  17.358  0.00  0.00    +0.000 C 
ATOM     23  C   UNL     1      10.046  12.160  17.860  0.00  0.00    +0.000 C 
ENDBRANCH  17  18
ENDBRANCH  16  17
ENDBRANCH   4  16
TORSDOF 6
ENDMDL
