MODEL 1
REMARK VINA RESULT:      -6.9      0.000      0.000
REMARK  Name = 
REMARK  6 active torsions:
REMARK  status: ('A' for Active; 'I' for Inactive)
REMARK    1  A    between atoms: C_2  and  C_3
REMARK    2  A    between atoms: C_3  and  S_4
REMARK    3  A    between atoms: S_4  and  C_5
REMARK    4  A    between atoms: N_9  and  C_10
REMARK    5  A    between atoms: C_10  and  N_12
REMARK    6  A    between atoms: N_12  and  C_13
REMARK                            x       y       z     vdW  Elec       q    Type
REMARK                         _______ _______ _______ _____ _____    ______ ____
ROOT
ATOM      1  C   UNL     1       6.591   3.816  12.734  0.00  0.00    +0.000 A 
ATOM      2  N   UNL     1       7.558   4.653  12.428  0.00  0.00    +0.000 NA
ATOM      3  N   UNL     1       7.869   5.487  13.489  0.00  0.00    +0.000 NA
ATOM      4  C   UNL     1       7.155   5.212  14.559  0.00  0.00    +0.000 A 
ATOM      5  N   UNL     1       7.217   5.974  15.705  0.00  0.00    +0.000 N 
ATOM      6  S   UNL     1       6.014   3.969  14.331  0.00  0.00    +0.000 S 
ATOM      7  H   UNL     1       7.837   6.768  15.612  0.00  0.00    +0.000 HD
ENDROOT
BRANCH   5   8
ATOM      8  C   UNL     1       6.778   5.702  16.996  0.00  0.00    +0.000 C 
ATOM      9  S   UNL     1       7.665   5.016  18.248  0.00  0.00    +0.000 S 
BRANCH   8  10
ATOM     10  N   UNL     1       5.427   6.086  17.100  0.00  0.00    +0.000 N 
ATOM     11  H   UNL     1       5.115   6.663  16.326  0.00  0.00    +0.000 HD
BRANCH  10  12
ATOM     12  C   UNL     1       4.414   5.364  17.768  0.00  0.00    +0.000 A 
ATOM     13  C   UNL     1       4.288   3.983  17.606  0.00  0.00    +0.000 A 
ATOM     14  C   UNL     1       3.221   3.297  18.187  0.00  0.00    +0.000 A 
ATOM     15  C   UNL     1       2.294   3.993  18.956  0.00  0.00    +0.000 A 
ATOM     16 BR   UNL     1       0.794   3.082  19.658  0.00  0.00    +0.000 Br
ATOM     17  C   UNL     1       2.460   5.356  19.198  0.00  0.00    +0.000 A 
ATOM     18  C   UNL     1       3.533   6.041  18.618  0.00  0.00    +0.000 A 
ENDBRANCH  10  12
ENDBRANCH   8  10
ENDBRANCH   5   8
BRANCH   1  19
ATOM     19  S   UNL     1       5.896   2.678  11.612  0.00  0.00    +0.000 S 
BRANCH  19  20
ATOM     20  C   UNL     1       4.185   3.258  11.557  0.00  0.00    +0.000 C 
BRANCH  20  22
ATOM     21  C   UNL     1       2.699   3.921   9.643  0.00  0.00    +0.000 C 
ATOM     22  C   UNL     1       3.917   3.820  10.192  0.00  0.00    +0.000 C 
ENDBRANCH  20  22
ENDBRANCH  19  20
ENDBRANCH   1  19
TORSDOF 6
ENDMDL
MODEL 2
REMARK VINA RESULT:      -6.7      3.022      4.335
REMARK  Name = 
REMARK  6 active torsions:
REMARK  status: ('A' for Active; 'I' for Inactive)
REMARK    1  A    between atoms: C_2  and  C_3
REMARK    2  A    between atoms: C_3  and  S_4
REMARK    3  A    between atoms: S_4  and  C_5
REMARK    4  A    between atoms: N_9  and  C_10
REMARK    5  A    between atoms: C_10  and  N_12
REMARK    6  A    between atoms: N_12  and  C_13
REMARK                            x       y       z     vdW  Elec       q    Type
REMARK                         _______ _______ _______ _____ _____    ______ ____
ROOT
ATOM      1  C   UNL     1       6.650   4.554  16.225  0.00  0.00    +0.000 A 
ATOM      2  N   UNL     1       7.535   4.601  17.196  0.00  0.00    +0.000 NA
ATOM      3  N   UNL     1       6.933   4.537  18.442  0.00  0.00    +0.000 NA
ATOM      4  C   UNL     1       5.627   4.403  18.353  0.00  0.00    +0.000 A 
ATOM      5  N   UNL     1       4.805   4.421  19.458  0.00  0.00    +0.000 N 
ATOM      6  S   UNL     1       5.036   4.409  16.756  0.00  0.00    +0.000 S 
ATOM      7  H   UNL     1       5.313   4.580  20.319  0.00  0.00    +0.000 HD
ENDROOT
BRANCH   5   8
ATOM      8  C   UNL     1       3.481   4.025  19.606  0.00  0.00    +0.000 C 
ATOM      9  S   UNL     1       2.765   2.625  19.012  0.00  0.00    +0.000 S 
BRANCH   8  10
ATOM     10  N   UNL     1       2.797   5.013  20.342  0.00  0.00    +0.000 N 
ATOM     11  H   UNL     1       2.996   4.980  21.336  0.00  0.00    +0.000 HD
BRANCH  10  12
ATOM     12  C   UNL     1       2.379   6.268  19.847  0.00  0.00    +0.000 A 
ATOM     13  C   UNL     1       2.540   6.600  18.500  0.00  0.00    +0.000 A 
ATOM     14  C   UNL     1       2.220   7.879  18.045  0.00  0.00    +0.000 A 
ATOM     15  C   UNL     1       1.710   8.818  18.936  0.00  0.00    +0.000 A 
ATOM     16 BR   UNL     1       1.372  10.581  18.341  0.00  0.00    +0.000 Br
ATOM     17  C   UNL     1       1.462   8.469  20.262  0.00  0.00    +0.000 A 
ATOM     18  C   UNL     1       1.779   7.184  20.717  0.00  0.00    +0.000 A 
ENDBRANCH  10  12
ENDBRANCH   8  10
ENDBRANCH   5   8
BRANCH   1  19
ATOM     19  S   UNL     1       7.050   4.688  14.534  0.00  0.00    +0.000 S 
BRANCH  19  20
ATOM     20  C   UNL     1       5.555   4.012  13.776  0.00  0.00    +0.000 C 
BRANCH  20  22
ATOM     21  C   UNL     1       6.992   3.767  11.731  0.00  0.00    +0.000 C 
ATOM     22  C   UNL     1       5.923   3.408  12.453  0.00  0.00    +0.000 C 
ENDBRANCH  20  22
ENDBRANCH  19  20
ENDBRANCH   1  19
TORSDOF 6
ENDMDL
MODEL 3
REMARK VINA RESULT:      -6.4      2.396      3.226
REMARK  Name = 
REMARK  6 active torsions:
REMARK  status: ('A' for Active; 'I' for Inactive)
REMARK    1  A    between atoms: C_2  and  C_3
REMARK    2  A    between atoms: C_3  and  S_4
REMARK    3  A    between atoms: S_4  and  C_5
REMARK    4  A    between atoms: N_9  and  C_10
REMARK    5  A    between atoms: C_10  and  N_12
REMARK    6  A    between atoms: N_12  and  C_13
REMARK                            x       y       z     vdW  Elec       q    Type
REMARK                         _______ _______ _______ _____ _____    ______ ____
ROOT
ATOM      1  C   UNL     1       6.745   4.759  14.224  0.00  0.00    +0.000 A 
ATOM      2  N   UNL     1       7.684   5.307  14.963  0.00  0.00    +0.000 NA
ATOM      3  N   UNL     1       7.264   5.494  16.269  0.00  0.00    +0.000 NA
ATOM      4  C   UNL     1       6.045   5.041  16.467  0.00  0.00    +0.000 A 
ATOM      5  N   UNL     1       5.379   5.208  17.659  0.00  0.00    +0.000 N 
ATOM      6  S   UNL     1       5.303   4.415  15.068  0.00  0.00    +0.000 S 
ATOM      7  H   UNL     1       5.914   5.739  18.335  0.00  0.00    +0.000 HD
ENDROOT
BRANCH   5   8
ATOM      8  C   UNL     1       4.241   4.582  18.155  0.00  0.00    +0.000 C 
ATOM      9  S   UNL     1       4.162   3.121  18.983  0.00  0.00    +0.000 S 
BRANCH   8  10
ATOM     10  N   UNL     1       3.119   5.372  17.836  0.00  0.00    +0.000 N 
ATOM     11  H   UNL     1       2.502   4.934  17.159  0.00  0.00    +0.000 HD
BRANCH  10  12
ATOM     12  C   UNL     1       2.514   6.326  18.683  0.00  0.00    +0.000 A 
ATOM     13  C   UNL     1       2.319   7.642  18.260  0.00  0.00    +0.000 A 
ATOM     14  C   UNL     1       1.816   8.600  19.142  0.00  0.00    +0.000 A 
ATOM     15  C   UNL     1       1.482   8.231  20.441  0.00  0.00    +0.000 A 
ATOM     16 BR   UNL     1       0.897   9.549  21.663  0.00  0.00    +0.000 Br
ATOM     17  C   UNL     1       1.589   6.901  20.845  0.00  0.00    +0.000 A 
ATOM     18  C   UNL     1       2.088   5.941  19.959  0.00  0.00    +0.000 A 
ENDBRANCH  10  12
ENDBRANCH   8  10
ENDBRANCH   5   8
BRANCH   1  19
ATOM     19  S   UNL     1       6.903   4.453  12.515  0.00  0.00    +0.000 S 
BRANCH  19  20
ATOM     20  C   UNL     1       5.724   3.099  12.303  0.00  0.00    +0.000 C 
BRANCH  20  22
ATOM     21  C   UNL     1       3.704   3.007  10.813  0.00  0.00    +0.000 C 
ATOM     22  C   UNL     1       4.464   3.654  11.705  0.00  0.00    +0.000 C 
ENDBRANCH  20  22
ENDBRANCH  19  20
ENDBRANCH   1  19
TORSDOF 6
ENDMDL
MODEL 4
REMARK VINA RESULT:      -6.4      3.564      4.837
REMARK  Name = 
REMARK  6 active torsions:
REMARK  status: ('A' for Active; 'I' for Inactive)
REMARK    1  A    between atoms: C_2  and  C_3
REMARK    2  A    between atoms: C_3  and  S_4
REMARK    3  A    between atoms: S_4  and  C_5
REMARK    4  A    between atoms: N_9  and  C_10
REMARK    5  A    between atoms: C_10  and  N_12
REMARK    6  A    between atoms: N_12  and  C_13
REMARK                            x       y       z     vdW  Elec       q    Type
REMARK                         _______ _______ _______ _____ _____    ______ ____
ROOT
ATOM      1  C   UNL     1       6.262   4.876  16.304  0.00  0.00    +0.000 A 
ATOM      2  N   UNL     1       6.987   4.333  17.258  0.00  0.00    +0.000 NA
ATOM      3  N   UNL     1       6.353   4.408  18.487  0.00  0.00    +0.000 NA
ATOM      4  C   UNL     1       5.163   4.963  18.398  0.00  0.00    +0.000 A 
ATOM      5  N   UNL     1       4.391   5.236  19.504  0.00  0.00    +0.000 N 
ATOM      6  S   UNL     1       4.760   5.489  16.830  0.00  0.00    +0.000 S 
ATOM      7  H   UNL     1       4.853   4.996  20.372  0.00  0.00    +0.000 HD
ENDROOT
BRANCH   5   8
ATOM      8  C   UNL     1       3.039   5.544  19.609  0.00  0.00    +0.000 C 
ATOM      9  S   UNL     1       1.739   4.592  19.131  0.00  0.00    +0.000 S 
BRANCH   8  10
ATOM     10  N   UNL     1       2.914   6.825  20.181  0.00  0.00    +0.000 N 
ATOM     11  H   UNL     1       3.770   7.154  20.615  0.00  0.00    +0.000 HD
BRANCH  10  12
ATOM     12  C   UNL     1       2.020   7.833  19.759  0.00  0.00    +0.000 A 
ATOM     13  C   UNL     1       2.034   8.302  18.443  0.00  0.00    +0.000 A 
ATOM     14  C   UNL     1       1.219   9.370  18.065  0.00  0.00    +0.000 A 
ATOM     15  C   UNL     1       0.368   9.950  19.000  0.00  0.00    +0.000 A 
ATOM     16 BR   UNL     1      -0.659  11.461  18.514  0.00  0.00    +0.000 Br
ATOM     17  C   UNL     1       0.282   9.432  20.291  0.00  0.00    +0.000 A 
ATOM     18  C   UNL     1       1.096   8.358  20.668  0.00  0.00    +0.000 A 
ENDBRANCH  10  12
ENDBRANCH   8  10
ENDBRANCH   5   8
BRANCH   1  19
ATOM     19  S   UNL     1       6.785   5.026  14.648  0.00  0.00    +0.000 S 
BRANCH  19  20
ATOM     20  C   UNL     1       6.188   3.464  13.960  0.00  0.00    +0.000 C 
BRANCH  20  22
ATOM     21  C   UNL     1       4.819   3.364  11.856  0.00  0.00    +0.000 C 
ATOM     22  C   UNL     1       5.967   3.646  12.487  0.00  0.00    +0.000 C 
ENDBRANCH  20  22
ENDBRANCH  19  20
ENDBRANCH   1  19
TORSDOF 6
ENDMDL
MODEL 5
REMARK VINA RESULT:      -6.4      1.589      1.877
REMARK  Name = 
REMARK  6 active torsions:
REMARK  status: ('A' for Active; 'I' for Inactive)
REMARK    1  A    between atoms: C_2  and  C_3
REMARK    2  A    between atoms: C_3  and  S_4
REMARK    3  A    between atoms: S_4  and  C_5
REMARK    4  A    between atoms: N_9  and  C_10
REMARK    5  A    between atoms: C_10  and  N_12
REMARK    6  A    between atoms: N_12  and  C_13
REMARK                            x       y       z     vdW  Elec       q    Type
REMARK                         _______ _______ _______ _____ _____    ______ ____
ROOT
ATOM      1  C   UNL     1       6.312   3.977  12.877  0.00  0.00    +0.000 A 
ATOM      2  N   UNL     1       7.353   4.709  12.545  0.00  0.00    +0.000 NA
ATOM      3  N   UNL     1       7.825   5.445  13.619  0.00  0.00    +0.000 NA
ATOM      4  C   UNL     1       7.147   5.202  14.721  0.00  0.00    +0.000 A 
ATOM      5  N   UNL     1       7.369   5.893  15.891  0.00  0.00    +0.000 N 
ATOM      6  S   UNL     1       5.854   4.115  14.513  0.00  0.00    +0.000 S 
ATOM      7  H   UNL     1       8.074   6.612  15.792  0.00  0.00    +0.000 HD
ENDROOT
BRANCH   5   8
ATOM      8  C   UNL     1       6.979   5.609  17.195  0.00  0.00    +0.000 C 
ATOM      9  S   UNL     1       7.854   4.771  18.360  0.00  0.00    +0.000 S 
BRANCH   8  10
ATOM     10  N   UNL     1       5.688   6.134  17.400  0.00  0.00    +0.000 N 
ATOM     11  H   UNL     1       5.432   6.843  16.721  0.00  0.00    +0.000 HD
BRANCH  10  12
ATOM     12  C   UNL     1       4.607   5.454  18.005  0.00  0.00    +0.000 A 
ATOM     13  C   UNL     1       3.641   4.807  17.231  0.00  0.00    +0.000 A 
ATOM     14  C   UNL     1       2.524   4.229  17.834  0.00  0.00    +0.000 A 
ATOM     15  C   UNL     1       2.389   4.274  19.218  0.00  0.00    +0.000 A 
ATOM     16 BR   UNL     1       0.827   3.581  20.026  0.00  0.00    +0.000 Br
ATOM     17  C   UNL     1       3.392   4.839  20.005  0.00  0.00    +0.000 A 
ATOM     18  C   UNL     1       4.514   5.414  19.400  0.00  0.00    +0.000 A 
ENDBRANCH  10  12
ENDBRANCH   8  10
ENDBRANCH   5   8
BRANCH   1  19
ATOM     19  S   UNL     1       5.419   2.987  11.755  0.00  0.00    +0.000 S 
BRANCH  19  20
ATOM     20  C   UNL     1       6.668   1.754  11.320  0.00  0.00    +0.000 C 
BRANCH  20  22
ATOM     21  C   UNL     1       6.288  -0.725  11.460  0.00  0.00    +0.000 C 
ATOM     22  C   UNL     1       5.970   0.476  10.959  0.00  0.00    +0.000 C 
ENDBRANCH  20  22
ENDBRANCH  19  20
ENDBRANCH   1  19
TORSDOF 6
ENDMDL
MODEL 6
REMARK VINA RESULT:      -6.2      4.060      5.861
REMARK  Name = 
REMARK  6 active torsions:
REMARK  status: ('A' for Active; 'I' for Inactive)
REMARK    1  A    between atoms: C_2  and  C_3
REMARK    2  A    between atoms: C_3  and  S_4
REMARK    3  A    between atoms: S_4  and  C_5
REMARK    4  A    between atoms: N_9  and  C_10
REMARK    5  A    between atoms: C_10  and  N_12
REMARK    6  A    between atoms: N_12  and  C_13
REMARK                            x       y       z     vdW  Elec       q    Type
REMARK                         _______ _______ _______ _____ _____    ______ ____
ROOT
ATOM      1  C   UNL     1       7.255   5.919  17.853  0.00  0.00    +0.000 A 
ATOM      2  N   UNL     1       7.434   5.611  16.587  0.00  0.00    +0.000 NA
ATOM      3  N   UNL     1       6.536   4.646  16.163  0.00  0.00    +0.000 NA
ATOM      4  C   UNL     1       5.694   4.301  17.114  0.00  0.00    +0.000 A 
ATOM      5  N   UNL     1       4.777   3.287  16.957  0.00  0.00    +0.000 N 
ATOM      6  S   UNL     1       5.976   5.078  18.603  0.00  0.00    +0.000 S 
ATOM      7  H   UNL     1       4.852   2.829  16.057  0.00  0.00    +0.000 HD
ENDROOT
BRANCH   5   8
ATOM      8  C   UNL     1       3.649   2.965  17.702  0.00  0.00    +0.000 C 
ATOM      9  S   UNL     1       3.400   1.585  18.629  0.00  0.00    +0.000 S 
BRANCH   8  10
ATOM     10  N   UNL     1       2.702   3.997  17.548  0.00  0.00    +0.000 N 
ATOM     11  H   UNL     1       1.901   3.723  16.988  0.00  0.00    +0.000 HD
BRANCH  10  12
ATOM     12  C   UNL     1       2.473   5.050  18.461  0.00  0.00    +0.000 A 
ATOM     13  C   UNL     1       2.203   4.790  19.806  0.00  0.00    +0.000 A 
ATOM     14  C   UNL     1       1.876   5.831  20.675  0.00  0.00    +0.000 A 
ATOM     15  C   UNL     1       1.848   7.139  20.202  0.00  0.00    +0.000 A 
ATOM     16 BR   UNL     1       1.307   8.537  21.354  0.00  0.00    +0.000 Br
ATOM     17  C   UNL     1       2.203   7.418  18.883  0.00  0.00    +0.000 A 
ATOM     18  C   UNL     1       2.536   6.373  18.014  0.00  0.00    +0.000 A 
ENDBRANCH  10  12
ENDBRANCH   8  10
ENDBRANCH   5   8
BRANCH   1  19
ATOM     19  S   UNL     1       8.257   7.040  18.735  0.00  0.00    +0.000 S 
BRANCH  19  20
ATOM     20  C   UNL     1       8.148   8.500  17.675  0.00  0.00    +0.000 C 
BRANCH  20  22
ATOM     21  C   UNL     1       9.448  10.532  18.374  0.00  0.00    +0.000 C 
ATOM     22  C   UNL     1       8.394   9.718  18.515  0.00  0.00    +0.000 C 
ENDBRANCH  20  22
ENDBRANCH  19  20
ENDBRANCH   1  19
TORSDOF 6
ENDMDL
MODEL 7
REMARK VINA RESULT:      -6.2      3.006      4.492
REMARK  Name = 
REMARK  6 active torsions:
REMARK  status: ('A' for Active; 'I' for Inactive)
REMARK    1  A    between atoms: C_2  and  C_3
REMARK    2  A    between atoms: C_3  and  S_4
REMARK    3  A    between atoms: S_4  and  C_5
REMARK    4  A    between atoms: N_9  and  C_10
REMARK    5  A    between atoms: C_10  and  N_12
REMARK    6  A    between atoms: N_12  and  C_13
REMARK                            x       y       z     vdW  Elec       q    Type
REMARK                         _______ _______ _______ _____ _____    ______ ____
ROOT
ATOM      1  C   UNL     1       6.565   4.580  16.646  0.00  0.00    +0.000 A 
ATOM      2  N   UNL     1       7.308   4.897  17.683  0.00  0.00    +0.000 NA
ATOM      3  N   UNL     1       6.604   4.783  18.871  0.00  0.00    +0.000 NA
ATOM      4  C   UNL     1       5.378   4.346  18.679  0.00  0.00    +0.000 A 
ATOM      5  N   UNL     1       4.459   4.251  19.700  0.00  0.00    +0.000 N 
ATOM      6  S   UNL     1       4.976   4.104  17.043  0.00  0.00    +0.000 S 
ATOM      7  H   UNL     1       4.823   4.583  20.585  0.00  0.00    +0.000 HD
ENDROOT
BRANCH   5   8
ATOM      8  C   UNL     1       3.248   3.572  19.766  0.00  0.00    +0.000 C 
ATOM      9  S   UNL     1       2.974   1.946  19.440  0.00  0.00    +0.000 S 
BRANCH   8  10
ATOM     10  N   UNL     1       2.243   4.483  20.146  0.00  0.00    +0.000 N 
ATOM     11  H   UNL     1       1.819   4.261  21.040  0.00  0.00    +0.000 HD
BRANCH  10  12
ATOM     12  C   UNL     1       2.171   5.840  19.760  0.00  0.00    +0.000 A 
ATOM     13  C   UNL     1       1.832   6.833  20.682  0.00  0.00    +0.000 A 
ATOM     14  C   UNL     1       1.662   8.154  20.267  0.00  0.00    +0.000 A 
ATOM     15  C   UNL     1       1.860   8.486  18.931  0.00  0.00    +0.000 A 
ATOM     16 BR   UNL     1       1.531  10.255  18.351  0.00  0.00    +0.000 Br
ATOM     17  C   UNL     1       2.285   7.520  18.021  0.00  0.00    +0.000 A 
ATOM     18  C   UNL     1       2.460   6.196  18.439  0.00  0.00    +0.000 A 
ENDBRANCH  10  12
ENDBRANCH   8  10
ENDBRANCH   5   8
BRANCH   1  19
ATOM     19  S   UNL     1       7.105   4.684  14.992  0.00  0.00    +0.000 S 
BRANCH  19  20
ATOM     20  C   UNL     1       5.608   4.178  14.113  0.00  0.00    +0.000 C 
BRANCH  20  22
ATOM     21  C   UNL     1       5.155   3.253  11.822  0.00  0.00    +0.000 C 
ATOM     22  C   UNL     1       6.010   3.555  12.809  0.00  0.00    +0.000 C 
ENDBRANCH  20  22
ENDBRANCH  19  20
ENDBRANCH   1  19
TORSDOF 6
ENDMDL
MODEL 8
REMARK VINA RESULT:      -6.1      2.407      3.224
REMARK  Name = 
REMARK  6 active torsions:
REMARK  status: ('A' for Active; 'I' for Inactive)
REMARK    1  A    between atoms: C_2  and  C_3
REMARK    2  A    between atoms: C_3  and  S_4
REMARK    3  A    between atoms: S_4  and  C_5
REMARK    4  A    between atoms: N_9  and  C_10
REMARK    5  A    between atoms: C_10  and  N_12
REMARK    6  A    between atoms: N_12  and  C_13
REMARK                            x       y       z     vdW  Elec       q    Type
REMARK                         _______ _______ _______ _____ _____    ______ ____
ROOT
ATOM      1  C   UNL     1       6.794   4.458  14.348  0.00  0.00    +0.000 A 
ATOM      2  N   UNL     1       7.682   4.893  15.216  0.00  0.00    +0.000 NA
ATOM      3  N   UNL     1       7.154   4.966  16.495  0.00  0.00    +0.000 NA
ATOM      4  C   UNL     1       5.909   4.544  16.541  0.00  0.00    +0.000 A 
ATOM      5  N   UNL     1       5.145   4.619  17.684  0.00  0.00    +0.000 N 
ATOM      6  S   UNL     1       5.274   4.091  15.028  0.00  0.00    +0.000 S 
ATOM      7  H   UNL     1       5.635   5.058  18.453  0.00  0.00    +0.000 HD
ENDROOT
BRANCH   5   8
ATOM      8  C   UNL     1       3.949   3.993  18.015  0.00  0.00    +0.000 C 
ATOM      9  S   UNL     1       3.744   2.418  18.567  0.00  0.00    +0.000 S 
BRANCH   8  10
ATOM     10  N   UNL     1       2.893   4.899  17.796  0.00  0.00    +0.000 N 
ATOM     11  H   UNL     1       2.148   4.514  17.225  0.00  0.00    +0.000 HD
BRANCH  10  12
ATOM     12  C   UNL     1       2.514   5.948  18.662  0.00  0.00    +0.000 A 
ATOM     13  C   UNL     1       2.160   5.693  19.989  0.00  0.00    +0.000 A 
ATOM     14  C   UNL     1       1.687   6.722  20.804  0.00  0.00    +0.000 A 
ATOM     15  C   UNL     1       1.596   8.014  20.297  0.00  0.00    +0.000 A 
ATOM     16 BR   UNL     1       0.860   9.387  21.369  0.00  0.00    +0.000 Br
ATOM     17  C   UNL     1       2.031   8.295  19.003  0.00  0.00    +0.000 A 
ATOM     18  C   UNL     1       2.509   7.264  18.188  0.00  0.00    +0.000 A 
ENDBRANCH  10  12
ENDBRANCH   8  10
ENDBRANCH   5   8
BRANCH   1  19
ATOM     19  S   UNL     1       7.092   4.317  12.637  0.00  0.00    +0.000 S 
BRANCH  19  20
ATOM     20  C   UNL     1       6.041   2.905  12.225  0.00  0.00    +0.000 C 
BRANCH  20  22
ATOM     21  C   UNL     1       3.722   3.279  11.336  0.00  0.00    +0.000 C 
ATOM     22  C   UNL     1       5.051   3.337  11.183  0.00  0.00    +0.000 C 
ENDBRANCH  20  22
ENDBRANCH  19  20
ENDBRANCH   1  19
TORSDOF 6
ENDMDL
MODEL 9
REMARK VINA RESULT:      -6.1      3.481      5.141
REMARK  Name = 
REMARK  6 active torsions:
REMARK  status: ('A' for Active; 'I' for Inactive)
REMARK    1  A    between atoms: C_2  and  C_3
REMARK    2  A    between atoms: C_3  and  S_4
REMARK    3  A    between atoms: S_4  and  C_5
REMARK    4  A    between atoms: N_9  and  C_10
REMARK    5  A    between atoms: C_10  and  N_12
REMARK    6  A    between atoms: N_12  and  C_13
REMARK                            x       y       z     vdW  Elec       q    Type
REMARK                         _______ _______ _______ _____ _____    ______ ____
ROOT
ATOM      1  C   UNL     1       6.605   4.715  17.417  0.00  0.00    +0.000 A 
ATOM      2  N   UNL     1       7.279   5.026  18.503  0.00  0.00    +0.000 NA
ATOM      3  N   UNL     1       6.440   5.222  19.588  0.00  0.00    +0.000 NA
ATOM      4  C   UNL     1       5.178   5.010  19.282  0.00  0.00    +0.000 A 
ATOM      5  N   UNL     1       4.153   5.242  20.171  0.00  0.00    +0.000 N 
ATOM      6  S   UNL     1       4.918   4.620  17.645  0.00  0.00    +0.000 S 
ATOM      7  H   UNL     1       4.478   5.619  21.052  0.00  0.00    +0.000 HD
ENDROOT
BRANCH   5   8
ATOM      8  C   UNL     1       2.826   4.829  20.149  0.00  0.00    +0.000 C 
ATOM      9  S   UNL     1       2.118   3.630  21.091  0.00  0.00    +0.000 S 
BRANCH   8  10
ATOM     10  N   UNL     1       2.139   5.578  19.174  0.00  0.00    +0.000 N 
ATOM     11  H   UNL     1       1.398   5.056  18.717  0.00  0.00    +0.000 HD
BRANCH  10  12
ATOM     12  C   UNL     1       1.983   6.982  19.171  0.00  0.00    +0.000 A 
ATOM     13  C   UNL     1       1.461   7.650  20.280  0.00  0.00    +0.000 A 
ATOM     14  C   UNL     1       1.214   9.023  20.226  0.00  0.00    +0.000 A 
ATOM     15  C   UNL     1       1.519   9.731  19.069  0.00  0.00    +0.000 A 
ATOM     16 BR   UNL     1       1.091  11.569  18.961  0.00  0.00    +0.000 Br
ATOM     17  C   UNL     1       2.123   9.090  17.988  0.00  0.00    +0.000 A 
ATOM     18  C   UNL     1       2.374   7.714  18.045  0.00  0.00    +0.000 A 
ENDBRANCH  10  12
ENDBRANCH   8  10
ENDBRANCH   5   8
BRANCH   1  19
ATOM     19  S   UNL     1       7.334   4.475  15.853  0.00  0.00    +0.000 S 
BRANCH  19  20
ATOM     20  C   UNL     1       5.930   3.824  14.919  0.00  0.00    +0.000 C 
BRANCH  20  22
ATOM     21  C   UNL     1       5.850   3.281  12.468  0.00  0.00    +0.000 C 
ATOM     22  C   UNL     1       6.144   4.126  13.465  0.00  0.00    +0.000 C 
ENDBRANCH  20  22
ENDBRANCH  19  20
ENDBRANCH   1  19
TORSDOF 6
ENDMDL
