MODEL 1
REMARK VINA RESULT:      -7.4      0.000      0.000
REMARK  Name = 
REMARK  15 active torsions:
REMARK  status: ('A' for Active; 'I' for Inactive)
REMARK    1  A    between atoms: C_1  and  C_2
REMARK    2  A    between atoms: C_2  and  O_3
REMARK    3  A    between atoms: O_3  and  P_4
REMARK    4  A    between atoms: P_4  and  C_6
REMARK    5  A    between atoms: P_4  and  O_30
REMARK    6  A    between atoms: C_6  and  C_7
REMARK    7  A    between atoms: C_7  and  C_8
REMARK    8  A    between atoms: C_8  and  C_9
REMARK    9  A    between atoms: C_9  and  N_10
REMARK   10  A    between atoms: C_12  and  C_13
REMARK   11  A    between atoms: C_13  and  N_14
REMARK   12  A    between atoms: N_22  and  C_23
REMARK   13  A    between atoms: N_26  and  C_27
REMARK   14  A    between atoms: O_30  and  C_31
REMARK   15  A    between atoms: C_31  and  C_32
REMARK                            x       y       z     vdW  Elec       q    Type
REMARK                         _______ _______ _______ _____ _____    ______ ____
ROOT
ATOM      1  N   UNL     1       8.222   8.289  18.252  0.00  0.00    +0.000 N 
ATOM      2  C   UNL     1       8.116   7.022  18.738  0.00  0.00    +0.000 A 
ATOM      3  C   UNL     1       7.302   6.382  17.831  0.00  0.00    +0.000 A 
ATOM      4  N   UNL     1       7.015   7.258  16.802  0.00  0.00    +0.000 NA
ATOM      5  N   UNL     1       7.594   8.421  17.073  0.00  0.00    +0.000 NA
ENDROOT
BRANCH   1   6
ATOM      6  C   UNL     1       8.896   9.420  18.862  0.00  0.00    +0.000 C 
BRANCH   6   7
ATOM      7  C   UNL     1       8.935  10.591  17.890  0.00  0.00    +0.000 C 
BRANCH   7   8
ATOM      8  C   UNL     1      10.152  11.499  18.073  0.00  0.00    +0.000 C 
BRANCH   8   9
ATOM      9  C   UNL     1       9.690  12.851  18.648  0.00  0.00    +0.000 C 
BRANCH   9  10
ATOM     10  P   UNL     1      10.965  13.677  19.816  0.00  0.00    +0.000 P 
ATOM     11  O   UNL     1      12.314  13.014  19.510  0.00  0.00    +0.000 OA
BRANCH  10  12
ATOM     12  O   UNL     1      10.580  12.399  20.917  0.00  0.00    +0.000 OA
BRANCH  12  14
ATOM     13  C   UNL     1       8.534  11.759  21.999  0.00  0.00    +0.000 C 
ATOM     14  C   UNL     1       9.619  12.807  21.887  0.00  0.00    +0.000 C 
ENDBRANCH  12  14
ENDBRANCH  10  12
BRANCH  10  15
ATOM     15  O   UNL     1      11.351  14.955  18.715  0.00  0.00    +0.000 OA
BRANCH  15  16
ATOM     16  C   UNL     1      10.711  16.220  18.811  0.00  0.00    +0.000 C 
ATOM     17  C   UNL     1       9.888  16.530  17.577  0.00  0.00    +0.000 C 
ENDBRANCH  15  16
ENDBRANCH  10  15
ENDBRANCH   9  10
ENDBRANCH   8   9
ENDBRANCH   7   8
ENDBRANCH   6   7
ENDBRANCH   1   6
BRANCH   3  18
ATOM     18  C   UNL     1       6.621   5.068  17.908  0.00  0.00    +0.000 C 
BRANCH  18  19
ATOM     19  N   UNL     1       5.170   5.029  17.607  0.00  0.00    +0.000 N 
ATOM     20  C   UNL     1       4.879   4.258  16.479  0.00  0.00    +0.000 A 
ATOM     21 CL   UNL     1       5.322   4.809  14.935  0.00  0.00    +0.000 Cl
ATOM     22  N   UNL     1       4.522   3.045  16.838  0.00  0.00    +0.000 NA
ATOM     23  C   UNL     1       4.231   3.207  18.170  0.00  0.00    +0.000 A 
ATOM     24  C   UNL     1       4.199   4.538  18.466  0.00  0.00    +0.000 A 
ATOM     25  C   UNL     1       3.152   5.102  19.288  0.00  0.00    +0.000 A 
ATOM     26  O   UNL     1       3.079   6.276  19.593  0.00  0.00    +0.000 OA
ATOM     27  N   UNL     1       2.198   4.117  19.653  0.00  0.00    +0.000 N 
ATOM     28  C   UNL     1       1.118   4.399  20.571  0.00  0.00    +0.000 C 
ATOM     29  C   UNL     1       2.227   2.797  19.160  0.00  0.00    +0.000 A 
ATOM     30  O   UNL     1       1.235   2.079  19.043  0.00  0.00    +0.000 OA
ATOM     31  N   UNL     1       3.541   2.316  18.976  0.00  0.00    +0.000 N 
ATOM     32  C   UNL     1       4.153   2.149  20.313  0.00  0.00    +0.000 C 
ENDBRANCH  18  19
ENDBRANCH   3  18
TORSDOF 11
ENDMDL
MODEL 2
REMARK VINA RESULT:      -7.2      0.672      2.392
REMARK  Name = 
REMARK  15 active torsions:
REMARK  status: ('A' for Active; 'I' for Inactive)
REMARK    1  A    between atoms: C_1  and  C_2
REMARK    2  A    between atoms: C_2  and  O_3
REMARK    3  A    between atoms: O_3  and  P_4
REMARK    4  A    between atoms: P_4  and  C_6
REMARK    5  A    between atoms: P_4  and  O_30
REMARK    6  A    between atoms: C_6  and  C_7
REMARK    7  A    between atoms: C_7  and  C_8
REMARK    8  A    between atoms: C_8  and  C_9
REMARK    9  A    between atoms: C_9  and  N_10
REMARK   10  A    between atoms: C_12  and  C_13
REMARK   11  A    between atoms: C_13  and  N_14
REMARK   12  A    between atoms: N_22  and  C_23
REMARK   13  A    between atoms: N_26  and  C_27
REMARK   14  A    between atoms: O_30  and  C_31
REMARK   15  A    between atoms: C_31  and  C_32
REMARK                            x       y       z     vdW  Elec       q    Type
REMARK                         _______ _______ _______ _____ _____    ______ ____
ROOT
ATOM      1  N   UNL     1       8.315   8.509  18.369  0.00  0.00    +0.000 N 
ATOM      2  C   UNL     1       8.270   7.201  18.748  0.00  0.00    +0.000 A 
ATOM      3  C   UNL     1       7.370   6.631  17.876  0.00  0.00    +0.000 A 
ATOM      4  N   UNL     1       6.970   7.590  16.966  0.00  0.00    +0.000 NA
ATOM      5  N   UNL     1       7.565   8.734  17.279  0.00  0.00    +0.000 NA
ENDROOT
BRANCH   1   6
ATOM      6  C   UNL     1       9.040   9.593  19.004  0.00  0.00    +0.000 C 
BRANCH   6   7
ATOM      7  C   UNL     1       9.362  10.676  17.985  0.00  0.00    +0.000 C 
BRANCH   7   8
ATOM      8  C   UNL     1      10.401  11.687  18.470  0.00  0.00    +0.000 C 
BRANCH   8   9
ATOM      9  C   UNL     1       9.677  12.935  19.005  0.00  0.00    +0.000 C 
BRANCH   9  10
ATOM     10  P   UNL     1      10.783  14.080  20.073  0.00  0.00    +0.000 P 
ATOM     11  O   UNL     1      10.062  15.432  20.133  0.00  0.00    +0.000 OA
BRANCH  10  12
ATOM     12  O   UNL     1      11.524  14.533  18.577  0.00  0.00    +0.000 OA
BRANCH  12  14
ATOM     13  C   UNL     1      11.642  16.505  17.214  0.00  0.00    +0.000 C 
ATOM     14  C   UNL     1      10.738  15.481  17.862  0.00  0.00    +0.000 C 
ENDBRANCH  12  14
ENDBRANCH  10  12
BRANCH  10  15
ATOM     15  O   UNL     1      10.042  13.626  21.570  0.00  0.00    +0.000 OA
BRANCH  15  16
ATOM     16  C   UNL     1       8.686  13.203  21.616  0.00  0.00    +0.000 C 
ATOM     17  C   UNL     1       8.529  11.892  22.360  0.00  0.00    +0.000 C 
ENDBRANCH  15  16
ENDBRANCH  10  15
ENDBRANCH   9  10
ENDBRANCH   8   9
ENDBRANCH   7   8
ENDBRANCH   6   7
ENDBRANCH   1   6
BRANCH   3  18
ATOM     18  C   UNL     1       6.711   5.304  17.906  0.00  0.00    +0.000 C 
BRANCH  18  19
ATOM     19  N   UNL     1       5.265   5.249  17.583  0.00  0.00    +0.000 N 
ATOM     20  C   UNL     1       5.003   4.505  16.430  0.00  0.00    +0.000 A 
ATOM     21 CL   UNL     1       5.458   5.106  14.909  0.00  0.00    +0.000 Cl
ATOM     22  N   UNL     1       4.662   3.276  16.751  0.00  0.00    +0.000 NA
ATOM     23  C   UNL     1       4.350   3.396  18.083  0.00  0.00    +0.000 A 
ATOM     24  C   UNL     1       4.291   4.718  18.415  0.00  0.00    +0.000 A 
ATOM     25  C   UNL     1       3.224   5.241  19.237  0.00  0.00    +0.000 A 
ATOM     26  O   UNL     1       3.126   6.406  19.573  0.00  0.00    +0.000 OA
ATOM     27  N   UNL     1       2.282   4.231  19.561  0.00  0.00    +0.000 N 
ATOM     28  C   UNL     1       1.184   4.470  20.470  0.00  0.00    +0.000 C 
ATOM     29  C   UNL     1       2.339   2.926  19.032  0.00  0.00    +0.000 A 
ATOM     30  O   UNL     1       1.362   2.195  18.881  0.00  0.00    +0.000 OA
ATOM     31  N   UNL     1       3.664   2.472  18.854  0.00  0.00    +0.000 N 
ATOM     32  C   UNL     1       4.261   2.279  20.194  0.00  0.00    +0.000 C 
ENDBRANCH  18  19
ENDBRANCH   3  18
TORSDOF 11
ENDMDL
MODEL 3
REMARK VINA RESULT:      -7.0      0.935      1.125
REMARK  Name = 
REMARK  15 active torsions:
REMARK  status: ('A' for Active; 'I' for Inactive)
REMARK    1  A    between atoms: C_1  and  C_2
REMARK    2  A    between atoms: C_2  and  O_3
REMARK    3  A    between atoms: O_3  and  P_4
REMARK    4  A    between atoms: P_4  and  C_6
REMARK    5  A    between atoms: P_4  and  O_30
REMARK    6  A    between atoms: C_6  and  C_7
REMARK    7  A    between atoms: C_7  and  C_8
REMARK    8  A    between atoms: C_8  and  C_9
REMARK    9  A    between atoms: C_9  and  N_10
REMARK   10  A    between atoms: C_12  and  C_13
REMARK   11  A    between atoms: C_13  and  N_14
REMARK   12  A    between atoms: N_22  and  C_23
REMARK   13  A    between atoms: N_26  and  C_27
REMARK   14  A    between atoms: O_30  and  C_31
REMARK   15  A    between atoms: C_31  and  C_32
REMARK                            x       y       z     vdW  Elec       q    Type
REMARK                         _______ _______ _______ _____ _____    ______ ____
ROOT
ATOM      1  N   UNL     1       8.334   8.150  18.349  0.00  0.00    +0.000 N 
ATOM      2  C   UNL     1       8.150   6.871  18.780  0.00  0.00    +0.000 A 
ATOM      3  C   UNL     1       7.363   6.299  17.806  0.00  0.00    +0.000 A 
ATOM      4  N   UNL     1       7.169   7.224  16.798  0.00  0.00    +0.000 NA
ATOM      5  N   UNL     1       7.777   8.351  17.144  0.00  0.00    +0.000 NA
ENDROOT
BRANCH   1   6
ATOM      6  C   UNL     1       9.017   9.229  19.037  0.00  0.00    +0.000 C 
BRANCH   6   7
ATOM      7  C   UNL     1       8.892  10.520  18.240  0.00  0.00    +0.000 C 
BRANCH   7   8
ATOM      8  C   UNL     1      10.020  11.517  18.508  0.00  0.00    +0.000 C 
BRANCH   8   9
ATOM      9  C   UNL     1       9.429  12.784  19.153  0.00  0.00    +0.000 C 
BRANCH   9  10
ATOM     10  P   UNL     1      10.673  14.234  19.303  0.00  0.00    +0.000 P 
ATOM     11  O   UNL     1      12.059  13.593  19.445  0.00  0.00    +0.000 OA
BRANCH  10  12
ATOM     12  O   UNL     1      10.424  14.092  21.009  0.00  0.00    +0.000 OA
BRANCH  12  14
ATOM     13  C   UNL     1       9.062  16.063  20.859  0.00  0.00    +0.000 C 
ATOM     14  C   UNL     1      10.164  15.355  21.614  0.00  0.00    +0.000 C 
ENDBRANCH  12  14
ENDBRANCH  10  12
BRANCH  10  15
ATOM     15  O   UNL     1      10.922  14.377  17.596  0.00  0.00    +0.000 OA
BRANCH  15  16
ATOM     16  C   UNL     1      10.985  15.651  16.971  0.00  0.00    +0.000 C 
ATOM     17  C   UNL     1      11.348  16.745  17.955  0.00  0.00    +0.000 C 
ENDBRANCH  15  16
ENDBRANCH  10  15
ENDBRANCH   9  10
ENDBRANCH   8   9
ENDBRANCH   7   8
ENDBRANCH   6   7
ENDBRANCH   1   6
BRANCH   3  18
ATOM     18  C   UNL     1       6.627   5.014  17.795  0.00  0.00    +0.000 C 
BRANCH  18  19
ATOM     19  N   UNL     1       5.180   5.054  17.477  0.00  0.00    +0.000 N 
ATOM     20  C   UNL     1       4.859   4.291  16.352  0.00  0.00    +0.000 A 
ATOM     21 CL   UNL     1       5.352   4.802  14.809  0.00  0.00    +0.000 Cl
ATOM     22  N   UNL     1       4.430   3.102  16.717  0.00  0.00    +0.000 NA
ATOM     23  C   UNL     1       4.133   3.293  18.044  0.00  0.00    +0.000 A 
ATOM     24  C   UNL     1       4.173   4.626  18.328  0.00  0.00    +0.000 A 
ATOM     25  C   UNL     1       3.150   5.255  19.132  0.00  0.00    +0.000 A 
ATOM     26  O   UNL     1       3.139   6.435  19.427  0.00  0.00    +0.000 OA
ATOM     27  N   UNL     1       2.137   4.329  19.494  0.00  0.00    +0.000 N 
ATOM     28  C   UNL     1       1.064   4.681  20.395  0.00  0.00    +0.000 C 
ATOM     29  C   UNL     1       2.097   3.006  19.012  0.00  0.00    +0.000 A 
ATOM     30  O   UNL     1       1.068   2.344  18.888  0.00  0.00    +0.000 OA
ATOM     31  N   UNL     1       3.384   2.449  18.848  0.00  0.00    +0.000 N 
ATOM     32  C   UNL     1       3.970   2.260  20.194  0.00  0.00    +0.000 C 
ENDBRANCH  18  19
ENDBRANCH   3  18
TORSDOF 11
ENDMDL
MODEL 4
REMARK VINA RESULT:      -6.9      6.446      9.694
REMARK  Name = 
REMARK  15 active torsions:
REMARK  status: ('A' for Active; 'I' for Inactive)
REMARK    1  A    between atoms: C_1  and  C_2
REMARK    2  A    between atoms: C_2  and  O_3
REMARK    3  A    between atoms: O_3  and  P_4
REMARK    4  A    between atoms: P_4  and  C_6
REMARK    5  A    between atoms: P_4  and  O_30
REMARK    6  A    between atoms: C_6  and  C_7
REMARK    7  A    between atoms: C_7  and  C_8
REMARK    8  A    between atoms: C_8  and  C_9
REMARK    9  A    between atoms: C_9  and  N_10
REMARK   10  A    between atoms: C_12  and  C_13
REMARK   11  A    between atoms: C_13  and  N_14
REMARK   12  A    between atoms: N_22  and  C_23
REMARK   13  A    between atoms: N_26  and  C_27
REMARK   14  A    between atoms: O_30  and  C_31
REMARK   15  A    between atoms: C_31  and  C_32
REMARK                            x       y       z     vdW  Elec       q    Type
REMARK                         _______ _______ _______ _____ _____    ______ ____
ROOT
ATOM      1  N   UNL     1       2.253   7.112  19.077  0.00  0.00    +0.000 N 
ATOM      2  C   UNL     1       1.966   8.404  18.756  0.00  0.00    +0.000 A 
ATOM      3  C   UNL     1       1.376   8.909  19.893  0.00  0.00    +0.000 A 
ATOM      4  N   UNL     1       1.398   7.933  20.871  0.00  0.00    +0.000 NA
ATOM      5  N   UNL     1       1.946   6.840  20.356  0.00  0.00    +0.000 NA
ENDROOT
BRANCH   1   6
ATOM      6  C   UNL     1       2.807   6.086  18.215  0.00  0.00    +0.000 C 
BRANCH   6   7
ATOM      7  C   UNL     1       3.424   4.975  19.053  0.00  0.00    +0.000 C 
BRANCH   7   8
ATOM      8  C   UNL     1       4.953   4.962  19.026  0.00  0.00    +0.000 C 
BRANCH   8   9
ATOM      9  C   UNL     1       5.427   4.399  17.674  0.00  0.00    +0.000 C 
BRANCH   9  10
ATOM     10  P   UNL     1       6.843   5.406  16.865  0.00  0.00    +0.000 P 
ATOM     11  O   UNL     1       7.963   4.400  16.567  0.00  0.00    +0.000 OA
BRANCH  10  12
ATOM     12  O   UNL     1       7.440   5.603  18.476  0.00  0.00    +0.000 OA
BRANCH  12  14
ATOM     13  C   UNL     1       7.700   7.790  17.523  0.00  0.00    +0.000 C 
ATOM     14  C   UNL     1       8.082   6.863  18.654  0.00  0.00    +0.000 C 
ENDBRANCH  12  14
ENDBRANCH  10  12
BRANCH  10  15
ATOM     15  O   UNL     1       6.246   5.208  15.252  0.00  0.00    +0.000 OA
BRANCH  15  16
ATOM     16  C   UNL     1       6.383   3.970  14.569  0.00  0.00    +0.000 C 
ATOM     17  C   UNL     1       5.524   3.917  13.321  0.00  0.00    +0.000 C 
ENDBRANCH  15  16
ENDBRANCH  10  15
ENDBRANCH   9  10
ENDBRANCH   8   9
ENDBRANCH   7   8
ENDBRANCH   6   7
ENDBRANCH   1   6
BRANCH   3  18
ATOM     18  C   UNL     1       0.633  10.172  20.112  0.00  0.00    +0.000 C 
BRANCH  18  19
ATOM     19  N   UNL     1       0.547  11.124  18.979  0.00  0.00    +0.000 N 
ATOM     20  C   UNL     1      -0.735  11.181  18.426  0.00  0.00    +0.000 A 
ATOM     21 CL   UNL     1      -1.340   9.864  17.543  0.00  0.00    +0.000 Cl
ATOM     22  N   UNL     1      -1.399  12.200  18.928  0.00  0.00    +0.000 NA
ATOM     23  C   UNL     1      -0.398  12.961  19.478  0.00  0.00    +0.000 A 
ATOM     24  C   UNL     1       0.811  12.482  19.067  0.00  0.00    +0.000 A 
ATOM     25  C   UNL     1       1.864  13.370  18.631  0.00  0.00    +0.000 A 
ATOM     26  O   UNL     1       2.963  13.001  18.265  0.00  0.00    +0.000 OA
ATOM     27  N   UNL     1       1.434  14.722  18.640  0.00  0.00    +0.000 N 
ATOM     28  C   UNL     1       2.336  15.815  18.360  0.00  0.00    +0.000 C 
ATOM     29  C   UNL     1       0.108  15.106  18.923  0.00  0.00    +0.000 A 
ATOM     30  O   UNL     1      -0.423  16.131  18.498  0.00  0.00    +0.000 OA
ATOM     31  N   UNL     1      -0.501  14.279  19.891  0.00  0.00    +0.000 N 
ATOM     32  C   UNL     1       0.168  14.533  21.187  0.00  0.00    +0.000 C 
ENDBRANCH  18  19
ENDBRANCH   3  18
TORSDOF 11
ENDMDL
MODEL 5
REMARK VINA RESULT:      -6.9      6.251      9.294
REMARK  Name = 
REMARK  15 active torsions:
REMARK  status: ('A' for Active; 'I' for Inactive)
REMARK    1  A    between atoms: C_1  and  C_2
REMARK    2  A    between atoms: C_2  and  O_3
REMARK    3  A    between atoms: O_3  and  P_4
REMARK    4  A    between atoms: P_4  and  C_6
REMARK    5  A    between atoms: P_4  and  O_30
REMARK    6  A    between atoms: C_6  and  C_7
REMARK    7  A    between atoms: C_7  and  C_8
REMARK    8  A    between atoms: C_8  and  C_9
REMARK    9  A    between atoms: C_9  and  N_10
REMARK   10  A    between atoms: C_12  and  C_13
REMARK   11  A    between atoms: C_13  and  N_14
REMARK   12  A    between atoms: N_22  and  C_23
REMARK   13  A    between atoms: N_26  and  C_27
REMARK   14  A    between atoms: O_30  and  C_31
REMARK   15  A    between atoms: C_31  and  C_32
REMARK                            x       y       z     vdW  Elec       q    Type
REMARK                         _______ _______ _______ _____ _____    ______ ____
ROOT
ATOM      1  N   UNL     1       2.448   6.620  19.376  0.00  0.00    +0.000 N 
ATOM      2  C   UNL     1       2.486   7.595  18.426  0.00  0.00    +0.000 A 
ATOM      3  C   UNL     1       1.829   8.656  19.008  0.00  0.00    +0.000 A 
ATOM      4  N   UNL     1       1.491   8.308  20.302  0.00  0.00    +0.000 NA
ATOM      5  N   UNL     1       1.885   7.058  20.513  0.00  0.00    +0.000 NA
ENDROOT
BRANCH   1   6
ATOM      6  C   UNL     1       2.917   5.252  19.263  0.00  0.00    +0.000 C 
BRANCH   6   7
ATOM      7  C   UNL     1       2.507   4.667  17.919  0.00  0.00    +0.000 C 
BRANCH   7   8
ATOM      8  C   UNL     1       3.675   4.086  17.120  0.00  0.00    +0.000 C 
BRANCH   8   9
ATOM      9  C   UNL     1       4.973   4.262  17.928  0.00  0.00    +0.000 C 
BRANCH   9  10
ATOM     10  P   UNL     1       6.375   5.147  16.965  0.00  0.00    +0.000 P 
ATOM     11  O   UNL     1       7.666   4.392  17.304  0.00  0.00    +0.000 OA
BRANCH  10  12
ATOM     12  O   UNL     1       6.558   6.113  18.389  0.00  0.00    +0.000 OA
BRANCH  12  14
ATOM     13  C   UNL     1       7.809   7.981  17.550  0.00  0.00    +0.000 C 
ATOM     14  C   UNL     1       7.828   6.756  18.435  0.00  0.00    +0.000 C 
ENDBRANCH  12  14
ENDBRANCH  10  12
BRANCH  10  15
ATOM     15  O   UNL     1       6.193   4.182  15.541  0.00  0.00    +0.000 OA
BRANCH  15  16
ATOM     16  C   UNL     1       6.753   4.593  14.302  0.00  0.00    +0.000 C 
ATOM     17  C   UNL     1       6.206   3.789  13.140  0.00  0.00    +0.000 C 
ENDBRANCH  15  16
ENDBRANCH  10  15
ENDBRANCH   9  10
ENDBRANCH   8   9
ENDBRANCH   7   8
ENDBRANCH   6   7
ENDBRANCH   1   6
BRANCH   3  18
ATOM     18  C   UNL     1       1.332   9.921  18.418  0.00  0.00    +0.000 C 
BRANCH  18  19
ATOM     19  N   UNL     1       1.208  11.094  19.316  0.00  0.00    +0.000 N 
ATOM     20  C   UNL     1       1.469  12.299  18.658  0.00  0.00    +0.000 A 
ATOM     21 CL   UNL     1       3.049  12.673  18.164  0.00  0.00    +0.000 Cl
ATOM     22  N   UNL     1       0.342  12.861  18.277  0.00  0.00    +0.000 NA
ATOM     23  C   UNL     1      -0.589  12.195  19.036  0.00  0.00    +0.000 A 
ATOM     24  C   UNL     1       0.049  11.455  19.987  0.00  0.00    +0.000 A 
ATOM     25  C   UNL     1      -0.415  11.424  21.355  0.00  0.00    +0.000 A 
ATOM     26  O   UNL     1       0.106  10.775  22.241  0.00  0.00    +0.000 OA
ATOM     27  N   UNL     1      -1.529  12.284  21.539  0.00  0.00    +0.000 N 
ATOM     28  C   UNL     1      -2.253  12.343  22.789  0.00  0.00    +0.000 C 
ATOM     29  C   UNL     1      -2.017  13.139  20.531  0.00  0.00    +0.000 A 
ATOM     30  O   UNL     1      -2.614  14.192  20.744  0.00  0.00    +0.000 OA
ATOM     31  N   UNL     1      -1.905  12.575  19.242  0.00  0.00    +0.000 N 
ATOM     32  C   UNL     1      -2.855  11.442  19.160  0.00  0.00    +0.000 C 
ENDBRANCH  18  19
ENDBRANCH   3  18
TORSDOF 11
ENDMDL
MODEL 6
REMARK VINA RESULT:      -6.9      1.483      1.661
REMARK  Name = 
REMARK  15 active torsions:
REMARK  status: ('A' for Active; 'I' for Inactive)
REMARK    1  A    between atoms: C_1  and  C_2
REMARK    2  A    between atoms: C_2  and  O_3
REMARK    3  A    between atoms: O_3  and  P_4
REMARK    4  A    between atoms: P_4  and  C_6
REMARK    5  A    between atoms: P_4  and  O_30
REMARK    6  A    between atoms: C_6  and  C_7
REMARK    7  A    between atoms: C_7  and  C_8
REMARK    8  A    between atoms: C_8  and  C_9
REMARK    9  A    between atoms: C_9  and  N_10
REMARK   10  A    between atoms: C_12  and  C_13
REMARK   11  A    between atoms: C_13  and  N_14
REMARK   12  A    between atoms: N_22  and  C_23
REMARK   13  A    between atoms: N_26  and  C_27
REMARK   14  A    between atoms: O_30  and  C_31
REMARK   15  A    between atoms: C_31  and  C_32
REMARK                            x       y       z     vdW  Elec       q    Type
REMARK                         _______ _______ _______ _____ _____    ______ ____
ROOT
ATOM      1  N   UNL     1       8.339   8.376  18.433  0.00  0.00    +0.000 N 
ATOM      2  C   UNL     1       8.198   7.087  18.848  0.00  0.00    +0.000 A 
ATOM      3  C   UNL     1       7.390   6.513  17.893  0.00  0.00    +0.000 A 
ATOM      4  N   UNL     1       7.140   7.449  16.908  0.00  0.00    +0.000 NA
ATOM      5  N   UNL     1       7.736   8.584  17.251  0.00  0.00    +0.000 NA
ENDROOT
BRANCH   1   6
ATOM      6  C   UNL     1       9.023   9.458  19.115  0.00  0.00    +0.000 C 
BRANCH   6   7
ATOM      7  C   UNL     1       8.813  10.765  18.364  0.00  0.00    +0.000 C 
BRANCH   7   8
ATOM      8  C   UNL     1       9.496  11.966  19.019  0.00  0.00    +0.000 C 
BRANCH   8   9
ATOM      9  C   UNL     1       8.563  13.187  18.930  0.00  0.00    +0.000 C 
BRANCH   9  10
ATOM     10  P   UNL     1       9.483  14.865  18.820  0.00  0.00    +0.000 P 
ATOM     11  O   UNL     1      10.751  14.711  19.671  0.00  0.00    +0.000 OA
BRANCH  10  12
ATOM     12  O   UNL     1       8.581  15.297  20.231  0.00  0.00    +0.000 OA
BRANCH  12  14
ATOM     13  C   UNL     1       6.321  15.062  21.006  0.00  0.00    +0.000 C 
ATOM     14  C   UNL     1       7.224  15.602  19.921  0.00  0.00    +0.000 C 
ENDBRANCH  12  14
ENDBRANCH  10  12
BRANCH  10  15
ATOM     15  O   UNL     1      10.387  14.433  17.409  0.00  0.00    +0.000 OA
BRANCH  15  16
ATOM     16  C   UNL     1      11.804  14.340  17.448  0.00  0.00    +0.000 C 
ATOM     17  C   UNL     1      12.333  13.353  16.426  0.00  0.00    +0.000 C 
ENDBRANCH  15  16
ENDBRANCH  10  15
ENDBRANCH   9  10
ENDBRANCH   8   9
ENDBRANCH   7   8
ENDBRANCH   6   7
ENDBRANCH   1   6
BRANCH   3  18
ATOM     18  C   UNL     1       6.681   5.212  17.887  0.00  0.00    +0.000 C 
BRANCH  18  19
ATOM     19  N   UNL     1       5.229   5.223  17.588  0.00  0.00    +0.000 N 
ATOM     20  C   UNL     1       4.919   4.520  16.421  0.00  0.00    +0.000 A 
ATOM     21 CL   UNL     1       5.373   5.140  14.908  0.00  0.00    +0.000 Cl
ATOM     22  N   UNL     1       4.533   3.297  16.718  0.00  0.00    +0.000 NA
ATOM     23  C   UNL     1       4.248   3.396  18.057  0.00  0.00    +0.000 A 
ATOM     24  C   UNL     1       4.248   4.710  18.423  0.00  0.00    +0.000 A 
ATOM     25  C   UNL     1       3.216   5.255  19.275  0.00  0.00    +0.000 A 
ATOM     26  O   UNL     1       3.170   6.413  19.642  0.00  0.00    +0.000 OA
ATOM     27  N   UNL     1       2.239   4.275  19.591  0.00  0.00    +0.000 N 
ATOM     28  C   UNL     1       1.167   4.534  20.524  0.00  0.00    +0.000 C 
ATOM     29  C   UNL     1       2.236   2.982  19.029  0.00  0.00    +0.000 A 
ATOM     30  O   UNL     1       1.228   2.295  18.877  0.00  0.00    +0.000 OA
ATOM     31  N   UNL     1       3.538   2.481  18.817  0.00  0.00    +0.000 N 
ATOM     32  C   UNL     1       4.148   2.230  20.142  0.00  0.00    +0.000 C 
ENDBRANCH  18  19
ENDBRANCH   3  18
TORSDOF 11
ENDMDL
MODEL 7
REMARK VINA RESULT:      -6.9      6.740      9.791
REMARK  Name = 
REMARK  15 active torsions:
REMARK  status: ('A' for Active; 'I' for Inactive)
REMARK    1  A    between atoms: C_1  and  C_2
REMARK    2  A    between atoms: C_2  and  O_3
REMARK    3  A    between atoms: O_3  and  P_4
REMARK    4  A    between atoms: P_4  and  C_6
REMARK    5  A    between atoms: P_4  and  O_30
REMARK    6  A    between atoms: C_6  and  C_7
REMARK    7  A    between atoms: C_7  and  C_8
REMARK    8  A    between atoms: C_8  and  C_9
REMARK    9  A    between atoms: C_9  and  N_10
REMARK   10  A    between atoms: C_12  and  C_13
REMARK   11  A    between atoms: C_13  and  N_14
REMARK   12  A    between atoms: N_22  and  C_23
REMARK   13  A    between atoms: N_26  and  C_27
REMARK   14  A    between atoms: O_30  and  C_31
REMARK   15  A    between atoms: C_31  and  C_32
REMARK                            x       y       z     vdW  Elec       q    Type
REMARK                         _______ _______ _______ _____ _____    ______ ____
ROOT
ATOM      1  N   UNL     1       2.368   7.399  19.213  0.00  0.00    +0.000 N 
ATOM      2  C   UNL     1       1.644   8.125  20.111  0.00  0.00    +0.000 A 
ATOM      3  C   UNL     1       1.268   9.247  19.409  0.00  0.00    +0.000 A 
ATOM      4  N   UNL     1       1.709   9.121  18.106  0.00  0.00    +0.000 NA
ATOM      5  N   UNL     1       2.376   7.978  18.002  0.00  0.00    +0.000 NA
ENDROOT
BRANCH   1   6
ATOM      6  C   UNL     1       3.082   6.158  19.445  0.00  0.00    +0.000 C 
BRANCH   6   7
ATOM      7  C   UNL     1       3.041   5.290  18.196  0.00  0.00    +0.000 C 
BRANCH   7   8
ATOM      8  C   UNL     1       4.346   4.539  17.928  0.00  0.00    +0.000 C 
BRANCH   8   9
ATOM      9  C   UNL     1       5.533   5.437  18.319  0.00  0.00    +0.000 C 
BRANCH   9  10
ATOM     10  P   UNL     1       6.919   5.516  16.997  0.00  0.00    +0.000 P 
ATOM     11  O   UNL     1       7.968   4.480  17.419  0.00  0.00    +0.000 OA
BRANCH  10  12
ATOM     12  O   UNL     1       7.653   6.691  18.033  0.00  0.00    +0.000 OA
BRANCH  12  14
ATOM     13  C   UNL     1       8.423   8.947  18.315  0.00  0.00    +0.000 C 
ATOM     14  C   UNL     1       7.600   7.999  17.472  0.00  0.00    +0.000 C 
ENDBRANCH  12  14
ENDBRANCH  10  12
BRANCH  10  15
ATOM     15  O   UNL     1       6.185   4.340  15.960  0.00  0.00    +0.000 OA
BRANCH  15  16
ATOM     16  C   UNL     1       6.642   4.154  14.628  0.00  0.00    +0.000 C 
ATOM     17  C   UNL     1       5.492   4.017  13.651  0.00  0.00    +0.000 C 
ENDBRANCH  15  16
ENDBRANCH  10  15
ENDBRANCH   9  10
ENDBRANCH   8   9
ENDBRANCH   7   8
ENDBRANCH   6   7
ENDBRANCH   1   6
BRANCH   3  18
ATOM     18  C   UNL     1       0.671  10.520  19.877  0.00  0.00    +0.000 C 
BRANCH  18  19
ATOM     19  N   UNL     1       0.393  11.563  18.860  0.00  0.00    +0.000 N 
ATOM     20  C   UNL     1      -0.949  11.587  18.474  0.00  0.00    +0.000 A 
ATOM     21 CL   UNL     1      -1.589  10.318  17.545  0.00  0.00    +0.000 Cl
ATOM     22  N   UNL     1      -1.599  12.510  19.148  0.00  0.00    +0.000 NA
ATOM     23  C   UNL     1      -0.579  13.282  19.647  0.00  0.00    +0.000 A 
ATOM     24  C   UNL     1       0.593  12.922  19.050  0.00  0.00    +0.000 A 
ATOM     25  C   UNL     1       1.534  13.912  18.579  0.00  0.00    +0.000 A 
ATOM     26  O   UNL     1       2.597  13.650  18.050  0.00  0.00    +0.000 OA
ATOM     27  N   UNL     1       1.037  15.227  18.772  0.00  0.00    +0.000 N 
ATOM     28  C   UNL     1       1.838  16.397  18.494  0.00  0.00    +0.000 C 
ATOM     29  C   UNL     1      -0.262  15.497  19.248  0.00  0.00    +0.000 A 
ATOM     30  O   UNL     1      -0.895  16.519  18.992  0.00  0.00    +0.000 OA
ATOM     31  N   UNL     1      -0.699  14.548  20.197  0.00  0.00    +0.000 N 
ATOM     32  C   UNL     1       0.112  14.726  21.422  0.00  0.00    +0.000 C 
ENDBRANCH  18  19
ENDBRANCH   3  18
TORSDOF 11
ENDMDL
MODEL 8
REMARK VINA RESULT:      -6.8      6.502      9.861
REMARK  Name = 
REMARK  15 active torsions:
REMARK  status: ('A' for Active; 'I' for Inactive)
REMARK    1  A    between atoms: C_1  and  C_2
REMARK    2  A    between atoms: C_2  and  O_3
REMARK    3  A    between atoms: O_3  and  P_4
REMARK    4  A    between atoms: P_4  and  C_6
REMARK    5  A    between atoms: P_4  and  O_30
REMARK    6  A    between atoms: C_6  and  C_7
REMARK    7  A    between atoms: C_7  and  C_8
REMARK    8  A    between atoms: C_8  and  C_9
REMARK    9  A    between atoms: C_9  and  N_10
REMARK   10  A    between atoms: C_12  and  C_13
REMARK   11  A    between atoms: C_13  and  N_14
REMARK   12  A    between atoms: N_22  and  C_23
REMARK   13  A    between atoms: N_26  and  C_27
REMARK   14  A    between atoms: O_30  and  C_31
REMARK   15  A    between atoms: C_31  and  C_32
REMARK                            x       y       z     vdW  Elec       q    Type
REMARK                         _______ _______ _______ _____ _____    ______ ____
ROOT
ATOM      1  N   UNL     1       2.730   7.186  18.624  0.00  0.00    +0.000 N 
ATOM      2  C   UNL     1       2.207   8.415  18.355  0.00  0.00    +0.000 A 
ATOM      3  C   UNL     1       1.500   8.735  19.492  0.00  0.00    +0.000 A 
ATOM      4  N   UNL     1       1.685   7.731  20.422  0.00  0.00    +0.000 NA
ATOM      5  N   UNL     1       2.447   6.793  19.876  0.00  0.00    +0.000 NA
ENDROOT
BRANCH   1   6
ATOM      6  C   UNL     1       3.494   6.333  17.735  0.00  0.00    +0.000 C 
BRANCH   6   7
ATOM      7  C   UNL     1       3.544   4.915  18.286  0.00  0.00    +0.000 C 
BRANCH   7   8
ATOM      8  C   UNL     1       4.791   4.136  17.864  0.00  0.00    +0.000 C 
BRANCH   8   9
ATOM      9  C   UNL     1       4.748   3.904  16.342  0.00  0.00    +0.000 C 
BRANCH   9  10
ATOM     10  P   UNL     1       6.235   4.659  15.397  0.00  0.00    +0.000 P 
ATOM     11  O   UNL     1       5.911   6.148  15.215  0.00  0.00    +0.000 OA
BRANCH  10  12
ATOM     12  O   UNL     1       5.341   4.283  13.965  0.00  0.00    +0.000 OA
BRANCH  12  14
ATOM     13  C   UNL     1       7.109   4.486  12.355  0.00  0.00    +0.000 C 
ATOM     14  C   UNL     1       6.126   3.554  13.026  0.00  0.00    +0.000 C 
ENDBRANCH  12  14
ENDBRANCH  10  12
BRANCH  10  15
ATOM     15  O   UNL     1       7.129   5.036  16.830  0.00  0.00    +0.000 OA
BRANCH  15  16
ATOM     16  C   UNL     1       7.325   6.383  17.237  0.00  0.00    +0.000 C 
ATOM     17  C   UNL     1       7.805   6.476  18.671  0.00  0.00    +0.000 C 
ENDBRANCH  15  16
ENDBRANCH  10  15
ENDBRANCH   9  10
ENDBRANCH   8   9
ENDBRANCH   7   8
ENDBRANCH   6   7
ENDBRANCH   1   6
BRANCH   3  18
ATOM     18  C   UNL     1       0.522   9.819  19.743  0.00  0.00    +0.000 C 
BRANCH  18  19
ATOM     19  N   UNL     1       0.400  10.885  18.720  0.00  0.00    +0.000 N 
ATOM     20  C   UNL     1      -0.905  11.016  18.239  0.00  0.00    +0.000 A 
ATOM     21 CL   UNL     1      -1.573   9.806  17.253  0.00  0.00    +0.000 Cl
ATOM     22  N   UNL     1      -1.528  11.985  18.875  0.00  0.00    +0.000 NA
ATOM     23  C   UNL     1      -0.489  12.672  19.453  0.00  0.00    +0.000 A 
ATOM     24  C   UNL     1       0.691  12.224  18.938  0.00  0.00    +0.000 A 
ATOM     25  C   UNL     1       1.738  13.140  18.546  0.00  0.00    +0.000 A 
ATOM     26  O   UNL     1       2.813  12.797  18.091  0.00  0.00    +0.000 OA
ATOM     27  N   UNL     1       1.332  14.488  18.716  0.00  0.00    +0.000 N 
ATOM     28  C   UNL     1       2.239  15.594  18.509  0.00  0.00    +0.000 C 
ATOM     29  C   UNL     1       0.027  14.857  19.101  0.00  0.00    +0.000 A 
ATOM     30  O   UNL     1      -0.504  15.927  18.811  0.00  0.00    +0.000 OA
ATOM     31  N   UNL     1      -0.550  13.941  20.006  0.00  0.00    +0.000 N 
ATOM     32  C   UNL     1       0.182  14.049  21.288  0.00  0.00    +0.000 C 
ENDBRANCH  18  19
ENDBRANCH   3  18
TORSDOF 11
ENDMDL
MODEL 9
REMARK VINA RESULT:      -6.8      7.126     10.750
REMARK  Name = 
REMARK  15 active torsions:
REMARK  status: ('A' for Active; 'I' for Inactive)
REMARK    1  A    between atoms: C_1  and  C_2
REMARK    2  A    between atoms: C_2  and  O_3
REMARK    3  A    between atoms: O_3  and  P_4
REMARK    4  A    between atoms: P_4  and  C_6
REMARK    5  A    between atoms: P_4  and  O_30
REMARK    6  A    between atoms: C_6  and  C_7
REMARK    7  A    between atoms: C_7  and  C_8
REMARK    8  A    between atoms: C_8  and  C_9
REMARK    9  A    between atoms: C_9  and  N_10
REMARK   10  A    between atoms: C_12  and  C_13
REMARK   11  A    between atoms: C_13  and  N_14
REMARK   12  A    between atoms: N_22  and  C_23
REMARK   13  A    between atoms: N_26  and  C_27
REMARK   14  A    between atoms: O_30  and  C_31
REMARK   15  A    between atoms: C_31  and  C_32
REMARK                            x       y       z     vdW  Elec       q    Type
REMARK                         _______ _______ _______ _____ _____    ______ ____
ROOT
ATOM      1  N   UNL     1       2.090   8.266  18.464  0.00  0.00    +0.000 N 
ATOM      2  C   UNL     1       1.674   8.637  19.707  0.00  0.00    +0.000 A 
ATOM      3  C   UNL     1       1.169   9.905  19.528  0.00  0.00    +0.000 A 
ATOM      4  N   UNL     1       1.229  10.216  18.183  0.00  0.00    +0.000 NA
ATOM      5  N   UNL     1       1.790   9.197  17.544  0.00  0.00    +0.000 NA
ENDROOT
BRANCH   1   6
ATOM      6  C   UNL     1       2.785   7.050  18.087  0.00  0.00    +0.000 C 
BRANCH   6   7
ATOM      7  C   UNL     1       2.966   6.152  19.302  0.00  0.00    +0.000 C 
BRANCH   7   8
ATOM      8  C   UNL     1       4.312   5.429  19.336  0.00  0.00    +0.000 C 
BRANCH   8   9
ATOM      9  C   UNL     1       4.070   3.922  19.536  0.00  0.00    +0.000 C 
BRANCH   9  10
ATOM     10  P   UNL     1       3.960   2.928  17.900  0.00  0.00    +0.000 P 
ATOM     11  O   UNL     1       2.921   3.650  17.033  0.00  0.00    +0.000 OA
BRANCH  10  12
ATOM     12  O   UNL     1       2.700   2.040  18.684  0.00  0.00    +0.000 OA
BRANCH  12  14
ATOM     13  C   UNL     1       0.772   2.958  19.781  0.00  0.00    +0.000 C 
ATOM     14  C   UNL     1       1.420   2.622  18.457  0.00  0.00    +0.000 C 
ENDBRANCH  12  14
ENDBRANCH  10  12
BRANCH  10  15
ATOM     15  O   UNL     1       5.221   3.817  17.116  0.00  0.00    +0.000 OA
BRANCH  15  16
ATOM     16  C   UNL     1       5.018   4.399  15.836  0.00  0.00    +0.000 C 
ATOM     17  C   UNL     1       6.062   3.942  14.837  0.00  0.00    +0.000 C 
ENDBRANCH  15  16
ENDBRANCH  10  15
ENDBRANCH   9  10
ENDBRANCH   8   9
ENDBRANCH   7   8
ENDBRANCH   6   7
ENDBRANCH   1   6
BRANCH   3  18
ATOM     18  C   UNL     1       0.782  10.936  20.518  0.00  0.00    +0.000 C 
BRANCH  18  19
ATOM     19  N   UNL     1      -0.598  10.885  21.059  0.00  0.00    +0.000 N 
ATOM     20  C   UNL     1      -0.670  10.202  22.275  0.00  0.00    +0.000 A 
ATOM     21 CL   UNL     1      -0.444   8.520  22.321  0.00  0.00    +0.000 Cl
ATOM     22  N   UNL     1      -0.641  11.054  23.276  0.00  0.00    +0.000 NA
ATOM     23  C   UNL     1      -0.939  12.243  22.658  0.00  0.00    +0.000 A 
ATOM     24  C   UNL     1      -1.359  11.997  21.385  0.00  0.00    +0.000 A 
ATOM     25  C   UNL     1      -2.509  12.673  20.827  0.00  0.00    +0.000 A 
ATOM     26  O   UNL     1      -2.922  12.501  19.696  0.00  0.00    +0.000 OA
ATOM     27  N   UNL     1      -3.117  13.526  21.783  0.00  0.00    +0.000 N 
ATOM     28  C   UNL     1      -4.213  14.404  21.439  0.00  0.00    +0.000 C 
ATOM     29  C   UNL     1      -2.707  13.590  23.130  0.00  0.00    +0.000 A 
ATOM     30  O   UNL     1      -3.442  13.905  24.064  0.00  0.00    +0.000 OA
ATOM     31  N   UNL     1      -1.314  13.423  23.280  0.00  0.00    +0.000 N 
ATOM     32  C   UNL     1      -0.651  14.616  22.709  0.00  0.00    +0.000 C 
ENDBRANCH  18  19
ENDBRANCH   3  18
TORSDOF 11
ENDMDL
