MODEL 1
REMARK VINA RESULT:      -6.7      0.000      0.000
REMARK  Name = 
REMARK  12 active torsions:
REMARK  status: ('A' for Active; 'I' for Inactive)
REMARK    1  A    between atoms: C_1  and  C_2
REMARK    2  A    between atoms: C_2  and  C_3
REMARK    3  A    between atoms: C_3  and  C_4
REMARK    4  A    between atoms: C_4  and  N_5
REMARK    5  A    between atoms: C_13  and  N_14
REMARK    6  A    between atoms: C_15  and  C_17
REMARK    7  A    between atoms: C_17  and  N_18
REMARK    8  A    between atoms: N_18  and  C_19
REMARK    9  A    between atoms: C_19  and  C_20
REMARK   10  A    between atoms: C_20  and  C_21
REMARK   11  A    between atoms: C_21  and  C_22
REMARK   12  A    between atoms: C_22  and  N_23
REMARK                            x       y       z     vdW  Elec       q    Type
REMARK                         _______ _______ _______ _____ _____    ______ ____
ROOT
ATOM      1  N   UNL     1       4.081   4.171  17.227  0.00  0.00    +0.000 N 
ATOM      2  C   UNL     1       3.647   3.022  17.923  0.00  0.00    +0.000 C 
ATOM      3  O   UNL     1       3.913   1.856  17.639  0.00  0.00    +0.000 OA
ATOM      4  C   UNL     1       2.814   3.579  18.964  0.00  0.00    +0.000 A 
ATOM      5  C   UNL     1       2.064   2.920  19.929  0.00  0.00    +0.000 A 
ATOM      6  C   UNL     1       1.253   3.717  20.735  0.00  0.00    +0.000 A 
ATOM      7  C   UNL     1       1.227   5.117  20.588  0.00  0.00    +0.000 A 
ATOM      8  C   UNL     1       2.071   5.808  19.680  0.00  0.00    +0.000 A 
ATOM      9  C   UNL     1       2.258   7.204  19.422  0.00  0.00    +0.000 A 
ATOM     10  C   UNL     1       3.078   7.599  18.327  0.00  0.00    +0.000 A 
ATOM     11  C   UNL     1       3.741   6.677  17.489  0.00  0.00    +0.000 A 
ATOM     12  C   UNL     1       3.584   5.342  17.813  0.00  0.00    +0.000 A 
ATOM     13  C   UNL     1       2.795   4.963  18.881  0.00  0.00    +0.000 A 
ENDROOT
BRANCH   9  14
ATOM     14  N   UNL     1       1.699   8.276  20.175  0.00  0.00    +0.000 N 
ATOM     15  C   UNL     1       1.034   9.394  19.701  0.00  0.00    +0.000 C 
ATOM     16  O   UNL     1       0.762   9.654  18.532  0.00  0.00    +0.000 OA
ATOM     17  H   UNL     1       1.582   8.093  21.164  0.00  0.00    +0.000 HD
BRANCH  15  18
ATOM     18  C   UNL     1       0.462  10.301  20.799  0.00  0.00    +0.000 C 
BRANCH  18  19
ATOM     19  N   UNL     1      -0.825  10.866  20.337  0.00  0.00    +0.000 NA
ATOM     20  H   UNL     1      -1.538  10.527  20.993  0.00  0.00    +0.000 HD
BRANCH  19  21
ATOM     21  C   UNL     1      -0.811  12.330  20.415  0.00  0.00    +0.000 C 
BRANCH  21  22
ATOM     22  C   UNL     1       0.614  12.862  20.282  0.00  0.00    +0.000 C 
BRANCH  22  23
ATOM     23  C   UNL     1       0.874  13.287  18.836  0.00  0.00    +0.000 C 
BRANCH  23  24
ATOM     24  C   UNL     1       2.338  13.116  18.450  0.00  0.00    +0.000 C 
BRANCH  24  25
ATOM     25  N   UNL     1       2.475  11.971  17.560  0.00  0.00    +0.000 NA
ATOM     26  H   UNL     1       3.115  12.201  16.799  0.00  0.00    +0.000 HD
ATOM     27  H   UNL     1       1.576  11.771  17.123  0.00  0.00    +0.000 HD
ENDBRANCH  24  25
ENDBRANCH  23  24
ENDBRANCH  22  23
ENDBRANCH  21  22
ENDBRANCH  19  21
ENDBRANCH  18  19
ENDBRANCH  15  18
ENDBRANCH   9  14
BRANCH   1  28
ATOM     28  C   UNL     1       4.792   4.067  15.971  0.00  0.00    +0.000 C 
BRANCH  28  29
ATOM     29  C   UNL     1       6.297   3.899  16.147  0.00  0.00    +0.000 C 
BRANCH  29  31
ATOM     30  C   UNL     1       7.482   5.194  17.938  0.00  0.00    +0.000 C 
ATOM     31  C   UNL     1       6.968   5.223  16.508  0.00  0.00    +0.000 C 
ENDBRANCH  29  31
ENDBRANCH  28  29
ENDBRANCH   1  28
TORSDOF 11
ENDMDL
MODEL 2
REMARK VINA RESULT:      -6.6      1.393      1.567
REMARK  Name = 
REMARK  12 active torsions:
REMARK  status: ('A' for Active; 'I' for Inactive)
REMARK    1  A    between atoms: C_1  and  C_2
REMARK    2  A    between atoms: C_2  and  C_3
REMARK    3  A    between atoms: C_3  and  C_4
REMARK    4  A    between atoms: C_4  and  N_5
REMARK    5  A    between atoms: C_13  and  N_14
REMARK    6  A    between atoms: C_15  and  C_17
REMARK    7  A    between atoms: C_17  and  N_18
REMARK    8  A    between atoms: N_18  and  C_19
REMARK    9  A    between atoms: C_19  and  C_20
REMARK   10  A    between atoms: C_20  and  C_21
REMARK   11  A    between atoms: C_21  and  C_22
REMARK   12  A    between atoms: C_22  and  N_23
REMARK                            x       y       z     vdW  Elec       q    Type
REMARK                         _______ _______ _______ _____ _____    ______ ____
ROOT
ATOM      1  N   UNL     1       4.044   3.995  17.263  0.00  0.00    +0.000 N 
ATOM      2  C   UNL     1       3.594   2.815  17.894  0.00  0.00    +0.000 C 
ATOM      3  O   UNL     1       3.826   1.664  17.531  0.00  0.00    +0.000 OA
ATOM      4  C   UNL     1       2.794   3.324  18.983  0.00  0.00    +0.000 A 
ATOM      5  C   UNL     1       2.045   2.623  19.919  0.00  0.00    +0.000 A 
ATOM      6  C   UNL     1       1.269   3.387  20.790  0.00  0.00    +0.000 A 
ATOM      7  C   UNL     1       1.275   4.793  20.732  0.00  0.00    +0.000 A 
ATOM      8  C   UNL     1       2.120   5.521  19.853  0.00  0.00    +0.000 A 
ATOM      9  C   UNL     1       2.337   6.925  19.681  0.00  0.00    +0.000 A 
ATOM     10  C   UNL     1       3.148   7.369  18.597  0.00  0.00    +0.000 A 
ATOM     11  C   UNL     1       3.772   6.487  17.689  0.00  0.00    +0.000 A 
ATOM     12  C   UNL     1       3.587   5.138  17.932  0.00  0.00    +0.000 A 
ATOM     13  C   UNL     1       2.808   4.710  18.989  0.00  0.00    +0.000 A 
ENDROOT
BRANCH   9  14
ATOM     14  N   UNL     1       1.819   7.960  20.510  0.00  0.00    +0.000 N 
ATOM     15  C   UNL     1       1.103   9.081  20.127  0.00  0.00    +0.000 C 
ATOM     16  O   UNL     1       0.739   9.375  18.992  0.00  0.00    +0.000 OA
ATOM     17  H   UNL     1       1.780   7.741  21.499  0.00  0.00    +0.000 HD
BRANCH  15  18
ATOM     18  C   UNL     1       0.599   9.938  21.297  0.00  0.00    +0.000 C 
BRANCH  18  19
ATOM     19  N   UNL     1      -0.742  10.468  20.965  0.00  0.00    +0.000 NA
ATOM     20  H   UNL     1      -1.305  10.375  21.819  0.00  0.00    +0.000 HD
BRANCH  19  21
ATOM     21  C   UNL     1      -0.673  11.895  20.633  0.00  0.00    +0.000 C 
BRANCH  21  22
ATOM     22  C   UNL     1      -1.818  12.287  19.702  0.00  0.00    +0.000 C 
BRANCH  22  23
ATOM     23  C   UNL     1      -1.312  12.350  18.260  0.00  0.00    +0.000 C 
BRANCH  23  24
ATOM     24  C   UNL     1      -1.964  11.286  17.385  0.00  0.00    +0.000 C 
BRANCH  24  25
ATOM     25  N   UNL     1      -2.135  10.061  18.156  0.00  0.00    +0.000 NA
ATOM     26  H   UNL     1      -2.668  10.259  19.003  0.00  0.00    +0.000 HD
ATOM     27  H   UNL     1      -1.224   9.727  18.467  0.00  0.00    +0.000 HD
ENDBRANCH  24  25
ENDBRANCH  23  24
ENDBRANCH  22  23
ENDBRANCH  21  22
ENDBRANCH  19  21
ENDBRANCH  18  19
ENDBRANCH  15  18
ENDBRANCH   9  14
BRANCH   1  28
ATOM     28  C   UNL     1       4.730   3.955  15.989  0.00  0.00    +0.000 C 
BRANCH  28  29
ATOM     29  C   UNL     1       6.248   3.942  16.127  0.00  0.00    +0.000 C 
BRANCH  29  31
ATOM     30  C   UNL     1       7.303   6.057  16.968  0.00  0.00    +0.000 C 
ATOM     31  C   UNL     1       6.856   5.288  15.735  0.00  0.00    +0.000 C 
ENDBRANCH  29  31
ENDBRANCH  28  29
ENDBRANCH   1  28
TORSDOF 11
ENDMDL
MODEL 3
REMARK VINA RESULT:      -6.6      2.218      2.583
REMARK  Name = 
REMARK  12 active torsions:
REMARK  status: ('A' for Active; 'I' for Inactive)
REMARK    1  A    between atoms: C_1  and  C_2
REMARK    2  A    between atoms: C_2  and  C_3
REMARK    3  A    between atoms: C_3  and  C_4
REMARK    4  A    between atoms: C_4  and  N_5
REMARK    5  A    between atoms: C_13  and  N_14
REMARK    6  A    between atoms: C_15  and  C_17
REMARK    7  A    between atoms: C_17  and  N_18
REMARK    8  A    between atoms: N_18  and  C_19
REMARK    9  A    between atoms: C_19  and  C_20
REMARK   10  A    between atoms: C_20  and  C_21
REMARK   11  A    between atoms: C_21  and  C_22
REMARK   12  A    between atoms: C_22  and  N_23
REMARK                            x       y       z     vdW  Elec       q    Type
REMARK                         _______ _______ _______ _____ _____    ______ ____
ROOT
ATOM      1  N   UNL     1       4.988   4.373  18.162  0.00  0.00    +0.000 N 
ATOM      2  C   UNL     1       4.596   3.399  19.105  0.00  0.00    +0.000 C 
ATOM      3  O   UNL     1       5.100   2.288  19.254  0.00  0.00    +0.000 OA
ATOM      4  C   UNL     1       3.474   4.028  19.761  0.00  0.00    +0.000 A 
ATOM      5  C   UNL     1       2.639   3.518  20.747  0.00  0.00    +0.000 A 
ATOM      6  C   UNL     1       1.553   4.311  21.112  0.00  0.00    +0.000 A 
ATOM      7  C   UNL     1       1.339   5.572  20.526  0.00  0.00    +0.000 A 
ATOM      8  C   UNL     1       2.246   6.150  19.597  0.00  0.00    +0.000 A 
ATOM      9  C   UNL     1       2.263   7.424  18.944  0.00  0.00    +0.000 A 
ATOM     10  C   UNL     1       3.235   7.666  17.932  0.00  0.00    +0.000 A 
ATOM     11  C   UNL     1       4.207   6.715  17.553  0.00  0.00    +0.000 A 
ATOM     12  C   UNL     1       4.193   5.523  18.254  0.00  0.00    +0.000 A 
ATOM     13  C   UNL     1       3.255   5.294  19.241  0.00  0.00    +0.000 A 
ENDROOT
BRANCH   9  14
ATOM     14  N   UNL     1       1.387   8.514  19.213  0.00  0.00    +0.000 N 
ATOM     15  C   UNL     1       1.079   9.076  20.439  0.00  0.00    +0.000 C 
ATOM     16  O   UNL     1       1.540   8.765  21.534  0.00  0.00    +0.000 OA
ATOM     17  H   UNL     1       1.136   9.075  18.407  0.00  0.00    +0.000 HD
BRANCH  15  18
ATOM     18  C   UNL     1       0.178  10.317  20.357  0.00  0.00    +0.000 C 
BRANCH  18  19
ATOM     19  N   UNL     1      -0.335  10.450  18.975  0.00  0.00    +0.000 NA
ATOM     20  H   UNL     1      -0.489   9.493  18.635  0.00  0.00    +0.000 HD
BRANCH  19  21
ATOM     21  C   UNL     1      -1.630  11.137  18.963  0.00  0.00    +0.000 C 
BRANCH  21  22
ATOM     22  C   UNL     1      -2.632  10.381  18.093  0.00  0.00    +0.000 C 
BRANCH  22  23
ATOM     23  C   UNL     1      -1.932   9.851  16.841  0.00  0.00    +0.000 C 
BRANCH  23  24
ATOM     24  C   UNL     1      -2.822   9.952  15.609  0.00  0.00    +0.000 C 
BRANCH  24  25
ATOM     25  N   UNL     1      -3.146  11.350  15.356  0.00  0.00    +0.000 NA
ATOM     26  H   UNL     1      -3.637  11.434  14.466  0.00  0.00    +0.000 HD
ATOM     27  H   UNL     1      -2.284  11.885  15.255  0.00  0.00    +0.000 HD
ENDBRANCH  24  25
ENDBRANCH  23  24
ENDBRANCH  22  23
ENDBRANCH  21  22
ENDBRANCH  19  21
ENDBRANCH  18  19
ENDBRANCH  15  18
ENDBRANCH   9  14
BRANCH   1  28
ATOM     28  C   UNL     1       5.970   4.081  17.140  0.00  0.00    +0.000 C 
BRANCH  28  29
ATOM     29  C   UNL     1       5.347   3.667  15.812  0.00  0.00    +0.000 C 
BRANCH  29  31
ATOM     30  C   UNL     1       7.076   4.971  14.548  0.00  0.00    +0.000 C 
ATOM     31  C   UNL     1       5.588   4.718  14.730  0.00  0.00    +0.000 C 
ENDBRANCH  29  31
ENDBRANCH  28  29
ENDBRANCH   1  28
TORSDOF 11
ENDMDL
MODEL 4
REMARK VINA RESULT:      -6.6      1.568      2.045
REMARK  Name = 
REMARK  12 active torsions:
REMARK  status: ('A' for Active; 'I' for Inactive)
REMARK    1  A    between atoms: C_1  and  C_2
REMARK    2  A    between atoms: C_2  and  C_3
REMARK    3  A    between atoms: C_3  and  C_4
REMARK    4  A    between atoms: C_4  and  N_5
REMARK    5  A    between atoms: C_13  and  N_14
REMARK    6  A    between atoms: C_15  and  C_17
REMARK    7  A    between atoms: C_17  and  N_18
REMARK    8  A    between atoms: N_18  and  C_19
REMARK    9  A    between atoms: C_19  and  C_20
REMARK   10  A    between atoms: C_20  and  C_21
REMARK   11  A    between atoms: C_21  and  C_22
REMARK   12  A    between atoms: C_22  and  N_23
REMARK                            x       y       z     vdW  Elec       q    Type
REMARK                         _______ _______ _______ _____ _____    ______ ____
ROOT
ATOM      1  N   UNL     1       4.192   3.695  17.354  0.00  0.00    +0.000 N 
ATOM      2  C   UNL     1       3.648   2.606  18.070  0.00  0.00    +0.000 C 
ATOM      3  O   UNL     1       3.857   1.415  17.851  0.00  0.00    +0.000 OA
ATOM      4  C   UNL     1       2.793   3.258  19.034  0.00  0.00    +0.000 A 
ATOM      5  C   UNL     1       1.948   2.690  19.979  0.00  0.00    +0.000 A 
ATOM      6  C   UNL     1       1.143   3.569  20.701  0.00  0.00    +0.000 A 
ATOM      7  C   UNL     1       1.213   4.960  20.495  0.00  0.00    +0.000 A 
ATOM      8  C   UNL     1       2.150   5.558  19.611  0.00  0.00    +0.000 A 
ATOM      9  C   UNL     1       2.438   6.928  19.307  0.00  0.00    +0.000 A 
ATOM     10  C   UNL     1       3.343   7.223  18.248  0.00  0.00    +0.000 A 
ATOM     11  C   UNL     1       3.994   6.226  17.490  0.00  0.00    +0.000 A 
ATOM     12  C   UNL     1       3.735   4.918  17.860  0.00  0.00    +0.000 A 
ATOM     13  C   UNL     1       2.864   4.636  18.893  0.00  0.00    +0.000 A 
ENDROOT
BRANCH   9  14
ATOM     14  N   UNL     1       1.904   8.064  19.980  0.00  0.00    +0.000 N 
ATOM     15  C   UNL     1       1.279   9.166  19.424  0.00  0.00    +0.000 C 
ATOM     16  O   UNL     1       1.026   9.355  18.237  0.00  0.00    +0.000 OA
ATOM     17  H   UNL     1       1.771   7.951  20.978  0.00  0.00    +0.000 HD
BRANCH  15  18
ATOM     18  C   UNL     1       0.723  10.161  20.453  0.00  0.00    +0.000 C 
BRANCH  18  19
ATOM     19  N   UNL     1      -0.675  10.493  20.097  0.00  0.00    +0.000 NA
ATOM     20  H   UNL     1      -1.260  10.100  20.843  0.00  0.00    +0.000 HD
BRANCH  19  21
ATOM     21  C   UNL     1      -0.882  11.945  20.090  0.00  0.00    +0.000 C 
BRANCH  21  22
ATOM     22  C   UNL     1      -1.194  12.437  18.678  0.00  0.00    +0.000 C 
BRANCH  22  23
ATOM     23  C   UNL     1      -2.446  11.734  18.152  0.00  0.00    +0.000 C 
BRANCH  23  24
ATOM     24  C   UNL     1      -2.220  11.135  16.769  0.00  0.00    +0.000 C 
BRANCH  24  25
ATOM     25  N   UNL     1      -3.416  11.320  15.958  0.00  0.00    +0.000 NA
ATOM     26  H   UNL     1      -3.151  11.616  15.018  0.00  0.00    +0.000 HD
ATOM     27  H   UNL     1      -3.975  12.079  16.346  0.00  0.00    +0.000 HD
ENDBRANCH  24  25
ENDBRANCH  23  24
ENDBRANCH  22  23
ENDBRANCH  21  22
ENDBRANCH  19  21
ENDBRANCH  18  19
ENDBRANCH  15  18
ENDBRANCH   9  14
BRANCH   1  28
ATOM     28  C   UNL     1       4.966   3.492  16.148  0.00  0.00    +0.000 C 
BRANCH  28  29
ATOM     29  C   UNL     1       6.335   4.161  16.197  0.00  0.00    +0.000 C 
BRANCH  29  31
ATOM     30  C   UNL     1       6.157   3.984  13.702  0.00  0.00    +0.000 C 
ATOM     31  C   UNL     1       6.686   4.814  14.861  0.00  0.00    +0.000 C 
ENDBRANCH  29  31
ENDBRANCH  28  29
ENDBRANCH   1  28
TORSDOF 11
ENDMDL
MODEL 5
REMARK VINA RESULT:      -6.5      2.662      3.012
REMARK  Name = 
REMARK  12 active torsions:
REMARK  status: ('A' for Active; 'I' for Inactive)
REMARK    1  A    between atoms: C_1  and  C_2
REMARK    2  A    between atoms: C_2  and  C_3
REMARK    3  A    between atoms: C_3  and  C_4
REMARK    4  A    between atoms: C_4  and  N_5
REMARK    5  A    between atoms: C_13  and  N_14
REMARK    6  A    between atoms: C_15  and  C_17
REMARK    7  A    between atoms: C_17  and  N_18
REMARK    8  A    between atoms: N_18  and  C_19
REMARK    9  A    between atoms: C_19  and  C_20
REMARK   10  A    between atoms: C_20  and  C_21
REMARK   11  A    between atoms: C_21  and  C_22
REMARK   12  A    between atoms: C_22  and  N_23
REMARK                            x       y       z     vdW  Elec       q    Type
REMARK                         _______ _______ _______ _____ _____    ______ ____
ROOT
ATOM      1  N   UNL     1       5.090   4.996  18.003  0.00  0.00    +0.000 N 
ATOM      2  C   UNL     1       4.789   4.060  19.016  0.00  0.00    +0.000 C 
ATOM      3  O   UNL     1       5.368   2.996  19.218  0.00  0.00    +0.000 OA
ATOM      4  C   UNL     1       3.646   4.657  19.668  0.00  0.00    +0.000 A 
ATOM      5  C   UNL     1       2.873   4.158  20.709  0.00  0.00    +0.000 A 
ATOM      6  C   UNL     1       1.747   4.902  21.058  0.00  0.00    +0.000 A 
ATOM      7  C   UNL     1       1.436   6.107  20.402  0.00  0.00    +0.000 A 
ATOM      8  C   UNL     1       2.277   6.682  19.412  0.00  0.00    +0.000 A 
ATOM      9  C   UNL     1       2.193   7.910  18.682  0.00  0.00    +0.000 A 
ATOM     10  C   UNL     1       3.119   8.150  17.628  0.00  0.00    +0.000 A 
ATOM     11  C   UNL     1       4.140   7.240  17.277  0.00  0.00    +0.000 A 
ATOM     12  C   UNL     1       4.224   6.097  18.050  0.00  0.00    +0.000 A 
ATOM     13  C   UNL     1       3.330   5.871  19.078  0.00  0.00    +0.000 A 
ENDROOT
BRANCH   9  14
ATOM     14  N   UNL     1       1.255   8.957  18.911  0.00  0.00    +0.000 N 
ATOM     15  C   UNL     1       1.360  10.289  18.550  0.00  0.00    +0.000 C 
ATOM     16  O   UNL     1       2.273  10.816  17.919  0.00  0.00    +0.000 OA
ATOM     17  H   UNL     1       0.323   8.653  19.167  0.00  0.00    +0.000 HD
BRANCH  15  18
ATOM     18  C   UNL     1       0.110  11.126  18.855  0.00  0.00    +0.000 C 
BRANCH  18  19
ATOM     19  N   UNL     1      -0.863  10.962  17.753  0.00  0.00    +0.000 NA
ATOM     20  H   UNL     1      -0.924   9.952  17.574  0.00  0.00    +0.000 HD
BRANCH  19  21
ATOM     21  C   UNL     1      -2.196  11.420  18.159  0.00  0.00    +0.000 C 
BRANCH  21  22
ATOM     22  C   UNL     1      -3.279  10.536  17.545  0.00  0.00    +0.000 C 
BRANCH  22  23
ATOM     23  C   UNL     1      -2.773   9.937  16.231  0.00  0.00    +0.000 C 
BRANCH  23  24
ATOM     24  C   UNL     1      -3.405  10.613  15.021  0.00  0.00    +0.000 C 
BRANCH  24  25
ATOM     25  N   UNL     1      -2.811  10.079  13.802  0.00  0.00    +0.000 NA
ATOM     26  H   UNL     1      -1.801   9.995  13.919  0.00  0.00    +0.000 HD
ATOM     27  H   UNL     1      -2.953  10.740  13.039  0.00  0.00    +0.000 HD
ENDBRANCH  24  25
ENDBRANCH  23  24
ENDBRANCH  22  23
ENDBRANCH  21  22
ENDBRANCH  19  21
ENDBRANCH  18  19
ENDBRANCH  15  18
ENDBRANCH   9  14
BRANCH   1  28
ATOM     28  C   UNL     1       6.061   4.703  16.971  0.00  0.00    +0.000 C 
BRANCH  28  29
ATOM     29  C   UNL     1       5.436   4.110  15.713  0.00  0.00    +0.000 C 
BRANCH  29  31
ATOM     30  C   UNL     1       5.821   3.833  13.251  0.00  0.00    +0.000 C 
ATOM     31  C   UNL     1       6.480   3.897  14.619  0.00  0.00    +0.000 C 
ENDBRANCH  29  31
ENDBRANCH  28  29
ENDBRANCH   1  28
TORSDOF 11
ENDMDL
MODEL 6
REMARK VINA RESULT:      -6.5      1.677      2.692
REMARK  Name = 
REMARK  12 active torsions:
REMARK  status: ('A' for Active; 'I' for Inactive)
REMARK    1  A    between atoms: C_1  and  C_2
REMARK    2  A    between atoms: C_2  and  C_3
REMARK    3  A    between atoms: C_3  and  C_4
REMARK    4  A    between atoms: C_4  and  N_5
REMARK    5  A    between atoms: C_13  and  N_14
REMARK    6  A    between atoms: C_15  and  C_17
REMARK    7  A    between atoms: C_17  and  N_18
REMARK    8  A    between atoms: N_18  and  C_19
REMARK    9  A    between atoms: C_19  and  C_20
REMARK   10  A    between atoms: C_20  and  C_21
REMARK   11  A    between atoms: C_21  and  C_22
REMARK   12  A    between atoms: C_22  and  N_23
REMARK                            x       y       z     vdW  Elec       q    Type
REMARK                         _______ _______ _______ _____ _____    ______ ____
ROOT
ATOM      1  N   UNL     1       3.971   3.896  17.319  0.00  0.00    +0.000 N 
ATOM      2  C   UNL     1       3.515   2.687  17.887  0.00  0.00    +0.000 C 
ATOM      3  O   UNL     1       3.734   1.555  17.461  0.00  0.00    +0.000 OA
ATOM      4  C   UNL     1       2.728   3.143  19.009  0.00  0.00    +0.000 A 
ATOM      5  C   UNL     1       1.979   2.398  19.912  0.00  0.00    +0.000 A 
ATOM      6  C   UNL     1       1.217   3.120  20.829  0.00  0.00    +0.000 A 
ATOM      7  C   UNL     1       1.235   4.527  20.848  0.00  0.00    +0.000 A 
ATOM      8  C   UNL     1       2.080   5.294  20.003  0.00  0.00    +0.000 A 
ATOM      9  C   UNL     1       2.309   6.705  19.905  0.00  0.00    +0.000 A 
ATOM     10  C   UNL     1       3.115   7.200  18.841  0.00  0.00    +0.000 A 
ATOM     11  C   UNL     1       3.725   6.363  17.882  0.00  0.00    +0.000 A 
ATOM     12  C   UNL     1       3.529   5.004  18.052  0.00  0.00    +0.000 A 
ATOM     13  C   UNL     1       2.755   4.526  19.090  0.00  0.00    +0.000 A 
ENDROOT
BRANCH   9  14
ATOM     14  N   UNL     1       1.806   7.697  20.794  0.00  0.00    +0.000 N 
ATOM     15  C   UNL     1       1.183   8.891  20.474  0.00  0.00    +0.000 C 
ATOM     16  O   UNL     1       0.905   9.303  19.350  0.00  0.00    +0.000 OA
ATOM     17  H   UNL     1       1.695   7.398  21.756  0.00  0.00    +0.000 HD
BRANCH  15  18
ATOM     18  C   UNL     1       0.664   9.677  21.686  0.00  0.00    +0.000 C 
BRANCH  18  19
ATOM     19  N   UNL     1       0.653  11.120  21.356  0.00  0.00    +0.000 NA
ATOM     20  H   UNL     1       0.930  11.189  20.370  0.00  0.00    +0.000 HD
BRANCH  19  21
ATOM     21  C   UNL     1      -0.700  11.673  21.477  0.00  0.00    +0.000 C 
BRANCH  21  22
ATOM     22  C   UNL     1      -1.156  11.665  22.935  0.00  0.00    +0.000 C 
BRANCH  22  23
ATOM     23  C   UNL     1      -1.774  13.019  23.289  0.00  0.00    +0.000 C 
BRANCH  23  24
ATOM     24  C   UNL     1      -3.143  13.201  22.646  0.00  0.00    +0.000 C 
BRANCH  24  25
ATOM     25  N   UNL     1      -4.096  12.288  23.265  0.00  0.00    +0.000 NA
ATOM     26  H   UNL     1      -5.001  12.370  22.802  0.00  0.00    +0.000 HD
ATOM     27  H   UNL     1      -4.248  12.564  24.234  0.00  0.00    +0.000 HD
ENDBRANCH  24  25
ENDBRANCH  23  24
ENDBRANCH  22  23
ENDBRANCH  21  22
ENDBRANCH  19  21
ENDBRANCH  18  19
ENDBRANCH  15  18
ENDBRANCH   9  14
BRANCH   1  28
ATOM     28  C   UNL     1       4.647   3.919  16.039  0.00  0.00    +0.000 C 
BRANCH  28  29
ATOM     29  C   UNL     1       6.156   4.092  16.162  0.00  0.00    +0.000 C 
BRANCH  29  31
ATOM     30  C   UNL     1       6.667   4.290  13.715  0.00  0.00    +0.000 C 
ATOM     31  C   UNL     1       6.707   4.996  15.060  0.00  0.00    +0.000 C 
ENDBRANCH  29  31
ENDBRANCH  28  29
ENDBRANCH   1  28
TORSDOF 11
ENDMDL
MODEL 7
REMARK VINA RESULT:      -6.5      2.567      7.982
REMARK  Name = 
REMARK  12 active torsions:
REMARK  status: ('A' for Active; 'I' for Inactive)
REMARK    1  A    between atoms: C_1  and  C_2
REMARK    2  A    between atoms: C_2  and  C_3
REMARK    3  A    between atoms: C_3  and  C_4
REMARK    4  A    between atoms: C_4  and  N_5
REMARK    5  A    between atoms: C_13  and  N_14
REMARK    6  A    between atoms: C_15  and  C_17
REMARK    7  A    between atoms: C_17  and  N_18
REMARK    8  A    between atoms: N_18  and  C_19
REMARK    9  A    between atoms: C_19  and  C_20
REMARK   10  A    between atoms: C_20  and  C_21
REMARK   11  A    between atoms: C_21  and  C_22
REMARK   12  A    between atoms: C_22  and  N_23
REMARK                            x       y       z     vdW  Elec       q    Type
REMARK                         _______ _______ _______ _____ _____    ______ ____
ROOT
ATOM      1  N   UNL     1      -0.988  11.140  18.968  0.00  0.00    +0.000 N 
ATOM      2  C   UNL     1      -1.396  11.393  20.295  0.00  0.00    +0.000 C 
ATOM      3  O   UNL     1      -2.227  12.224  20.654  0.00  0.00    +0.000 OA
ATOM      4  C   UNL     1      -0.570  10.487  21.058  0.00  0.00    +0.000 A 
ATOM      5  C   UNL     1      -0.486  10.329  22.436  0.00  0.00    +0.000 A 
ATOM      6  C   UNL     1       0.496   9.456  22.901  0.00  0.00    +0.000 A 
ATOM      7  C   UNL     1       1.332   8.755  22.012  0.00  0.00    +0.000 A 
ATOM      8  C   UNL     1       1.183   8.826  20.602  0.00  0.00    +0.000 A 
ATOM      9  C   UNL     1       1.862   8.157  19.534  0.00  0.00    +0.000 A 
ATOM     10  C   UNL     1       1.592   8.550  18.192  0.00  0.00    +0.000 A 
ATOM     11  C   UNL     1       0.665   9.560  17.856  0.00  0.00    +0.000 A 
ATOM     12  C   UNL     1      -0.014  10.135  18.915  0.00  0.00    +0.000 A 
ATOM     13  C   UNL     1       0.242   9.744  20.214  0.00  0.00    +0.000 A 
ENDROOT
BRANCH   9  14
ATOM     14  N   UNL     1       2.804   7.098  19.675  0.00  0.00    +0.000 N 
ATOM     15  C   UNL     1       2.550   5.760  19.921  0.00  0.00    +0.000 C 
ATOM     16  O   UNL     1       1.451   5.220  20.024  0.00  0.00    +0.000 OA
ATOM     17  H   UNL     1       3.738   7.304  19.342  0.00  0.00    +0.000 HD
BRANCH  15  18
ATOM     18  C   UNL     1       3.799   4.867  19.904  0.00  0.00    +0.000 C 
BRANCH  18  19
ATOM     19  N   UNL     1       4.498   5.040  18.611  0.00  0.00    +0.000 NA
ATOM     20  H   UNL     1       5.444   4.664  18.746  0.00  0.00    +0.000 HD
BRANCH  19  21
ATOM     21  C   UNL     1       3.853   4.248  17.558  0.00  0.00    +0.000 C 
BRANCH  21  22
ATOM     22  C   UNL     1       4.717   4.223  16.299  0.00  0.00    +0.000 C 
BRANCH  22  23
ATOM     23  C   UNL     1       6.195   4.295  16.686  0.00  0.00    +0.000 C 
BRANCH  23  24
ATOM     24  C   UNL     1       6.884   5.505  16.066  0.00  0.00    +0.000 C 
BRANCH  24  25
ATOM     25  N   UNL     1       5.976   6.645  16.087  0.00  0.00    +0.000 NA
ATOM     26  H   UNL     1       6.371   7.389  16.662  0.00  0.00    +0.000 HD
ATOM     27  H   UNL     1       5.102   6.373  16.535  0.00  0.00    +0.000 HD
ENDBRANCH  24  25
ENDBRANCH  23  24
ENDBRANCH  22  23
ENDBRANCH  21  22
ENDBRANCH  19  21
ENDBRANCH  18  19
ENDBRANCH  15  18
ENDBRANCH   9  14
BRANCH   1  28
ATOM     28  C   UNL     1      -1.426  11.978  17.872  0.00  0.00    +0.000 C 
BRANCH  28  29
ATOM     29  C   UNL     1      -2.702  11.476  17.207  0.00  0.00    +0.000 C 
BRANCH  29  31
ATOM     30  C   UNL     1      -3.265  10.468  14.981  0.00  0.00    +0.000 C 
ATOM     31  C   UNL     1      -2.412  10.335  16.232  0.00  0.00    +0.000 C 
ENDBRANCH  29  31
ENDBRANCH  28  29
ENDBRANCH   1  28
TORSDOF 11
ENDMDL
MODEL 8
REMARK VINA RESULT:      -6.5      2.538      8.416
REMARK  Name = 
REMARK  12 active torsions:
REMARK  status: ('A' for Active; 'I' for Inactive)
REMARK    1  A    between atoms: C_1  and  C_2
REMARK    2  A    between atoms: C_2  and  C_3
REMARK    3  A    between atoms: C_3  and  C_4
REMARK    4  A    between atoms: C_4  and  N_5
REMARK    5  A    between atoms: C_13  and  N_14
REMARK    6  A    between atoms: C_15  and  C_17
REMARK    7  A    between atoms: C_17  and  N_18
REMARK    8  A    between atoms: N_18  and  C_19
REMARK    9  A    between atoms: C_19  and  C_20
REMARK   10  A    between atoms: C_20  and  C_21
REMARK   11  A    between atoms: C_21  and  C_22
REMARK   12  A    between atoms: C_22  and  N_23
REMARK                            x       y       z     vdW  Elec       q    Type
REMARK                         _______ _______ _______ _____ _____    ______ ____
ROOT
ATOM      1  N   UNL     1      -1.050  11.315  19.199  0.00  0.00    +0.000 N 
ATOM      2  C   UNL     1      -1.426  11.509  20.546  0.00  0.00    +0.000 C 
ATOM      3  O   UNL     1      -2.240  12.330  20.961  0.00  0.00    +0.000 OA
ATOM      4  C   UNL     1      -0.592  10.561  21.246  0.00  0.00    +0.000 A 
ATOM      5  C   UNL     1      -0.480  10.338  22.613  0.00  0.00    +0.000 A 
ATOM      6  C   UNL     1       0.503   9.435  23.016  0.00  0.00    +0.000 A 
ATOM      7  C   UNL     1       1.312   8.769  22.076  0.00  0.00    +0.000 A 
ATOM      8  C   UNL     1       1.133   8.907  20.674  0.00  0.00    +0.000 A 
ATOM      9  C   UNL     1       1.782   8.282  19.561  0.00  0.00    +0.000 A 
ATOM     10  C   UNL     1       1.487   8.741  18.246  0.00  0.00    +0.000 A 
ATOM     11  C   UNL     1       0.563   9.774  17.978  0.00  0.00    +0.000 A 
ATOM     12  C   UNL     1      -0.087  10.304  19.078  0.00  0.00    +0.000 A 
ATOM     13  C   UNL     1       0.194   9.851  20.351  0.00  0.00    +0.000 A 
ENDROOT
BRANCH   9  14
ATOM     14  N   UNL     1       2.716   7.209  19.632  0.00  0.00    +0.000 N 
ATOM     15  C   UNL     1       2.491   5.911  20.056  0.00  0.00    +0.000 C 
ATOM     16  O   UNL     1       1.422   5.423  20.414  0.00  0.00    +0.000 OA
ATOM     17  H   UNL     1       3.574   7.350  19.113  0.00  0.00    +0.000 HD
BRANCH  15  18
ATOM     18  C   UNL     1       3.699   4.977  19.897  0.00  0.00    +0.000 C 
BRANCH  18  19
ATOM     19  N   UNL     1       4.379   5.280  18.618  0.00  0.00    +0.000 NA
ATOM     20  H   UNL     1       5.371   5.057  18.763  0.00  0.00    +0.000 HD
BRANCH  19  21
ATOM     21  C   UNL     1       3.882   4.413  17.545  0.00  0.00    +0.000 C 
BRANCH  21  22
ATOM     22  C   UNL     1       3.576   3.016  18.080  0.00  0.00    +0.000 C 
BRANCH  22  23
ATOM     23  C   UNL     1       2.078   2.732  17.951  0.00  0.00    +0.000 C 
BRANCH  23  24
ATOM     24  C   UNL     1       1.528   2.027  19.185  0.00  0.00    +0.000 C 
BRANCH  24  25
ATOM     25  N   UNL     1       0.485   2.847  19.788  0.00  0.00    +0.000 NA
ATOM     26  H   UNL     1      -0.430   2.526  19.471  0.00  0.00    +0.000 HD
ATOM     27  H   UNL     1       0.577   3.807  19.461  0.00  0.00    +0.000 HD
ENDBRANCH  24  25
ENDBRANCH  23  24
ENDBRANCH  22  23
ENDBRANCH  21  22
ENDBRANCH  19  21
ENDBRANCH  18  19
ENDBRANCH  15  18
ENDBRANCH   9  14
BRANCH   1  28
ATOM     28  C   UNL     1      -1.503  12.207  18.153  0.00  0.00    +0.000 C 
BRANCH  28  29
ATOM     29  C   UNL     1      -2.433  11.532  17.152  0.00  0.00    +0.000 C 
BRANCH  29  31
ATOM     30  C   UNL     1      -4.919  11.794  16.957  0.00  0.00    +0.000 C 
ATOM     31  C   UNL     1      -3.786  11.203  17.780  0.00  0.00    +0.000 C 
ENDBRANCH  29  31
ENDBRANCH  28  29
ENDBRANCH   1  28
TORSDOF 11
ENDMDL
MODEL 9
REMARK VINA RESULT:      -6.4      2.090      3.077
REMARK  Name = 
REMARK  12 active torsions:
REMARK  status: ('A' for Active; 'I' for Inactive)
REMARK    1  A    between atoms: C_1  and  C_2
REMARK    2  A    between atoms: C_2  and  C_3
REMARK    3  A    between atoms: C_3  and  C_4
REMARK    4  A    between atoms: C_4  and  N_5
REMARK    5  A    between atoms: C_13  and  N_14
REMARK    6  A    between atoms: C_15  and  C_17
REMARK    7  A    between atoms: C_17  and  N_18
REMARK    8  A    between atoms: N_18  and  C_19
REMARK    9  A    between atoms: C_19  and  C_20
REMARK   10  A    between atoms: C_20  and  C_21
REMARK   11  A    between atoms: C_21  and  C_22
REMARK   12  A    between atoms: C_22  and  N_23
REMARK                            x       y       z     vdW  Elec       q    Type
REMARK                         _______ _______ _______ _____ _____    ______ ____
ROOT
ATOM      1  N   UNL     1       4.119   4.605  17.252  0.00  0.00    +0.000 N 
ATOM      2  C   UNL     1       3.818   3.278  17.628  0.00  0.00    +0.000 C 
ATOM      3  O   UNL     1       4.205   2.258  17.064  0.00  0.00    +0.000 OA
ATOM      4  C   UNL     1       2.941   3.461  18.761  0.00  0.00    +0.000 A 
ATOM      5  C   UNL     1       2.275   2.504  19.516  0.00  0.00    +0.000 A 
ATOM      6  C   UNL     1       1.391   2.980  20.482  0.00  0.00    +0.000 A 
ATOM      7  C   UNL     1       1.213   4.360  20.693  0.00  0.00    +0.000 A 
ATOM      8  C   UNL     1       1.969   5.345  20.003  0.00  0.00    +0.000 A 
ATOM      9  C   UNL     1       2.001   6.772  20.110  0.00  0.00    +0.000 A 
ATOM     10  C   UNL     1       2.763   7.516  19.164  0.00  0.00    +0.000 A 
ATOM     11  C   UNL     1       3.513   6.913  18.132  0.00  0.00    +0.000 A 
ATOM     12  C   UNL     1       3.504   5.530  18.106  0.00  0.00    +0.000 A 
ATOM     13  C   UNL     1       2.771   4.811  19.030  0.00  0.00    +0.000 A 
ENDROOT
BRANCH   9  14
ATOM     14  N   UNL     1       1.338   7.553  21.099  0.00  0.00    +0.000 N 
ATOM     15  C   UNL     1       0.704   8.773  20.938  0.00  0.00    +0.000 C 
ATOM     16  O   UNL     1       0.558   9.399  19.891  0.00  0.00    +0.000 OA
ATOM     17  H   UNL     1       1.115   7.063  21.958  0.00  0.00    +0.000 HD
BRANCH  15  18
ATOM     18  C   UNL     1      -0.008   9.286  22.197  0.00  0.00    +0.000 C 
BRANCH  18  19
ATOM     19  N   UNL     1      -0.367  10.708  22.003  0.00  0.00    +0.000 NA
ATOM     20  H   UNL     1      -0.838  10.762  21.092  0.00  0.00    +0.000 HD
BRANCH  19  21
ATOM     21  C   UNL     1      -1.324  11.150  23.023  0.00  0.00    +0.000 C 
BRANCH  21  22
ATOM     22  C   UNL     1      -2.212  12.267  22.480  0.00  0.00    +0.000 C 
BRANCH  22  23
ATOM     23  C   UNL     1      -2.882  13.004  23.641  0.00  0.00    +0.000 C 
BRANCH  23  24
ATOM     24  C   UNL     1      -4.373  12.698  23.721  0.00  0.00    +0.000 C 
BRANCH  24  25
ATOM     25  N   UNL     1      -4.644  11.913  24.918  0.00  0.00    +0.000 NA
ATOM     26  H   UNL     1      -3.843  11.957  25.547  0.00  0.00    +0.000 HD
ATOM     27  H   UNL     1      -4.750  10.932  24.663  0.00  0.00    +0.000 HD
ENDBRANCH  24  25
ENDBRANCH  23  24
ENDBRANCH  22  23
ENDBRANCH  21  22
ENDBRANCH  19  21
ENDBRANCH  18  19
ENDBRANCH  15  18
ENDBRANCH   9  14
BRANCH   1  28
ATOM     28  C   UNL     1       4.824   4.899  16.023  0.00  0.00    +0.000 C 
BRANCH  28  29
ATOM     29  C   UNL     1       6.333   4.725  16.143  0.00  0.00    +0.000 C 
BRANCH  29  31
ATOM     30  C   UNL     1       7.552   5.285  18.263  0.00  0.00    +0.000 C 
ATOM     31  C   UNL     1       6.960   5.841  16.978  0.00  0.00    +0.000 C 
ENDBRANCH  29  31
ENDBRANCH  28  29
ENDBRANCH   1  28
TORSDOF 11
ENDMDL
