MODEL 1
REMARK VINA RESULT:      -7.0      0.000      0.000
REMARK  Name = 
REMARK  8 active torsions:
REMARK  status: ('A' for Active; 'I' for Inactive)
REMARK    1  A    between atoms: N_1  and  C_2
REMARK    2  A    between atoms: C_2  and  O_3
REMARK    3  A    between atoms: C_2  and  C_4
REMARK    4  A    between atoms: C_6  and  N_7
REMARK    5  A    between atoms: C_14  and  O_15
REMARK    6  A    between atoms: O_15  and  C_16
REMARK    7  A    between atoms: C_16  and  C_17
REMARK    8  A    between atoms: C_17  and  C_20
REMARK                            x       y       z     vdW  Elec       q    Type
REMARK                         _______ _______ _______ _____ _____    ______ ____
ROOT
ATOM      1  C   UNL     1       2.780   4.486  20.624  0.00  0.00    +0.000 C 
ATOM      2  S   UNL     1       3.474   3.529  19.229  0.00  0.00    +0.000 S 
ATOM      3  C   UNL     1       3.633   4.954  18.109  0.00  0.00    +0.000 C 
ATOM      4  C   UNL     1       2.564   5.950  18.612  0.00  0.00    +0.000 C 
ATOM      5  C   UNL     1       1.852   5.461  19.890  0.00  0.00    +0.000 C 
ENDROOT
BRANCH   3   6
ATOM      6  N   UNL     1       5.008   5.496  18.132  0.00  0.00    +0.000 NA
ATOM      7  C   UNL     1       5.160   6.765  17.371  0.00  0.00    +0.000 C 
ATOM      8  C   UNL     1       5.106   6.604  15.841  0.00  0.00    +0.000 C 
ATOM      9  O   UNL     1       6.084   5.667  15.377  0.00  0.00    +0.000 OA
ATOM     10  C   UNL     1       5.939   4.403  16.033  0.00  0.00    +0.000 C 
ATOM     11  C   UNL     1       6.019   4.560  17.561  0.00  0.00    +0.000 C 
ENDBRANCH   3   6
BRANCH   1  12
ATOM     12  C   UNL     1       2.123   3.489  21.607  0.00  0.00    +0.000 C 
BRANCH  12  13
ATOM     13  N   UNL     1       0.891   2.890  21.141  0.00  0.00    +0.000 NA
ATOM     14  H   UNL     1       1.155   2.167  20.473  0.00  0.00    +0.000 HD
ATOM     15  H   UNL     1       0.438   3.597  20.561  0.00  0.00    +0.000 HD
ENDBRANCH  12  13
BRANCH  12  16
ATOM     16  O   UNL     1       2.983   2.411  21.925  0.00  0.00    +0.000 OA
ATOM     17  H   UNL     1       3.334   2.614  22.808  0.00  0.00    +0.000 HD
ENDBRANCH  12  16
ENDBRANCH   1  12
BRANCH   5  18
ATOM     18  O   UNL     1       1.327   6.550  20.678  0.00  0.00    +0.000 OA
BRANCH  18  19
ATOM     19  C   UNL     1       1.907   7.845  20.457  0.00  0.00    +0.000 C 
BRANCH  19  20
ATOM     20  C   UNL     1       0.982   9.011  20.850  0.00  0.00    +0.000 C 
ATOM     21  F   UNL     1      -0.287   8.515  20.892  0.00  0.00    +0.000 F 
ATOM     22  F   UNL     1       1.279   9.360  22.134  0.00  0.00    +0.000 F 
BRANCH  20  23
ATOM     23  C   UNL     1       1.029  10.270  19.972  0.00  0.00    +0.000 C 
ATOM     24  C   UNL     1       0.259  10.138  18.645  0.00  0.00    +0.000 C 
ATOM     25  C   UNL     1      -1.258  10.263  18.771  0.00  0.00    +0.000 C 
ATOM     26  C   UNL     1      -1.689  11.490  19.570  0.00  0.00    +0.000 C 
ATOM     27  C   UNL     1      -0.980  11.572  20.914  0.00  0.00    +0.000 C 
ATOM     28  C   UNL     1       0.537  11.513  20.743  0.00  0.00    +0.000 C 
ENDBRANCH  20  23
ENDBRANCH  19  20
ENDBRANCH  18  19
ENDBRANCH   5  18
TORSDOF 8
ENDMDL
MODEL 2
REMARK VINA RESULT:      -7.0      0.714      1.374
REMARK  Name = 
REMARK  8 active torsions:
REMARK  status: ('A' for Active; 'I' for Inactive)
REMARK    1  A    between atoms: N_1  and  C_2
REMARK    2  A    between atoms: C_2  and  O_3
REMARK    3  A    between atoms: C_2  and  C_4
REMARK    4  A    between atoms: C_6  and  N_7
REMARK    5  A    between atoms: C_14  and  O_15
REMARK    6  A    between atoms: O_15  and  C_16
REMARK    7  A    between atoms: C_16  and  C_17
REMARK    8  A    between atoms: C_17  and  C_20
REMARK                            x       y       z     vdW  Elec       q    Type
REMARK                         _______ _______ _______ _____ _____    ______ ____
ROOT
ATOM      1  C   UNL     1       2.683   4.602  20.595  0.00  0.00    +0.000 C 
ATOM      2  S   UNL     1       3.178   3.727  19.068  0.00  0.00    +0.000 S 
ATOM      3  C   UNL     1       3.485   5.238  18.099  0.00  0.00    +0.000 C 
ATOM      4  C   UNL     1       2.586   6.302  18.767  0.00  0.00    +0.000 C 
ATOM      5  C   UNL     1       1.868   5.769  20.025  0.00  0.00    +0.000 C 
ENDROOT
BRANCH   3   6
ATOM      6  N   UNL     1       4.921   5.586  18.101  0.00  0.00    +0.000 NA
ATOM      7  C   UNL     1       5.256   6.728  17.207  0.00  0.00    +0.000 C 
ATOM      8  C   UNL     1       5.200   6.401  15.705  0.00  0.00    +0.000 C 
ATOM      9  O   UNL     1       6.045   5.293  15.376  0.00  0.00    +0.000 OA
ATOM     10  C   UNL     1       5.718   4.144  16.165  0.00  0.00    +0.000 C 
ATOM     11  C   UNL     1       5.800   4.462  17.667  0.00  0.00    +0.000 C 
ENDBRANCH   3   6
BRANCH   1  12
ATOM     12  C   UNL     1       1.937   3.596  21.502  0.00  0.00    +0.000 C 
BRANCH  12  13
ATOM     13  N   UNL     1       0.806   2.937  20.885  0.00  0.00    +0.000 NA
ATOM     14  H   UNL     1       0.472   2.247  21.557  0.00  0.00    +0.000 HD
ATOM     15  H   UNL     1       1.190   2.369  20.130  0.00  0.00    +0.000 HD
ENDBRANCH  12  13
BRANCH  12  16
ATOM     16  O   UNL     1       2.788   2.562  21.960  0.00  0.00    +0.000 OA
ATOM     17  H   UNL     1       2.676   1.836  21.323  0.00  0.00    +0.000 HD
ENDBRANCH  12  16
ENDBRANCH   1  12
BRANCH   5  18
ATOM     18  O   UNL     1       1.533   6.821  20.954  0.00  0.00    +0.000 OA
BRANCH  18  19
ATOM     19  C   UNL     1       1.571   8.165  20.449  0.00  0.00    +0.000 C 
BRANCH  19  20
ATOM     20  C   UNL     1       0.406   9.042  20.939  0.00  0.00    +0.000 C 
ATOM     21  F   UNL     1      -0.441   8.229  21.631  0.00  0.00    +0.000 F 
ATOM     22  F   UNL     1       0.905   9.917  21.859  0.00  0.00    +0.000 F 
BRANCH  20  23
ATOM     23  C   UNL     1      -0.371   9.834  19.876  0.00  0.00    +0.000 C 
ATOM     24  C   UNL     1      -0.834  11.226  20.346  0.00  0.00    +0.000 C 
ATOM     25  C   UNL     1       0.262  12.291  20.364  0.00  0.00    +0.000 C 
ATOM     26  C   UNL     1       1.050  12.354  19.059  0.00  0.00    +0.000 C 
ATOM     27  C   UNL     1       1.571  10.986  18.642  0.00  0.00    +0.000 C 
ATOM     28  C   UNL     1       0.438   9.963  18.567  0.00  0.00    +0.000 C 
ENDBRANCH  20  23
ENDBRANCH  19  20
ENDBRANCH  18  19
ENDBRANCH   5  18
TORSDOF 8
ENDMDL
MODEL 3
REMARK VINA RESULT:      -6.9      1.686      2.223
REMARK  Name = 
REMARK  8 active torsions:
REMARK  status: ('A' for Active; 'I' for Inactive)
REMARK    1  A    between atoms: N_1  and  C_2
REMARK    2  A    between atoms: C_2  and  O_3
REMARK    3  A    between atoms: C_2  and  C_4
REMARK    4  A    between atoms: C_6  and  N_7
REMARK    5  A    between atoms: C_14  and  O_15
REMARK    6  A    between atoms: O_15  and  C_16
REMARK    7  A    between atoms: C_16  and  C_17
REMARK    8  A    between atoms: C_17  and  C_20
REMARK                            x       y       z     vdW  Elec       q    Type
REMARK                         _______ _______ _______ _____ _____    ______ ____
ROOT
ATOM      1  C   UNL     1       2.521   3.868  18.996  0.00  0.00    +0.000 C 
ATOM      2  S   UNL     1       2.939   3.605  17.236  0.00  0.00    +0.000 S 
ATOM      3  C   UNL     1       4.208   4.909  17.166  0.00  0.00    +0.000 C 
ATOM      4  C   UNL     1       3.796   5.895  18.282  0.00  0.00    +0.000 C 
ATOM      5  C   UNL     1       2.583   5.397  19.097  0.00  0.00    +0.000 C 
ENDROOT
BRANCH   3   6
ATOM      6  N   UNL     1       5.561   4.342  17.343  0.00  0.00    +0.000 NA
ATOM      7  C   UNL     1       6.530   5.295  17.948  0.00  0.00    +0.000 C 
ATOM      8  C   UNL     1       6.982   6.428  17.010  0.00  0.00    +0.000 C 
ATOM      9  O   UNL     1       7.537   5.914  15.793  0.00  0.00    +0.000 OA
ATOM     10  C   UNL     1       6.614   5.039  15.136  0.00  0.00    +0.000 C 
ATOM     11  C   UNL     1       6.182   3.891  16.064  0.00  0.00    +0.000 C 
ENDBRANCH   3   6
BRANCH   1  12
ATOM     12  C   UNL     1       1.155   3.197  19.268  0.00  0.00    +0.000 C 
BRANCH  12  13
ATOM     13  N   UNL     1       1.035   1.837  18.790  0.00  0.00    +0.000 NA
ATOM     14  H   UNL     1       1.967   1.550  18.494  0.00  0.00    +0.000 HD
ATOM     15  H   UNL     1       0.512   1.892  17.916  0.00  0.00    +0.000 HD
ENDBRANCH  12  13
BRANCH  12  16
ATOM     16  O   UNL     1       0.852   3.151  20.650  0.00  0.00    +0.000 OA
ATOM     17  H   UNL     1       0.584   4.055  20.885  0.00  0.00    +0.000 HD
ENDBRANCH  12  16
ENDBRANCH   1  12
BRANCH   5  18
ATOM     18  O   UNL     1       2.555   5.945  20.431  0.00  0.00    +0.000 OA
BRANCH  18  19
ATOM     19  C   UNL     1       1.293   6.451  20.894  0.00  0.00    +0.000 C 
BRANCH  19  20
ATOM     20  C   UNL     1       1.204   7.987  20.891  0.00  0.00    +0.000 C 
ATOM     21  F   UNL     1       1.928   8.430  21.957  0.00  0.00    +0.000 F 
ATOM     22  F   UNL     1       1.869   8.437  19.788  0.00  0.00    +0.000 F 
BRANCH  20  23
ATOM     23  C   UNL     1      -0.200   8.609  20.909  0.00  0.00    +0.000 C 
ATOM     24  C   UNL     1      -0.769   8.830  22.323  0.00  0.00    +0.000 C 
ATOM     25  C   UNL     1      -0.203  10.045  23.056  0.00  0.00    +0.000 C 
ATOM     26  C   UNL     1      -0.238  11.317  22.214  0.00  0.00    +0.000 C 
ATOM     27  C   UNL     1       0.396  11.111  20.845  0.00  0.00    +0.000 C 
ATOM     28  C   UNL     1      -0.241   9.931  20.113  0.00  0.00    +0.000 C 
ENDBRANCH  20  23
ENDBRANCH  19  20
ENDBRANCH  18  19
ENDBRANCH   5  18
TORSDOF 8
ENDMDL
MODEL 4
REMARK VINA RESULT:      -6.9      5.039      8.710
REMARK  Name = 
REMARK  8 active torsions:
REMARK  status: ('A' for Active; 'I' for Inactive)
REMARK    1  A    between atoms: N_1  and  C_2
REMARK    2  A    between atoms: C_2  and  O_3
REMARK    3  A    between atoms: C_2  and  C_4
REMARK    4  A    between atoms: C_6  and  N_7
REMARK    5  A    between atoms: C_14  and  O_15
REMARK    6  A    between atoms: O_15  and  C_16
REMARK    7  A    between atoms: C_16  and  C_17
REMARK    8  A    between atoms: C_17  and  C_20
REMARK                            x       y       z     vdW  Elec       q    Type
REMARK                         _______ _______ _______ _____ _____    ______ ____
ROOT
ATOM      1  C   UNL     1       6.001   4.727  17.661  0.00  0.00    +0.000 C 
ATOM      2  S   UNL     1       5.287   4.673  19.342  0.00  0.00    +0.000 S 
ATOM      3  C   UNL     1       3.553   4.750  18.792  0.00  0.00    +0.000 C 
ATOM      4  C   UNL     1       3.625   5.457  17.421  0.00  0.00    +0.000 C 
ATOM      5  C   UNL     1       5.074   5.733  16.969  0.00  0.00    +0.000 C 
ENDROOT
BRANCH   3   6
ATOM      6  N   UNL     1       2.955   3.400  18.736  0.00  0.00    +0.000 NA
ATOM      7  C   UNL     1       1.467   3.411  18.699  0.00  0.00    +0.000 C 
ATOM      8  C   UNL     1       0.798   3.796  20.030  0.00  0.00    +0.000 C 
ATOM      9  O   UNL     1       1.229   2.948  21.100  0.00  0.00    +0.000 OA
ATOM     10  C   UNL     1       2.655   2.954  21.220  0.00  0.00    +0.000 C 
ATOM     11  C   UNL     1       3.324   2.543  19.898  0.00  0.00    +0.000 C 
ENDBRANCH   3   6
BRANCH   1  12
ATOM     12  C   UNL     1       7.493   5.112  17.787  0.00  0.00    +0.000 C 
BRANCH  12  13
ATOM     13  N   UNL     1       7.856   5.761  19.029  0.00  0.00    +0.000 NA
ATOM     14  H   UNL     1       8.849   5.981  18.962  0.00  0.00    +0.000 HD
ATOM     15  H   UNL     1       7.820   5.035  19.745  0.00  0.00    +0.000 HD
ENDBRANCH  12  13
BRANCH  12  16
ATOM     16  O   UNL     1       8.344   3.986  17.675  0.00  0.00    +0.000 OA
ATOM     17  H   UNL     1       8.541   3.720  18.589  0.00  0.00    +0.000 HD
ENDBRANCH  12  16
ENDBRANCH   1  12
BRANCH   5  18
ATOM     18  O   UNL     1       5.196   5.825  15.535  0.00  0.00    +0.000 OA
BRANCH  18  19
ATOM     19  C   UNL     1       4.972   4.617  14.789  0.00  0.00    +0.000 C 
BRANCH  19  20
ATOM     20  C   UNL     1       6.185   4.175  13.952  0.00  0.00    +0.000 C 
ATOM     21  F   UNL     1       7.268   4.847  14.435  0.00  0.00    +0.000 F 
ATOM     22  F   UNL     1       6.421   2.860  14.228  0.00  0.00    +0.000 F 
BRANCH  20  23
ATOM     23  C   UNL     1       6.088   4.350  12.429  0.00  0.00    +0.000 C 
ATOM     24  C   UNL     1       7.393   4.032  11.677  0.00  0.00    +0.000 C 
ATOM     25  C   UNL     1       7.684   2.542  11.505  0.00  0.00    +0.000 C 
ATOM     26  C   UNL     1       6.494   1.765  10.950  0.00  0.00    +0.000 C 
ATOM     27  C   UNL     1       5.223   2.025  11.747  0.00  0.00    +0.000 C 
ATOM     28  C   UNL     1       4.927   3.521  11.840  0.00  0.00    +0.000 C 
ENDBRANCH  20  23
ENDBRANCH  19  20
ENDBRANCH  18  19
ENDBRANCH   5  18
TORSDOF 8
ENDMDL
MODEL 5
REMARK VINA RESULT:      -6.9      1.337      1.893
REMARK  Name = 
REMARK  8 active torsions:
REMARK  status: ('A' for Active; 'I' for Inactive)
REMARK    1  A    between atoms: N_1  and  C_2
REMARK    2  A    between atoms: C_2  and  O_3
REMARK    3  A    between atoms: C_2  and  C_4
REMARK    4  A    between atoms: C_6  and  N_7
REMARK    5  A    between atoms: C_14  and  O_15
REMARK    6  A    between atoms: O_15  and  C_16
REMARK    7  A    between atoms: C_16  and  C_17
REMARK    8  A    between atoms: C_17  and  C_20
REMARK                            x       y       z     vdW  Elec       q    Type
REMARK                         _______ _______ _______ _____ _____    ______ ____
ROOT
ATOM      1  C   UNL     1       2.668   3.966  20.022  0.00  0.00    +0.000 C 
ATOM      2  S   UNL     1       3.597   3.170  18.664  0.00  0.00    +0.000 S 
ATOM      3  C   UNL     1       3.743   4.676  17.653  0.00  0.00    +0.000 C 
ATOM      4  C   UNL     1       2.537   5.538  18.085  0.00  0.00    +0.000 C 
ATOM      5  C   UNL     1       1.738   4.904  19.243  0.00  0.00    +0.000 C 
ENDROOT
BRANCH   3   6
ATOM      6  N   UNL     1       5.050   5.332  17.865  0.00  0.00    +0.000 NA
ATOM      7  C   UNL     1       5.167   6.654  17.191  0.00  0.00    +0.000 C 
ATOM      8  C   UNL     1       5.302   6.581  15.660  0.00  0.00    +0.000 C 
ATOM      9  O   UNL     1       6.410   5.763  15.268  0.00  0.00    +0.000 OA
ATOM     10  C   UNL     1       6.311   4.454  15.839  0.00  0.00    +0.000 C 
ATOM     11  C   UNL     1       6.202   4.524  17.372  0.00  0.00    +0.000 C 
ENDBRANCH   3   6
BRANCH   1  12
ATOM     12  C   UNL     1       2.004   2.852  20.864  0.00  0.00    +0.000 C 
BRANCH  12  13
ATOM     13  N   UNL     1       2.408   2.812  22.253  0.00  0.00    +0.000 NA
ATOM     14  H   UNL     1       2.500   3.781  22.556  0.00  0.00    +0.000 HD
ATOM     15  H   UNL     1       3.368   2.468  22.256  0.00  0.00    +0.000 HD
ENDBRANCH  12  13
BRANCH  12  16
ATOM     16  O   UNL     1       0.593   2.962  20.873  0.00  0.00    +0.000 OA
ATOM     17  H   UNL     1       0.408   3.904  20.723  0.00  0.00    +0.000 HD
ENDBRANCH  12  16
ENDBRANCH   1  12
BRANCH   5  18
ATOM     18  O   UNL     1       1.030   5.886  20.026  0.00  0.00    +0.000 OA
BRANCH  18  19
ATOM     19  C   UNL     1       1.822   6.724  20.883  0.00  0.00    +0.000 C 
BRANCH  19  20
ATOM     20  C   UNL     1       1.423   8.209  20.836  0.00  0.00    +0.000 C 
ATOM     21  F   UNL     1       2.121   8.840  21.822  0.00  0.00    +0.000 F 
ATOM     22  F   UNL     1       1.895   8.728  19.666  0.00  0.00    +0.000 F 
BRANCH  20  23
ATOM     23  C   UNL     1      -0.073   8.537  20.953  0.00  0.00    +0.000 C 
ATOM     24  C   UNL     1      -0.598   8.563  22.400  0.00  0.00    +0.000 C 
ATOM     25  C   UNL     1      -0.242   9.824  23.186  0.00  0.00    +0.000 C 
ATOM     26  C   UNL     1      -0.571  11.108  22.430  0.00  0.00    +0.000 C 
ATOM     27  C   UNL     1       0.018  11.108  21.025  0.00  0.00    +0.000 C 
ATOM     28  C   UNL     1      -0.415   9.867  20.246  0.00  0.00    +0.000 C 
ENDBRANCH  20  23
ENDBRANCH  19  20
ENDBRANCH  18  19
ENDBRANCH   5  18
TORSDOF 8
ENDMDL
MODEL 6
REMARK VINA RESULT:      -6.9      1.579      2.032
REMARK  Name = 
REMARK  8 active torsions:
REMARK  status: ('A' for Active; 'I' for Inactive)
REMARK    1  A    between atoms: N_1  and  C_2
REMARK    2  A    between atoms: C_2  and  O_3
REMARK    3  A    between atoms: C_2  and  C_4
REMARK    4  A    between atoms: C_6  and  N_7
REMARK    5  A    between atoms: C_14  and  O_15
REMARK    6  A    between atoms: O_15  and  C_16
REMARK    7  A    between atoms: C_16  and  C_17
REMARK    8  A    between atoms: C_17  and  C_20
REMARK                            x       y       z     vdW  Elec       q    Type
REMARK                         _______ _______ _______ _____ _____    ______ ____
ROOT
ATOM      1  C   UNL     1       2.384   4.127  18.904  0.00  0.00    +0.000 C 
ATOM      2  S   UNL     1       3.097   3.640  17.293  0.00  0.00    +0.000 S 
ATOM      3  C   UNL     1       4.231   5.059  17.173  0.00  0.00    +0.000 C 
ATOM      4  C   UNL     1       3.557   6.152  18.031  0.00  0.00    +0.000 C 
ATOM      5  C   UNL     1       2.284   5.648  18.744  0.00  0.00    +0.000 C 
ENDROOT
BRANCH   3   6
ATOM      6  N   UNL     1       5.587   4.694  17.633  0.00  0.00    +0.000 NA
ATOM      7  C   UNL     1       6.339   5.832  18.228  0.00  0.00    +0.000 C 
ATOM      8  C   UNL     1       6.821   6.881  17.212  0.00  0.00    +0.000 C 
ATOM      9  O   UNL     1       7.620   6.287  16.182  0.00  0.00    +0.000 OA
ATOM     10  C   UNL     1       6.914   5.226  15.530  0.00  0.00    +0.000 C 
ATOM     11  C   UNL     1       6.455   4.163  16.543  0.00  0.00    +0.000 C 
ENDBRANCH   3   6
BRANCH   1  12
ATOM     12  C   UNL     1       1.062   3.348  19.097  0.00  0.00    +0.000 C 
BRANCH  12  13
ATOM     13  N   UNL     1       1.166   1.915  18.930  0.00  0.00    +0.000 NA
ATOM     14  H   UNL     1       2.069   1.738  18.492  0.00  0.00    +0.000 HD
ATOM     15  H   UNL     1       0.495   1.668  18.203  0.00  0.00    +0.000 HD
ENDBRANCH  12  13
BRANCH  12  16
ATOM     16  O   UNL     1       0.509   3.551  20.384  0.00  0.00    +0.000 OA
ATOM     17  H   UNL     1       1.247   3.865  20.934  0.00  0.00    +0.000 HD
ENDBRANCH  12  16
ENDBRANCH   1  12
BRANCH   5  18
ATOM     18  O   UNL     1       1.994   6.394  19.944  0.00  0.00    +0.000 OA
BRANCH  18  19
ATOM     19  C   UNL     1       2.010   7.826  19.835  0.00  0.00    +0.000 C 
BRANCH  19  20
ATOM     20  C   UNL     1       1.018   8.529  20.778  0.00  0.00    +0.000 C 
ATOM     21  F   UNL     1       0.329   7.551  21.432  0.00  0.00    +0.000 F 
ATOM     22  F   UNL     1       1.744   9.168  21.740  0.00  0.00    +0.000 F 
BRANCH  20  23
ATOM     23  C   UNL     1       0.042   9.533  20.147  0.00  0.00    +0.000 C 
ATOM     24  C   UNL     1      -0.100  10.848  20.935  0.00  0.00    +0.000 C 
ATOM     25  C   UNL     1       1.056  11.831  20.751  0.00  0.00    +0.000 C 
ATOM     26  C   UNL     1       1.405  12.070  19.285  0.00  0.00    +0.000 C 
ATOM     27  C   UNL     1       1.620  10.765  18.531  0.00  0.00    +0.000 C 
ATOM     28  C   UNL     1       0.416   9.836  18.680  0.00  0.00    +0.000 C 
ENDBRANCH  20  23
ENDBRANCH  19  20
ENDBRANCH  18  19
ENDBRANCH   5  18
TORSDOF 8
ENDMDL
MODEL 7
REMARK VINA RESULT:      -6.9      1.170      1.710
REMARK  Name = 
REMARK  8 active torsions:
REMARK  status: ('A' for Active; 'I' for Inactive)
REMARK    1  A    between atoms: N_1  and  C_2
REMARK    2  A    between atoms: C_2  and  O_3
REMARK    3  A    between atoms: C_2  and  C_4
REMARK    4  A    between atoms: C_6  and  N_7
REMARK    5  A    between atoms: C_14  and  O_15
REMARK    6  A    between atoms: O_15  and  C_16
REMARK    7  A    between atoms: C_16  and  C_17
REMARK    8  A    between atoms: C_17  and  C_20
REMARK                            x       y       z     vdW  Elec       q    Type
REMARK                         _______ _______ _______ _____ _____    ______ ____
ROOT
ATOM      1  C   UNL     1       2.898   4.348  20.162  0.00  0.00    +0.000 C 
ATOM      2  S   UNL     1       3.764   3.630  18.722  0.00  0.00    +0.000 S 
ATOM      3  C   UNL     1       4.220   5.231  17.984  0.00  0.00    +0.000 C 
ATOM      4  C   UNL     1       3.148   6.209  18.515  0.00  0.00    +0.000 C 
ATOM      5  C   UNL     1       2.185   5.545  19.522  0.00  0.00    +0.000 C 
ENDROOT
BRANCH   3   6
ATOM      6  N   UNL     1       5.601   5.609  18.347  0.00  0.00    +0.000 NA
ATOM      7  C   UNL     1       6.063   6.866  17.699  0.00  0.00    +0.000 C 
ATOM      8  C   UNL     1       6.352   6.741  16.193  0.00  0.00    +0.000 C 
ATOM      9  O   UNL     1       7.303   5.705  15.924  0.00  0.00    +0.000 OA
ATOM     10  C   UNL     1       6.873   4.455  16.472  0.00  0.00    +0.000 C 
ATOM     11  C   UNL     1       6.610   4.573  17.982  0.00  0.00    +0.000 C 
ENDBRANCH   3   6
BRANCH   1  12
ATOM     12  C   UNL     1       2.008   3.245  20.782  0.00  0.00    +0.000 C 
BRANCH  12  13
ATOM     13  N   UNL     1       2.170   3.058  22.208  0.00  0.00    +0.000 NA
ATOM     14  H   UNL     1       3.048   2.556  22.337  0.00  0.00    +0.000 HD
ATOM     15  H   UNL     1       1.462   2.377  22.483  0.00  0.00    +0.000 HD
ENDBRANCH  12  13
BRANCH  12  16
ATOM     16  O   UNL     1       0.630   3.496  20.577  0.00  0.00    +0.000 OA
ATOM     17  H   UNL     1       0.366   4.088  21.301  0.00  0.00    +0.000 HD
ENDBRANCH  12  16
ENDBRANCH   1  12
BRANCH   5  18
ATOM     18  O   UNL     1       1.603   6.497  20.436  0.00  0.00    +0.000 OA
BRANCH  18  19
ATOM     19  C   UNL     1       1.922   7.881  20.217  0.00  0.00    +0.000 C 
BRANCH  19  20
ATOM     20  C   UNL     1       0.843   8.852  20.729  0.00  0.00    +0.000 C 
ATOM     21  F   UNL     1      -0.004   8.128  21.513  0.00  0.00    +0.000 F 
ATOM     22  F   UNL     1       1.450   9.739  21.569  0.00  0.00    +0.000 F 
BRANCH  20  23
ATOM     23  C   UNL     1       0.048   9.636  19.674  0.00  0.00    +0.000 C 
ATOM     24  C   UNL     1      -0.314  11.071  20.101  0.00  0.00    +0.000 C 
ATOM     25  C   UNL     1       0.835  12.074  20.007  0.00  0.00    +0.000 C 
ATOM     26  C   UNL     1       1.548  12.035  18.658  0.00  0.00    +0.000 C 
ATOM     27  C   UNL     1       1.972  10.623  18.279  0.00  0.00    +0.000 C 
ATOM     28  C   UNL     1       0.785   9.661  18.317  0.00  0.00    +0.000 C 
ENDBRANCH  20  23
ENDBRANCH  19  20
ENDBRANCH  18  19
ENDBRANCH   5  18
TORSDOF 8
ENDMDL
MODEL 8
REMARK VINA RESULT:      -6.8      1.688      2.022
REMARK  Name = 
REMARK  8 active torsions:
REMARK  status: ('A' for Active; 'I' for Inactive)
REMARK    1  A    between atoms: N_1  and  C_2
REMARK    2  A    between atoms: C_2  and  O_3
REMARK    3  A    between atoms: C_2  and  C_4
REMARK    4  A    between atoms: C_6  and  N_7
REMARK    5  A    between atoms: C_14  and  O_15
REMARK    6  A    between atoms: O_15  and  C_16
REMARK    7  A    between atoms: C_16  and  C_17
REMARK    8  A    between atoms: C_17  and  C_20
REMARK                            x       y       z     vdW  Elec       q    Type
REMARK                         _______ _______ _______ _____ _____    ______ ____
ROOT
ATOM      1  C   UNL     1       2.606   3.823  19.264  0.00  0.00    +0.000 C 
ATOM      2  S   UNL     1       3.422   3.442  17.674  0.00  0.00    +0.000 S 
ATOM      3  C   UNL     1       4.278   5.042  17.534  0.00  0.00    +0.000 C 
ATOM      4  C   UNL     1       3.400   6.011  18.358  0.00  0.00    +0.000 C 
ATOM      5  C   UNL     1       2.230   5.296  19.067  0.00  0.00    +0.000 C 
ENDROOT
BRANCH   3   6
ATOM      6  N   UNL     1       5.670   4.943  18.019  0.00  0.00    +0.000 NA
ATOM      7  C   UNL     1       6.278   6.260  18.353  0.00  0.00    +0.000 C 
ATOM      8  C   UNL     1       6.624   7.132  17.133  0.00  0.00    +0.000 C 
ATOM      9  O   UNL     1       7.486   6.442  16.221  0.00  0.00    +0.000 OA
ATOM     10  C   UNL     1       6.915   5.193  15.816  0.00  0.00    +0.000 C 
ATOM     11  C   UNL     1       6.593   4.310  17.034  0.00  0.00    +0.000 C 
ENDBRANCH   3   6
BRANCH   1  12
ATOM     12  C   UNL     1       1.447   2.818  19.459  0.00  0.00    +0.000 C 
BRANCH  12  13
ATOM     13  N   UNL     1       0.453   3.211  20.435  0.00  0.00    +0.000 NA
ATOM     14  H   UNL     1       0.280   4.205  20.289  0.00  0.00    +0.000 HD
ATOM     15  H   UNL     1       0.923   3.181  21.341  0.00  0.00    +0.000 HD
ENDBRANCH  12  13
BRANCH  12  16
ATOM     16  O   UNL     1       0.738   2.584  18.257  0.00  0.00    +0.000 OA
ATOM     17  H   UNL     1       1.420   2.434  17.581  0.00  0.00    +0.000 HD
ENDBRANCH  12  16
ENDBRANCH   1  12
BRANCH   5  18
ATOM     18  O   UNL     1       1.788   6.001  20.245  0.00  0.00    +0.000 OA
BRANCH  18  19
ATOM     19  C   UNL     1       2.261   7.347  20.409  0.00  0.00    +0.000 C 
BRANCH  19  20
ATOM     20  C   UNL     1       1.137   8.373  20.639  0.00  0.00    +0.000 C 
ATOM     21  F   UNL     1       0.715   8.783  19.410  0.00  0.00    +0.000 F 
ATOM     22  F   UNL     1       0.077   7.710  21.185  0.00  0.00    +0.000 F 
BRANCH  20  23
ATOM     23  C   UNL     1       1.466   9.588  21.519  0.00  0.00    +0.000 C 
ATOM     24  C   UNL     1       0.888  10.915  20.996  0.00  0.00    +0.000 C 
ATOM     25  C   UNL     1      -0.605  11.109  21.256  0.00  0.00    +0.000 C 
ATOM     26  C   UNL     1      -0.994  10.841  22.707  0.00  0.00    +0.000 C 
ATOM     27  C   UNL     1      -0.485   9.492  23.194  0.00  0.00    +0.000 C 
ATOM     28  C   UNL     1       1.023   9.361  22.980  0.00  0.00    +0.000 C 
ENDBRANCH  20  23
ENDBRANCH  19  20
ENDBRANCH  18  19
ENDBRANCH   5  18
TORSDOF 8
ENDMDL
MODEL 9
REMARK VINA RESULT:      -6.8      1.001      1.026
REMARK  Name = 
REMARK  8 active torsions:
REMARK  status: ('A' for Active; 'I' for Inactive)
REMARK    1  A    between atoms: N_1  and  C_2
REMARK    2  A    between atoms: C_2  and  O_3
REMARK    3  A    between atoms: C_2  and  C_4
REMARK    4  A    between atoms: C_6  and  N_7
REMARK    5  A    between atoms: C_14  and  O_15
REMARK    6  A    between atoms: O_15  and  C_16
REMARK    7  A    between atoms: C_16  and  C_17
REMARK    8  A    between atoms: C_17  and  C_20
REMARK                            x       y       z     vdW  Elec       q    Type
REMARK                         _______ _______ _______ _____ _____    ______ ____
ROOT
ATOM      1  C   UNL     1       2.695   3.856  19.919  0.00  0.00    +0.000 C 
ATOM      2  S   UNL     1       3.127   2.917  18.412  0.00  0.00    +0.000 S 
ATOM      3  C   UNL     1       3.586   4.378  17.428  0.00  0.00    +0.000 C 
ATOM      4  C   UNL     1       2.781   5.531  18.068  0.00  0.00    +0.000 C 
ATOM      5  C   UNL     1       2.000   5.085  19.322  0.00  0.00    +0.000 C 
ENDROOT
BRANCH   3   6
ATOM      6  N   UNL     1       5.048   4.592  17.446  0.00  0.00    +0.000 NA
ATOM      7  C   UNL     1       5.439   6.028  17.478  0.00  0.00    +0.000 C 
ATOM      8  C   UNL     1       5.211   6.782  16.157  0.00  0.00    +0.000 C 
ATOM      9  O   UNL     1       5.883   6.144  15.065  0.00  0.00    +0.000 OA
ATOM     10  C   UNL     1       5.491   4.772  14.949  0.00  0.00    +0.000 C 
ATOM     11  C   UNL     1       5.743   4.011  16.261  0.00  0.00    +0.000 C 
ENDBRANCH   3   6
BRANCH   1  12
ATOM     12  C   UNL     1       1.847   2.937  20.829  0.00  0.00    +0.000 C 
BRANCH  12  13
ATOM     13  N   UNL     1       2.093   3.083  22.247  0.00  0.00    +0.000 NA
ATOM     14  H   UNL     1       1.986   4.074  22.459  0.00  0.00    +0.000 HD
ATOM     15  H   UNL     1       3.091   2.917  22.377  0.00  0.00    +0.000 HD
ENDBRANCH  12  13
BRANCH  12  16
ATOM     16  O   UNL     1       0.459   3.149  20.651  0.00  0.00    +0.000 OA
ATOM     17  H   UNL     1       0.349   4.113  20.607  0.00  0.00    +0.000 HD
ENDBRANCH  12  16
ENDBRANCH   1  12
BRANCH   5  18
ATOM     18  O   UNL     1       1.751   6.177  20.232  0.00  0.00    +0.000 OA
BRANCH  18  19
ATOM     19  C   UNL     1       1.953   7.504  19.720  0.00  0.00    +0.000 C 
BRANCH  19  20
ATOM     20  C   UNL     1       1.295   8.602  20.574  0.00  0.00    +0.000 C 
ATOM     21  F   UNL     1       0.020   8.196  20.831  0.00  0.00    +0.000 F 
ATOM     22  F   UNL     1       1.924   8.616  21.784  0.00  0.00    +0.000 F 
BRANCH  20  23
ATOM     23  C   UNL     1       1.292  10.028  20.002  0.00  0.00    +0.000 C 
ATOM     24  C   UNL     1       0.480  10.180  18.703  0.00  0.00    +0.000 C 
ATOM     25  C   UNL     1      -1.034  10.237  18.900  0.00  0.00    +0.000 C 
ATOM     26  C   UNL     1      -1.457  11.243  19.967  0.00  0.00    +0.000 C 
ATOM     27  C   UNL     1      -0.704  11.036  21.274  0.00  0.00    +0.000 C 
ATOM     28  C   UNL     1       0.807  11.053  21.049  0.00  0.00    +0.000 C 
ENDBRANCH  20  23
ENDBRANCH  19  20
ENDBRANCH  18  19
ENDBRANCH   5  18
TORSDOF 8
ENDMDL
