MODEL 1
REMARK VINA RESULT:      -7.2      0.000      0.000
REMARK  Name = 
REMARK  12 active torsions:
REMARK  status: ('A' for Active; 'I' for Inactive)
REMARK    1  A    between atoms: C_1  and  C_2
REMARK    2  A    between atoms: C_14  and  O_15
REMARK    3  A    between atoms: O_15  and  C_16
REMARK    4  A    between atoms: C_16  and  C_17
REMARK    5  A    between atoms: C_17  and  N_18
REMARK    6  A    between atoms: N_18  and  C_19
REMARK    7  A    between atoms: N_18  and  C_20
REMARK    8  A    between atoms: N_24  and  C_25
REMARK    9  A    between atoms: C_25  and  C_26
REMARK   10  A    between atoms: C_26  and  N_27
REMARK   11  A    between atoms: N_27  and  C_28
REMARK   12  A    between atoms: N_27  and  C_29
REMARK                            x       y       z     vdW  Elec       q    Type
REMARK                         _______ _______ _______ _____ _____    ______ ____
ROOT
ATOM      1  C   UNL     1       2.784   9.924  17.832  0.00  0.00    +0.000 C 
ATOM      2  C   UNL     1       2.217   8.617  18.433  0.00  0.00    +0.000 A 
ATOM      3  C   UNL     1       1.207   8.932  19.418  0.00  0.00    +0.000 A 
ATOM      4  C   UNL     1       0.466  10.159  19.438  0.00  0.00    +0.000 A 
ATOM      5  C   UNL     1      -0.298  10.567  20.521  0.00  0.00    +0.000 A 
ATOM      6  C   UNL     1      -0.422   9.708  21.586  0.00  0.00    +0.000 A 
ATOM      7  C   UNL     1       0.189   8.446  21.528  0.00  0.00    +0.000 A 
ATOM      8  C   UNL     1       1.003   8.033  20.471  0.00  0.00    +0.000 A 
ATOM      9  N   UNL     1       1.605   6.844  20.564  0.00  0.00    +0.000 NA
ATOM     10  C   UNL     1       2.463   6.506  19.580  0.00  0.00    +0.000 A 
ATOM     11  C   UNL     1       2.803   7.257  18.442  0.00  0.00    +0.000 A 
ATOM     12  C   UNL     1       3.799   6.382  17.718  0.00  0.00    +0.000 A 
ATOM     13  C   UNL     1       4.564   6.392  16.497  0.00  0.00    +0.000 A 
ATOM     14  C   UNL     1       5.711   5.574  16.287  0.00  0.00    +0.000 A 
ATOM     15  C   UNL     1       6.011   4.585  17.204  0.00  0.00    +0.000 A 
ATOM     16  C   UNL     1       5.177   4.403  18.313  0.00  0.00    +0.000 A 
ATOM     17  C   UNL     1       4.115   5.304  18.569  0.00  0.00    +0.000 A 
ATOM     18  N   UNL     1       3.255   5.375  19.644  0.00  0.00    +0.000 N 
ENDROOT
BRANCH  14  19
ATOM     19  O   UNL     1       6.513   5.921  15.218  0.00  0.00    +0.000 OA
BRANCH  19  20
ATOM     20  C   UNL     1       6.975   4.878  14.333  0.00  0.00    +0.000 C 
BRANCH  20  21
ATOM     21  C   UNL     1       5.779   4.008  13.842  0.00  0.00    +0.000 C 
BRANCH  21  22
ATOM     22  N   UNL     1       6.010   3.286  12.564  0.00  0.00    +0.000 NA
ATOM     23  C   UNL     1       4.804   3.239  11.734  0.00  0.00    +0.000 C 
ATOM     24  C   UNL     1       7.093   3.910  11.790  0.00  0.00    +0.000 C 
ENDBRANCH  21  22
ENDBRANCH  20  21
ENDBRANCH  19  20
ENDBRANCH  14  19
BRANCH  18  25
ATOM     25  C   UNL     1       3.334   4.494  20.807  0.00  0.00    +0.000 C 
BRANCH  25  26
ATOM     26  C   UNL     1       2.460   3.240  20.689  0.00  0.00    +0.000 C 
BRANCH  26  27
ATOM     27  N   UNL     1       2.058   2.899  19.302  0.00  0.00    +0.000 NA
ATOM     28  C   UNL     1       2.789   1.742  18.778  0.00  0.00    +0.000 C 
ATOM     29  C   UNL     1       0.617   2.623  19.270  0.00  0.00    +0.000 C 
ENDBRANCH  26  27
ENDBRANCH  25  26
ENDBRANCH  18  25
TORSDOF 7
ENDMDL
MODEL 2
REMARK VINA RESULT:      -7.1      0.857      1.049
REMARK  Name = 
REMARK  12 active torsions:
REMARK  status: ('A' for Active; 'I' for Inactive)
REMARK    1  A    between atoms: C_1  and  C_2
REMARK    2  A    between atoms: C_14  and  O_15
REMARK    3  A    between atoms: O_15  and  C_16
REMARK    4  A    between atoms: C_16  and  C_17
REMARK    5  A    between atoms: C_17  and  N_18
REMARK    6  A    between atoms: N_18  and  C_19
REMARK    7  A    between atoms: N_18  and  C_20
REMARK    8  A    between atoms: N_24  and  C_25
REMARK    9  A    between atoms: C_25  and  C_26
REMARK   10  A    between atoms: C_26  and  N_27
REMARK   11  A    between atoms: N_27  and  C_28
REMARK   12  A    between atoms: N_27  and  C_29
REMARK                            x       y       z     vdW  Elec       q    Type
REMARK                         _______ _______ _______ _____ _____    ______ ____
ROOT
ATOM      1  C   UNL     1       2.457  10.483  18.049  0.00  0.00    +0.000 C 
ATOM      2  C   UNL     1       1.802   9.228  18.669  0.00  0.00    +0.000 A 
ATOM      3  C   UNL     1       0.846   9.626  19.678  0.00  0.00    +0.000 A 
ATOM      4  C   UNL     1       0.208  10.909  19.712  0.00  0.00    +0.000 A 
ATOM      5  C   UNL     1      -0.493  11.380  20.812  0.00  0.00    +0.000 A 
ATOM      6  C   UNL     1      -0.659  10.536  21.883  0.00  0.00    +0.000 A 
ATOM      7  C   UNL     1      -0.153   9.228  21.816  0.00  0.00    +0.000 A 
ATOM      8  C   UNL     1       0.597   8.749  20.740  0.00  0.00    +0.000 A 
ATOM      9  N   UNL     1       1.103   7.515  20.822  0.00  0.00    +0.000 NA
ATOM     10  C   UNL     1       1.906   7.107  19.819  0.00  0.00    +0.000 A 
ATOM     11  C   UNL     1       2.276   7.825  18.669  0.00  0.00    +0.000 A 
ATOM     12  C   UNL     1       3.179   6.870  17.924  0.00  0.00    +0.000 A 
ATOM     13  C   UNL     1       3.910   6.816  16.683  0.00  0.00    +0.000 A 
ATOM     14  C   UNL     1       4.982   5.908  16.448  0.00  0.00    +0.000 A 
ATOM     15  C   UNL     1       5.224   4.899  17.361  0.00  0.00    +0.000 A 
ATOM     16  C   UNL     1       4.408   4.788  18.492  0.00  0.00    +0.000 A 
ATOM     17  C   UNL     1       3.429   5.773  18.771  0.00  0.00    +0.000 A 
ATOM     18  N   UNL     1       2.605   5.915  19.868  0.00  0.00    +0.000 N 
ENDROOT
BRANCH  14  19
ATOM     19  O   UNL     1       5.782   6.187  15.357  0.00  0.00    +0.000 OA
BRANCH  19  20
ATOM     20  C   UNL     1       6.696   5.170  14.893  0.00  0.00    +0.000 C 
BRANCH  20  21
ATOM     21  C   UNL     1       5.914   3.971  14.277  0.00  0.00    +0.000 C 
BRANCH  21  22
ATOM     22  N   UNL     1       6.364   3.555  12.923  0.00  0.00    +0.000 NA
ATOM     23  C   UNL     1       5.243   3.403  11.994  0.00  0.00    +0.000 C 
ATOM     24  C   UNL     1       7.317   4.523  12.361  0.00  0.00    +0.000 C 
ENDBRANCH  21  22
ENDBRANCH  20  21
ENDBRANCH  19  20
ENDBRANCH  14  19
BRANCH  18  25
ATOM     25  C   UNL     1       2.643   5.033  21.032  0.00  0.00    +0.000 C 
BRANCH  25  26
ATOM     26  C   UNL     1       1.520   3.989  21.048  0.00  0.00    +0.000 C 
BRANCH  26  27
ATOM     27  N   UNL     1       1.946   2.623  20.653  0.00  0.00    +0.000 NA
ATOM     28  C   UNL     1       1.650   2.332  19.248  0.00  0.00    +0.000 C 
ATOM     29  C   UNL     1       3.387   2.478  20.889  0.00  0.00    +0.000 C 
ENDBRANCH  26  27
ENDBRANCH  25  26
ENDBRANCH  18  25
TORSDOF 7
ENDMDL
MODEL 3
REMARK VINA RESULT:      -6.6      1.040      1.370
REMARK  Name = 
REMARK  12 active torsions:
REMARK  status: ('A' for Active; 'I' for Inactive)
REMARK    1  A    between atoms: C_1  and  C_2
REMARK    2  A    between atoms: C_14  and  O_15
REMARK    3  A    between atoms: O_15  and  C_16
REMARK    4  A    between atoms: C_16  and  C_17
REMARK    5  A    between atoms: C_17  and  N_18
REMARK    6  A    between atoms: N_18  and  C_19
REMARK    7  A    between atoms: N_18  and  C_20
REMARK    8  A    between atoms: N_24  and  C_25
REMARK    9  A    between atoms: C_25  and  C_26
REMARK   10  A    between atoms: C_26  and  N_27
REMARK   11  A    between atoms: N_27  and  C_28
REMARK   12  A    between atoms: N_27  and  C_29
REMARK                            x       y       z     vdW  Elec       q    Type
REMARK                         _______ _______ _______ _____ _____    ______ ____
ROOT
ATOM      1  C   UNL     1       3.287   9.327  17.386  0.00  0.00    +0.000 C 
ATOM      2  C   UNL     1       2.806   7.970  17.949  0.00  0.00    +0.000 A 
ATOM      3  C   UNL     1       1.875   8.194  19.032  0.00  0.00    +0.000 A 
ATOM      4  C   UNL     1       1.108   9.395  19.190  0.00  0.00    +0.000 A 
ATOM      5  C   UNL     1       0.428   9.714  20.356  0.00  0.00    +0.000 A 
ATOM      6  C   UNL     1       0.416   8.788  21.372  0.00  0.00    +0.000 A 
ATOM      7  C   UNL     1       1.053   7.551  21.185  0.00  0.00    +0.000 A 
ATOM      8  C   UNL     1       1.784   7.228  20.040  0.00  0.00    +0.000 A 
ATOM      9  N   UNL     1       2.422   6.054  20.008  0.00  0.00    +0.000 NA
ATOM     10  C   UNL     1       3.202   5.803  18.937  0.00  0.00    +0.000 A 
ATOM     11  C   UNL     1       3.425   6.630  17.824  0.00  0.00    +0.000 A 
ATOM     12  C   UNL     1       4.378   5.831  16.967  0.00  0.00    +0.000 A 
ATOM     13  C   UNL     1       5.036   5.938  15.689  0.00  0.00    +0.000 A 
ATOM     14  C   UNL     1       6.181   5.170  15.334  0.00  0.00    +0.000 A 
ATOM     15  C   UNL     1       6.583   4.137  16.160  0.00  0.00    +0.000 A 
ATOM     16  C   UNL     1       5.851   3.864  17.321  0.00  0.00    +0.000 A 
ATOM     17  C   UNL     1       4.792   4.715  17.720  0.00  0.00    +0.000 A 
ATOM     18  N   UNL     1       4.024   4.694  18.865  0.00  0.00    +0.000 N 
ENDROOT
BRANCH  14  19
ATOM     19  O   UNL     1       6.881   5.605  14.226  0.00  0.00    +0.000 OA
BRANCH  19  20
ATOM     20  C   UNL     1       7.120   4.674  13.149  0.00  0.00    +0.000 C 
BRANCH  20  21
ATOM     21  C   UNL     1       5.978   3.614  13.080  0.00  0.00    +0.000 C 
BRANCH  21  22
ATOM     22  N   UNL     1       5.638   3.146  11.711  0.00  0.00    +0.000 NA
ATOM     23  C   UNL     1       5.906   1.717  11.537  0.00  0.00    +0.000 C 
ATOM     24  C   UNL     1       4.224   3.404  11.398  0.00  0.00    +0.000 C 
ENDBRANCH  21  22
ENDBRANCH  20  21
ENDBRANCH  19  20
ENDBRANCH  14  19
BRANCH  18  25
ATOM     25  C   UNL     1       4.224   3.748  19.960  0.00  0.00    +0.000 C 
BRANCH  25  26
ATOM     26  C   UNL     1       3.348   2.494  19.856  0.00  0.00    +0.000 C 
BRANCH  26  27
ATOM     27  N   UNL     1       1.896   2.743  20.035  0.00  0.00    +0.000 NA
ATOM     28  C   UNL     1       1.072   1.819  19.252  0.00  0.00    +0.000 C 
ATOM     29  C   UNL     1       1.556   2.616  21.457  0.00  0.00    +0.000 C 
ENDBRANCH  26  27
ENDBRANCH  25  26
ENDBRANCH  18  25
TORSDOF 7
ENDMDL
MODEL 4
REMARK VINA RESULT:      -6.4      3.651      7.063
REMARK  Name = 
REMARK  12 active torsions:
REMARK  status: ('A' for Active; 'I' for Inactive)
REMARK    1  A    between atoms: C_1  and  C_2
REMARK    2  A    between atoms: C_14  and  O_15
REMARK    3  A    between atoms: O_15  and  C_16
REMARK    4  A    between atoms: C_16  and  C_17
REMARK    5  A    between atoms: C_17  and  N_18
REMARK    6  A    between atoms: N_18  and  C_19
REMARK    7  A    between atoms: N_18  and  C_20
REMARK    8  A    between atoms: N_24  and  C_25
REMARK    9  A    between atoms: C_25  and  C_26
REMARK   10  A    between atoms: C_26  and  N_27
REMARK   11  A    between atoms: N_27  and  C_28
REMARK   12  A    between atoms: N_27  and  C_29
REMARK                            x       y       z     vdW  Elec       q    Type
REMARK                         _______ _______ _______ _____ _____    ______ ____
ROOT
ATOM      1  C   UNL     1      -0.914   9.791  23.318  0.00  0.00    +0.000 C 
ATOM      2  C   UNL     1      -0.821  10.807  22.157  0.00  0.00    +0.000 A 
ATOM      3  C   UNL     1      -1.759  11.885  22.376  0.00  0.00    +0.000 A 
ATOM      4  C   UNL     1      -2.265  12.253  23.666  0.00  0.00    +0.000 A 
ATOM      5  C   UNL     1      -3.351  13.096  23.843  0.00  0.00    +0.000 A 
ATOM      6  C   UNL     1      -3.907  13.678  22.729  0.00  0.00    +0.000 A 
ATOM      7  C   UNL     1      -3.342  13.432  21.468  0.00  0.00    +0.000 A 
ATOM      8  C   UNL     1      -2.280  12.549  21.261  0.00  0.00    +0.000 A 
ATOM      9  N   UNL     1      -1.880  12.326  20.005  0.00  0.00    +0.000 NA
ATOM     10  C   UNL     1      -0.921  11.397  19.817  0.00  0.00    +0.000 A 
ATOM     11  C   UNL     1      -0.269  10.626  20.794  0.00  0.00    +0.000 A 
ATOM     12  C   UNL     1       0.687   9.770  19.998  0.00  0.00    +0.000 A 
ATOM     13  C   UNL     1       1.710   8.783  20.233  0.00  0.00    +0.000 A 
ATOM     14  C   UNL     1       2.171   7.882  19.231  0.00  0.00    +0.000 A 
ATOM     15  C   UNL     1       1.770   8.068  17.920  0.00  0.00    +0.000 A 
ATOM     16  C   UNL     1       0.929   9.141  17.608  0.00  0.00    +0.000 A 
ATOM     17  C   UNL     1       0.384   9.950  18.634  0.00  0.00    +0.000 A 
ATOM     18  N   UNL     1      -0.537  10.974  18.559  0.00  0.00    +0.000 N 
ENDROOT
BRANCH  14  19
ATOM     19  O   UNL     1       2.904   6.801  19.679  0.00  0.00    +0.000 OA
BRANCH  19  20
ATOM     20  C   UNL     1       2.954   5.612  18.862  0.00  0.00    +0.000 C 
BRANCH  20  21
ATOM     21  C   UNL     1       3.334   4.370  19.724  0.00  0.00    +0.000 C 
BRANCH  21  22
ATOM     22  N   UNL     1       2.276   3.333  19.834  0.00  0.00    +0.000 NA
ATOM     23  C   UNL     1       0.982   3.905  20.211  0.00  0.00    +0.000 C 
ATOM     24  C   UNL     1       2.118   2.601  18.568  0.00  0.00    +0.000 C 
ENDBRANCH  21  22
ENDBRANCH  20  21
ENDBRANCH  19  20
ENDBRANCH  14  19
BRANCH  18  25
ATOM     25  C   UNL     1      -1.187  11.392  17.319  0.00  0.00    +0.000 C 
BRANCH  25  26
ATOM     26  C   UNL     1      -2.363  10.497  16.909  0.00  0.00    +0.000 C 
BRANCH  26  27
ATOM     27  N   UNL     1      -3.279  11.105  15.912  0.00  0.00    +0.000 NA
ATOM     28  C   UNL     1      -3.517  10.224  14.766  0.00  0.00    +0.000 C 
ATOM     29  C   UNL     1      -4.557  11.421  16.559  0.00  0.00    +0.000 C 
ENDBRANCH  26  27
ENDBRANCH  25  26
ENDBRANCH  18  25
TORSDOF 7
ENDMDL
MODEL 5
REMARK VINA RESULT:      -6.4      8.025      9.764
REMARK  Name = 
REMARK  12 active torsions:
REMARK  status: ('A' for Active; 'I' for Inactive)
REMARK    1  A    between atoms: C_1  and  C_2
REMARK    2  A    between atoms: C_14  and  O_15
REMARK    3  A    between atoms: O_15  and  C_16
REMARK    4  A    between atoms: C_16  and  C_17
REMARK    5  A    between atoms: C_17  and  N_18
REMARK    6  A    between atoms: N_18  and  C_19
REMARK    7  A    between atoms: N_18  and  C_20
REMARK    8  A    between atoms: N_24  and  C_25
REMARK    9  A    between atoms: C_25  and  C_26
REMARK   10  A    between atoms: C_26  and  N_27
REMARK   11  A    between atoms: N_27  and  C_28
REMARK   12  A    between atoms: N_27  and  C_29
REMARK                            x       y       z     vdW  Elec       q    Type
REMARK                         _______ _______ _______ _____ _____    ______ ____
ROOT
ATOM      1  C   UNL     1       7.565  11.552  23.982  0.00  0.00    +0.000 C 
ATOM      2  C   UNL     1       8.538  12.593  23.380  0.00  0.00    +0.000 A 
ATOM      3  C   UNL     1       8.586  13.762  24.229  0.00  0.00    +0.000 A 
ATOM      4  C   UNL     1       8.256  13.751  25.624  0.00  0.00    +0.000 A 
ATOM      5  C   UNL     1       8.045  14.904  26.364  0.00  0.00    +0.000 A 
ATOM      6  C   UNL     1       8.255  16.115  25.749  0.00  0.00    +0.000 A 
ATOM      7  C   UNL     1       8.705  16.144  24.420  0.00  0.00    +0.000 A 
ATOM      8  C   UNL     1       8.876  14.998  23.641  0.00  0.00    +0.000 A 
ATOM      9  N   UNL     1       9.225  15.151  22.359  0.00  0.00    +0.000 NA
ATOM     10  C   UNL     1       9.289  14.040  21.599  0.00  0.00    +0.000 A 
ATOM     11  C   UNL     1       9.041  12.714  21.993  0.00  0.00    +0.000 A 
ATOM     12  C   UNL     1       9.261  11.916  20.729  0.00  0.00    +0.000 A 
ATOM     13  C   UNL     1       9.255  10.540  20.302  0.00  0.00    +0.000 A 
ATOM     14  C   UNL     1       9.134  10.146  18.939  0.00  0.00    +0.000 A 
ATOM     15  C   UNL     1       9.214  11.108  17.949  0.00  0.00    +0.000 A 
ATOM     16  C   UNL     1       9.421  12.444  18.308  0.00  0.00    +0.000 A 
ATOM     17  C   UNL     1       9.415  12.832  19.670  0.00  0.00    +0.000 A 
ATOM     18  N   UNL     1       9.489  14.089  20.232  0.00  0.00    +0.000 N 
ENDROOT
BRANCH  14  19
ATOM     19  O   UNL     1       8.822   8.819  18.718  0.00  0.00    +0.000 OA
BRANCH  19  20
ATOM     20  C   UNL     1       7.814   8.500  17.735  0.00  0.00    +0.000 C 
BRANCH  20  21
ATOM     21  C   UNL     1       7.462   6.982  17.785  0.00  0.00    +0.000 C 
BRANCH  21  22
ATOM     22  N   UNL     1       6.853   6.437  16.544  0.00  0.00    +0.000 NA
ATOM     23  C   UNL     1       7.138   5.011  16.372  0.00  0.00    +0.000 C 
ATOM     24  C   UNL     1       5.395   6.631  16.538  0.00  0.00    +0.000 C 
ENDBRANCH  21  22
ENDBRANCH  20  21
ENDBRANCH  19  20
ENDBRANCH  14  19
BRANCH  18  25
ATOM     25  C   UNL     1       9.542  15.324  19.454  0.00  0.00    +0.000 C 
BRANCH  25  26
ATOM     26  C   UNL     1       8.161  15.919  19.150  0.00  0.00    +0.000 C 
BRANCH  26  27
ATOM     27  N   UNL     1       7.047  14.941  19.201  0.00  0.00    +0.000 NA
ATOM     28  C   UNL     1       5.990  15.348  20.130  0.00  0.00    +0.000 C 
ATOM     29  C   UNL     1       6.480  14.782  17.857  0.00  0.00    +0.000 C 
ENDBRANCH  26  27
ENDBRANCH  25  26
ENDBRANCH  18  25
TORSDOF 7
ENDMDL
MODEL 6
REMARK VINA RESULT:      -6.3      0.723      1.079
REMARK  Name = 
REMARK  12 active torsions:
REMARK  status: ('A' for Active; 'I' for Inactive)
REMARK    1  A    between atoms: C_1  and  C_2
REMARK    2  A    between atoms: C_14  and  O_15
REMARK    3  A    between atoms: O_15  and  C_16
REMARK    4  A    between atoms: C_16  and  C_17
REMARK    5  A    between atoms: C_17  and  N_18
REMARK    6  A    between atoms: N_18  and  C_19
REMARK    7  A    between atoms: N_18  and  C_20
REMARK    8  A    between atoms: N_24  and  C_25
REMARK    9  A    between atoms: C_25  and  C_26
REMARK   10  A    between atoms: C_26  and  N_27
REMARK   11  A    between atoms: N_27  and  C_28
REMARK   12  A    between atoms: N_27  and  C_29
REMARK                            x       y       z     vdW  Elec       q    Type
REMARK                         _______ _______ _______ _____ _____    ______ ____
ROOT
ATOM      1  C   UNL     1       2.919   9.695  17.755  0.00  0.00    +0.000 C 
ATOM      2  C   UNL     1       2.371   8.375  18.345  0.00  0.00    +0.000 A 
ATOM      3  C   UNL     1       1.414   8.669  19.388  0.00  0.00    +0.000 A 
ATOM      4  C   UNL     1       0.686   9.900  19.481  0.00  0.00    +0.000 A 
ATOM      5  C   UNL     1      -0.020  10.282  20.611  0.00  0.00    +0.000 A 
ATOM      6  C   UNL     1      -0.099   9.392  21.656  0.00  0.00    +0.000 A 
ATOM      7  C   UNL     1       0.499   8.128  21.531  0.00  0.00    +0.000 A 
ATOM      8  C   UNL     1       1.255   7.741  20.423  0.00  0.00    +0.000 A 
ATOM      9  N   UNL     1       1.851   6.545  20.451  0.00  0.00    +0.000 NA
ATOM     10  C   UNL     1       2.656   6.230  19.417  0.00  0.00    +0.000 A 
ATOM     11  C   UNL     1       2.945   7.011  18.286  0.00  0.00    +0.000 A 
ATOM     12  C   UNL     1       3.896   6.150  17.488  0.00  0.00    +0.000 A 
ATOM     13  C   UNL     1       4.600   6.191  16.231  0.00  0.00    +0.000 A 
ATOM     14  C   UNL     1       5.728   5.372  15.940  0.00  0.00    +0.000 A 
ATOM     15  C   UNL     1       6.065   4.353  16.812  0.00  0.00    +0.000 A 
ATOM     16  C   UNL     1       5.286   4.146  17.956  0.00  0.00    +0.000 A 
ATOM     17  C   UNL     1       4.246   5.047  18.291  0.00  0.00    +0.000 A 
ATOM     18  N   UNL     1       3.440   5.092  19.409  0.00  0.00    +0.000 N 
ENDROOT
BRANCH  14  19
ATOM     19  O   UNL     1       6.479   5.744  14.843  0.00  0.00    +0.000 OA
BRANCH  19  20
ATOM     20  C   UNL     1       7.303   4.749  14.200  0.00  0.00    +0.000 C 
BRANCH  20  21
ATOM     21  C   UNL     1       7.293   4.945  12.654  0.00  0.00    +0.000 C 
BRANCH  21  22
ATOM     22  N   UNL     1       6.551   3.906  11.893  0.00  0.00    +0.000 NA
ATOM     23  C   UNL     1       7.386   2.741  11.596  0.00  0.00    +0.000 C 
ATOM     24  C   UNL     1       5.359   3.459  12.629  0.00  0.00    +0.000 C 
ENDBRANCH  21  22
ENDBRANCH  20  21
ENDBRANCH  19  20
ENDBRANCH  14  19
BRANCH  18  25
ATOM     25  C   UNL     1       3.569   4.177  20.540  0.00  0.00    +0.000 C 
BRANCH  25  26
ATOM     26  C   UNL     1       3.320   2.709  20.175  0.00  0.00    +0.000 C 
BRANCH  26  27
ATOM     27  N   UNL     1       1.909   2.272  20.314  0.00  0.00    +0.000 NA
ATOM     28  C   UNL     1       1.204   2.993  21.376  0.00  0.00    +0.000 C 
ATOM     29  C   UNL     1       1.212   2.477  19.039  0.00  0.00    +0.000 C 
ENDBRANCH  26  27
ENDBRANCH  25  26
ENDBRANCH  18  25
TORSDOF 7
ENDMDL
MODEL 7
REMARK VINA RESULT:      -6.3      8.615     10.400
REMARK  Name = 
REMARK  12 active torsions:
REMARK  status: ('A' for Active; 'I' for Inactive)
REMARK    1  A    between atoms: C_1  and  C_2
REMARK    2  A    between atoms: C_14  and  O_15
REMARK    3  A    between atoms: O_15  and  C_16
REMARK    4  A    between atoms: C_16  and  C_17
REMARK    5  A    between atoms: C_17  and  N_18
REMARK    6  A    between atoms: N_18  and  C_19
REMARK    7  A    between atoms: N_18  and  C_20
REMARK    8  A    between atoms: N_24  and  C_25
REMARK    9  A    between atoms: C_25  and  C_26
REMARK   10  A    between atoms: C_26  and  N_27
REMARK   11  A    between atoms: N_27  and  C_28
REMARK   12  A    between atoms: N_27  and  C_29
REMARK                            x       y       z     vdW  Elec       q    Type
REMARK                         _______ _______ _______ _____ _____    ______ ____
ROOT
ATOM      1  C   UNL     1       7.557  11.547  23.909  0.00  0.00    +0.000 C 
ATOM      2  C   UNL     1       8.579  12.536  23.303  0.00  0.00    +0.000 A 
ATOM      3  C   UNL     1       8.673  13.713  24.138  0.00  0.00    +0.000 A 
ATOM      4  C   UNL     1       8.333  13.734  25.530  0.00  0.00    +0.000 A 
ATOM      5  C   UNL     1       8.168  14.904  26.254  0.00  0.00    +0.000 A 
ATOM      6  C   UNL     1       8.435  16.097  25.626  0.00  0.00    +0.000 A 
ATOM      7  C   UNL     1       8.896  16.090  24.300  0.00  0.00    +0.000 A 
ATOM      8  C   UNL     1       9.022  14.927  23.537  0.00  0.00    +0.000 A 
ATOM      9  N   UNL     1       9.386  15.049  22.256  0.00  0.00    +0.000 NA
ATOM     10  C   UNL     1       9.406  13.927  21.510  0.00  0.00    +0.000 A 
ATOM     11  C   UNL     1       9.098  12.618  21.918  0.00  0.00    +0.000 A 
ATOM     12  C   UNL     1       9.292  11.796  20.666  0.00  0.00    +0.000 A 
ATOM     13  C   UNL     1       9.228  10.416  20.255  0.00  0.00    +0.000 A 
ATOM     14  C   UNL     1       9.099  10.011  18.896  0.00  0.00    +0.000 A 
ATOM     15  C   UNL     1       9.228  10.955  17.895  0.00  0.00    +0.000 A 
ATOM     16  C   UNL     1       9.491  12.286  18.239  0.00  0.00    +0.000 A 
ATOM     17  C   UNL     1       9.493  12.690  19.596  0.00  0.00    +0.000 A 
ATOM     18  N   UNL     1       9.619  13.950  20.144  0.00  0.00    +0.000 N 
ENDROOT
BRANCH  14  19
ATOM     19  O   UNL     1       8.731   8.696  18.689  0.00  0.00    +0.000 OA
BRANCH  19  20
ATOM     20  C   UNL     1       7.827   8.394  17.605  0.00  0.00    +0.000 C 
BRANCH  20  21
ATOM     21  C   UNL     1       7.069   7.060  17.879  0.00  0.00    +0.000 C 
BRANCH  21  22
ATOM     22  N   UNL     1       7.506   5.906  17.051  0.00  0.00    +0.000 NA
ATOM     23  C   UNL     1       7.702   4.697  17.853  0.00  0.00    +0.000 C 
ATOM     24  C   UNL     1       6.533   5.616  15.988  0.00  0.00    +0.000 C 
ENDBRANCH  21  22
ENDBRANCH  20  21
ENDBRANCH  19  20
ENDBRANCH  14  19
BRANCH  18  25
ATOM     25  C   UNL     1       9.731  15.172  19.352  0.00  0.00    +0.000 C 
BRANCH  25  26
ATOM     26  C   UNL     1      11.162  15.715  19.259  0.00  0.00    +0.000 C 
BRANCH  26  27
ATOM     27  N   UNL     1      11.616  16.018  17.879  0.00  0.00    +0.000 NA
ATOM     28  C   UNL     1      10.503  16.080  16.928  0.00  0.00    +0.000 C 
ATOM     29  C   UNL     1      12.332  17.299  17.876  0.00  0.00    +0.000 C 
ENDBRANCH  26  27
ENDBRANCH  25  26
ENDBRANCH  18  25
TORSDOF 7
ENDMDL
MODEL 8
REMARK VINA RESULT:      -6.2      3.659      6.767
REMARK  Name = 
REMARK  12 active torsions:
REMARK  status: ('A' for Active; 'I' for Inactive)
REMARK    1  A    between atoms: C_1  and  C_2
REMARK    2  A    between atoms: C_14  and  O_15
REMARK    3  A    between atoms: O_15  and  C_16
REMARK    4  A    between atoms: C_16  and  C_17
REMARK    5  A    between atoms: C_17  and  N_18
REMARK    6  A    between atoms: N_18  and  C_19
REMARK    7  A    between atoms: N_18  and  C_20
REMARK    8  A    between atoms: N_24  and  C_25
REMARK    9  A    between atoms: C_25  and  C_26
REMARK   10  A    between atoms: C_26  and  N_27
REMARK   11  A    between atoms: N_27  and  C_28
REMARK   12  A    between atoms: N_27  and  C_29
REMARK                            x       y       z     vdW  Elec       q    Type
REMARK                         _______ _______ _______ _____ _____    ______ ____
ROOT
ATOM      1  C   UNL     1      -0.876   9.799  23.300  0.00  0.00    +0.000 C 
ATOM      2  C   UNL     1      -0.807  10.828  22.148  0.00  0.00    +0.000 A 
ATOM      3  C   UNL     1      -1.749  11.897  22.392  0.00  0.00    +0.000 A 
ATOM      4  C   UNL     1      -2.239  12.248  23.692  0.00  0.00    +0.000 A 
ATOM      5  C   UNL     1      -3.328  13.082  23.894  0.00  0.00    +0.000 A 
ATOM      6  C   UNL     1      -3.904  13.671  22.794  0.00  0.00    +0.000 A 
ATOM      7  C   UNL     1      -3.355  13.442  21.523  0.00  0.00    +0.000 A 
ATOM      8  C   UNL     1      -2.291  12.569  21.291  0.00  0.00    +0.000 A 
ATOM      9  N   UNL     1      -1.908  12.361  20.027  0.00  0.00    +0.000 NA
ATOM     10  C   UNL     1      -0.945  11.441  19.816  0.00  0.00    +0.000 A 
ATOM     11  C   UNL     1      -0.274  10.665  20.775  0.00  0.00    +0.000 A 
ATOM     12  C   UNL     1       0.677   9.824  19.957  0.00  0.00    +0.000 A 
ATOM     13  C   UNL     1       1.710   8.842  20.167  0.00  0.00    +0.000 A 
ATOM     14  C   UNL     1       2.162   7.954  19.149  0.00  0.00    +0.000 A 
ATOM     15  C   UNL     1       1.742   8.151  17.846  0.00  0.00    +0.000 A 
ATOM     16  C   UNL     1       0.889   9.222  17.557  0.00  0.00    +0.000 A 
ATOM     17  C   UNL     1       0.353  10.016  18.599  0.00  0.00    +0.000 A 
ATOM     18  N   UNL     1      -0.576  11.034  18.548  0.00  0.00    +0.000 N 
ENDROOT
BRANCH  14  19
ATOM     19  O   UNL     1       2.910   6.874  19.575  0.00  0.00    +0.000 OA
BRANCH  19  20
ATOM     20  C   UNL     1       2.684   5.590  18.957  0.00  0.00    +0.000 C 
BRANCH  20  21
ATOM     21  C   UNL     1       3.668   5.375  17.767  0.00  0.00    +0.000 C 
BRANCH  21  22
ATOM     22  N   UNL     1       4.761   4.400  18.022  0.00  0.00    +0.000 NA
ATOM     23  C   UNL     1       5.506   4.079  16.804  0.00  0.00    +0.000 C 
ATOM     24  C   UNL     1       5.701   4.910  19.031  0.00  0.00    +0.000 C 
ENDBRANCH  21  22
ENDBRANCH  20  21
ENDBRANCH  19  20
ENDBRANCH  14  19
BRANCH  18  25
ATOM     25  C   UNL     1      -1.247  11.460  17.322  0.00  0.00    +0.000 C 
BRANCH  25  26
ATOM     26  C   UNL     1      -2.394  10.536  16.896  0.00  0.00    +0.000 C 
BRANCH  26  27
ATOM     27  N   UNL     1      -3.323  11.128  15.901  0.00  0.00    +0.000 NA
ATOM     28  C   UNL     1      -3.502  10.270  14.727  0.00  0.00    +0.000 C 
ATOM     29  C   UNL     1      -4.624  11.366  16.536  0.00  0.00    +0.000 C 
ENDBRANCH  26  27
ENDBRANCH  25  26
ENDBRANCH  18  25
TORSDOF 7
ENDMDL
MODEL 9
REMARK VINA RESULT:      -6.2      3.420      6.371
REMARK  Name = 
REMARK  12 active torsions:
REMARK  status: ('A' for Active; 'I' for Inactive)
REMARK    1  A    between atoms: C_1  and  C_2
REMARK    2  A    between atoms: C_14  and  O_15
REMARK    3  A    between atoms: O_15  and  C_16
REMARK    4  A    between atoms: C_16  and  C_17
REMARK    5  A    between atoms: C_17  and  N_18
REMARK    6  A    between atoms: N_18  and  C_19
REMARK    7  A    between atoms: N_18  and  C_20
REMARK    8  A    between atoms: N_24  and  C_25
REMARK    9  A    between atoms: C_25  and  C_26
REMARK   10  A    between atoms: C_26  and  N_27
REMARK   11  A    between atoms: N_27  and  C_28
REMARK   12  A    between atoms: N_27  and  C_29
REMARK                            x       y       z     vdW  Elec       q    Type
REMARK                         _______ _______ _______ _____ _____    ______ ____
ROOT
ATOM      1  C   UNL     1      -0.671   9.510  23.355  0.00  0.00    +0.000 C 
ATOM      2  C   UNL     1      -0.540  10.445  22.131  0.00  0.00    +0.000 A 
ATOM      3  C   UNL     1      -1.453  11.557  22.268  0.00  0.00    +0.000 A 
ATOM      4  C   UNL     1      -1.964  12.021  23.524  0.00  0.00    +0.000 A 
ATOM      5  C   UNL     1      -3.031  12.900  23.632  0.00  0.00    +0.000 A 
ATOM      6  C   UNL     1      -3.560  13.420  22.475  0.00  0.00    +0.000 A 
ATOM      7  C   UNL     1      -2.987  13.079  21.240  0.00  0.00    +0.000 A 
ATOM      8  C   UNL     1      -1.946  12.159  21.105  0.00  0.00    +0.000 A 
ATOM      9  N   UNL     1      -1.538  11.843  19.871  0.00  0.00    +0.000 NA
ATOM     10  C   UNL     1      -0.600  10.882  19.757  0.00  0.00    +0.000 A 
ATOM     11  C   UNL     1       0.022  10.162  20.790  0.00  0.00    +0.000 A 
ATOM     12  C   UNL     1       0.965   9.232  20.064  0.00  0.00    +0.000 A 
ATOM     13  C   UNL     1       1.961   8.238  20.375  0.00  0.00    +0.000 A 
ATOM     14  C   UNL     1       2.410   7.262  19.440  0.00  0.00    +0.000 A 
ATOM     15  C   UNL     1       2.029   7.371  18.116  0.00  0.00    +0.000 A 
ATOM     16  C   UNL     1       1.218   8.442  17.723  0.00  0.00    +0.000 A 
ATOM     17  C   UNL     1       0.681   9.329  18.687  0.00  0.00    +0.000 A 
ATOM     18  N   UNL     1      -0.213  10.367  18.533  0.00  0.00    +0.000 N 
ENDROOT
BRANCH  14  19
ATOM     19  O   UNL     1       3.112   6.196  19.968  0.00  0.00    +0.000 OA
BRANCH  19  20
ATOM     20  C   UNL     1       4.184   5.622  19.190  0.00  0.00    +0.000 C 
BRANCH  20  21
ATOM     21  C   UNL     1       4.030   4.073  19.106  0.00  0.00    +0.000 C 
BRANCH  21  22
ATOM     22  N   UNL     1       3.914   3.526  17.729  0.00  0.00    +0.000 NA
ATOM     23  C   UNL     1       2.522   3.275  17.354  0.00  0.00    +0.000 C 
ATOM     24  C   UNL     1       4.513   4.439  16.744  0.00  0.00    +0.000 C 
ENDBRANCH  21  22
ENDBRANCH  20  21
ENDBRANCH  19  20
ENDBRANCH  14  19
BRANCH  18  25
ATOM     25  C   UNL     1      -0.839  10.718  17.261  0.00  0.00    +0.000 C 
BRANCH  25  26
ATOM     26  C   UNL     1      -2.247  10.137  17.087  0.00  0.00    +0.000 C 
BRANCH  26  27
ATOM     27  N   UNL     1      -3.140  10.940  16.215  0.00  0.00    +0.000 NA
ATOM     28  C   UNL     1      -3.260  10.373  14.869  0.00  0.00    +0.000 C 
ATOM     29  C   UNL     1      -4.469  11.024  16.831  0.00  0.00    +0.000 C 
ENDBRANCH  26  27
ENDBRANCH  25  26
ENDBRANCH  18  25
TORSDOF 7
ENDMDL
