MODEL 1
REMARK VINA RESULT:      -7.5      0.000      0.000
REMARK  Name = 
REMARK  3 active torsions:
REMARK  status: ('A' for Active; 'I' for Inactive)
REMARK    1  A    between atoms: C_2  and  C_3
REMARK    2  A    between atoms: C_3  and  N_4
REMARK    3  A    between atoms: N_17  and  C_18
REMARK                            x       y       z     vdW  Elec       q    Type
REMARK                         _______ _______ _______ _____ _____    ______ ____
ROOT
ATOM      1  N   UNL     1       5.752   5.272  16.691  0.00  0.00    +0.000 N 
ATOM      2  C   UNL     1       5.623   6.669  16.857  0.00  0.00    +0.000 C 
ATOM      3  O   UNL     1       6.481   7.494  16.562  0.00  0.00    +0.000 OA
ATOM      4  C   UNL     1       4.294   6.806  17.425  0.00  0.00    +0.000 A 
ATOM      5  C   UNL     1       3.581   7.930  17.838  0.00  0.00    +0.000 A 
ATOM      6  C   UNL     1       2.288   7.710  18.355  0.00  0.00    +0.000 A 
ATOM      7  C   UNL     1       1.730   6.417  18.457  0.00  0.00    +0.000 A 
ATOM      8  C   UNL     1       2.471   5.297  18.042  0.00  0.00    +0.000 A 
ATOM      9  C   UNL     1       2.092   3.941  18.075  0.00  0.00    +0.000 A 
ATOM     10  C   UNL     1       2.981   2.945  17.613  0.00  0.00    +0.000 A 
ATOM     11  C   UNL     1       4.260   3.256  17.106  0.00  0.00    +0.000 A 
ATOM     12  C   UNL     1       4.598   4.600  17.093  0.00  0.00    +0.000 A 
ATOM     13  C   UNL     1       3.716   5.554  17.546  0.00  0.00    +0.000 A 
ENDROOT
BRANCH   1  14
ATOM     14  C   UNL     1       6.965   4.663  16.203  0.00  0.00    +0.000 C 
BRANCH  14  16
ATOM     15  O   UNL     1       7.763   5.319  14.015  0.00  0.00    +0.000 OA
ATOM     16  C   UNL     1       7.002   4.616  14.676  0.00  0.00    +0.000 C 
ATOM     17  N   UNL     1       6.125   3.707  14.116  0.00  0.00    +0.000 N 
ATOM     18  H   UNL     1       5.764   2.975  14.723  0.00  0.00    +0.000 HD
BRANCH  17  19
ATOM     19  C   UNL     1       6.012   3.528  12.682  0.00  0.00    +0.000 C 
ATOM     20  C   UNL     1       6.517   2.174  12.195  0.00  0.00    +0.000 C 
ATOM     21  C   UNL     1       5.877   2.024  10.818  0.00  0.00    +0.000 C 
ATOM     22  C   UNL     1       4.561   2.799  10.882  0.00  0.00    +0.000 C 
ATOM     23  C   UNL     1       4.558   3.535  12.216  0.00  0.00    +0.000 C 
ENDBRANCH  17  19
ENDBRANCH  14  16
ENDBRANCH   1  14
TORSDOF 3
ENDMDL
MODEL 2
REMARK VINA RESULT:      -7.4      2.000      3.371
REMARK  Name = 
REMARK  3 active torsions:
REMARK  status: ('A' for Active; 'I' for Inactive)
REMARK    1  A    between atoms: C_2  and  C_3
REMARK    2  A    between atoms: C_3  and  N_4
REMARK    3  A    between atoms: N_17  and  C_18
REMARK                            x       y       z     vdW  Elec       q    Type
REMARK                         _______ _______ _______ _____ _____    ______ ____
ROOT
ATOM      1  N   UNL     1       5.275   5.765  18.284  0.00  0.00    +0.000 N 
ATOM      2  C   UNL     1       5.726   4.452  18.545  0.00  0.00    +0.000 C 
ATOM      3  O   UNL     1       6.780   3.977  18.134  0.00  0.00    +0.000 OA
ATOM      4  C   UNL     1       4.663   3.902  19.366  0.00  0.00    +0.000 A 
ATOM      5  C   UNL     1       4.497   2.638  19.930  0.00  0.00    +0.000 A 
ATOM      6  C   UNL     1       3.326   2.428  20.687  0.00  0.00    +0.000 A 
ATOM      7  C   UNL     1       2.359   3.440  20.870  0.00  0.00    +0.000 A 
ATOM      8  C   UNL     1       2.543   4.704  20.284  0.00  0.00    +0.000 A 
ATOM      9  C   UNL     1       1.693   5.826  20.346  0.00  0.00    +0.000 A 
ATOM     10  C   UNL     1       2.049   7.022  19.683  0.00  0.00    +0.000 A 
ATOM     11  C   UNL     1       3.247   7.146  18.948  0.00  0.00    +0.000 A 
ATOM     12  C   UNL     1       4.055   6.020  18.908  0.00  0.00    +0.000 A 
ATOM     13  C   UNL     1       3.690   4.866  19.563  0.00  0.00    +0.000 A 
ENDROOT
BRANCH   1  14
ATOM     14  C   UNL     1       6.003   6.676  17.435  0.00  0.00    +0.000 C 
BRANCH  14  16
ATOM     15  O   UNL     1       4.827   7.090  15.362  0.00  0.00    +0.000 OA
ATOM     16  C   UNL     1       5.690   6.449  15.957  0.00  0.00    +0.000 C 
ATOM     17  N   UNL     1       6.471   5.480  15.355  0.00  0.00    +0.000 N 
ATOM     18  H   UNL     1       7.335   5.223  15.824  0.00  0.00    +0.000 HD
BRANCH  17  19
ATOM     19  C   UNL     1       6.311   5.120  13.960  0.00  0.00    +0.000 C 
ATOM     20  C   UNL     1       7.628   5.054  13.193  0.00  0.00    +0.000 C 
ATOM     21  C   UNL     1       7.287   4.222  11.961  0.00  0.00    +0.000 C 
ATOM     22  C   UNL     1       6.165   3.278  12.391  0.00  0.00    +0.000 C 
ATOM     23  C   UNL     1       5.750   3.710  13.792  0.00  0.00    +0.000 C 
ENDBRANCH  17  19
ENDBRANCH  14  16
ENDBRANCH   1  14
TORSDOF 3
ENDMDL
MODEL 3
REMARK VINA RESULT:      -7.3      1.851      3.021
REMARK  Name = 
REMARK  3 active torsions:
REMARK  status: ('A' for Active; 'I' for Inactive)
REMARK    1  A    between atoms: C_2  and  C_3
REMARK    2  A    between atoms: C_3  and  N_4
REMARK    3  A    between atoms: N_17  and  C_18
REMARK                            x       y       z     vdW  Elec       q    Type
REMARK                         _______ _______ _______ _____ _____    ______ ____
ROOT
ATOM      1  N   UNL     1       5.587   6.024  18.175  0.00  0.00    +0.000 N 
ATOM      2  C   UNL     1       5.551   4.933  19.071  0.00  0.00    +0.000 C 
ATOM      3  O   UNL     1       6.502   4.201  19.327  0.00  0.00    +0.000 OA
ATOM      4  C   UNL     1       4.180   4.951  19.547  0.00  0.00    +0.000 A 
ATOM      5  C   UNL     1       3.503   4.116  20.434  0.00  0.00    +0.000 A 
ATOM      6  C   UNL     1       2.148   4.417  20.684  0.00  0.00    +0.000 A 
ATOM      7  C   UNL     1       1.495   5.507  20.068  0.00  0.00    +0.000 A 
ATOM      8  C   UNL     1       2.195   6.330  19.170  0.00  0.00    +0.000 A 
ATOM      9  C   UNL     1       1.717   7.447  18.457  0.00  0.00    +0.000 A 
ATOM     10  C   UNL     1       2.578   8.155  17.589  0.00  0.00    +0.000 A 
ATOM     11  C   UNL     1       3.927   7.786  17.401  0.00  0.00    +0.000 A 
ATOM     12  C   UNL     1       4.358   6.680  18.116  0.00  0.00    +0.000 A 
ATOM     13  C   UNL     1       3.504   6.006  18.959  0.00  0.00    +0.000 A 
ENDROOT
BRANCH   1  14
ATOM     14  C   UNL     1       6.764   6.351  17.406  0.00  0.00    +0.000 C 
BRANCH  14  16
ATOM     15  O   UNL     1       7.947   4.368  16.686  0.00  0.00    +0.000 OA
ATOM     16  C   UNL     1       7.125   5.241  16.420  0.00  0.00    +0.000 C 
ATOM     17  N   UNL     1       6.436   5.301  15.223  0.00  0.00    +0.000 N 
ATOM     18  H   UNL     1       5.584   5.856  15.205  0.00  0.00    +0.000 HD
BRANCH  17  19
ATOM     19  C   UNL     1       6.652   4.338  14.161  0.00  0.00    +0.000 C 
ATOM     20  C   UNL     1       5.364   3.853  13.506  0.00  0.00    +0.000 C 
ATOM     21  C   UNL     1       5.831   3.274  12.175  0.00  0.00    +0.000 C 
ATOM     22  C   UNL     1       7.083   4.063  11.792  0.00  0.00    +0.000 C 
ATOM     23  C   UNL     1       7.423   4.942  12.989  0.00  0.00    +0.000 C 
ENDBRANCH  17  19
ENDBRANCH  14  16
ENDBRANCH   1  14
TORSDOF 3
ENDMDL
MODEL 4
REMARK VINA RESULT:      -7.3      3.046      7.133
REMARK  Name = 
REMARK  3 active torsions:
REMARK  status: ('A' for Active; 'I' for Inactive)
REMARK    1  A    between atoms: C_2  and  C_3
REMARK    2  A    between atoms: C_3  and  N_4
REMARK    3  A    between atoms: N_17  and  C_18
REMARK                            x       y       z     vdW  Elec       q    Type
REMARK                         _______ _______ _______ _____ _____    ______ ____
ROOT
ATOM      1  N   UNL     1       4.083   4.225  18.699  0.00  0.00    +0.000 N 
ATOM      2  C   UNL     1       3.598   3.763  17.456  0.00  0.00    +0.000 C 
ATOM      3  O   UNL     1       2.511   3.222  17.282  0.00  0.00    +0.000 OA
ATOM      4  C   UNL     1       4.677   4.096  16.544  0.00  0.00    +0.000 A 
ATOM      5  C   UNL     1       4.824   3.880  15.175  0.00  0.00    +0.000 A 
ATOM      6  C   UNL     1       6.021   4.337  14.583  0.00  0.00    +0.000 A 
ATOM      7  C   UNL     1       7.030   4.980  15.331  0.00  0.00    +0.000 A 
ATOM      8  C   UNL     1       6.864   5.178  16.713  0.00  0.00    +0.000 A 
ATOM      9  C   UNL     1       7.755   5.785  17.620  0.00  0.00    +0.000 A 
ATOM     10  C   UNL     1       7.412   5.893  18.986  0.00  0.00    +0.000 A 
ATOM     11  C   UNL     1       6.186   5.410  19.493  0.00  0.00    +0.000 A 
ATOM     12  C   UNL     1       5.339   4.817  18.571  0.00  0.00    +0.000 A 
ATOM     13  C   UNL     1       5.692   4.725  17.245  0.00  0.00    +0.000 A 
ENDROOT
BRANCH   1  14
ATOM     14  C   UNL     1       3.349   4.043  19.928  0.00  0.00    +0.000 C 
BRANCH  14  16
ATOM     15  O   UNL     1       1.027   4.633  20.260  0.00  0.00    +0.000 OA
ATOM     16  C   UNL     1       2.174   5.013  20.038  0.00  0.00    +0.000 C 
ATOM     17  N   UNL     1       2.521   6.342  19.883  0.00  0.00    +0.000 N 
ATOM     18  H   UNL     1       3.502   6.582  20.002  0.00  0.00    +0.000 HD
BRANCH  17  19
ATOM     19  C   UNL     1       1.539   7.406  19.946  0.00  0.00    +0.000 C 
ATOM     20  C   UNL     1       1.542   8.162  21.270  0.00  0.00    +0.000 C 
ATOM     21  C   UNL     1       0.827   9.469  20.943  0.00  0.00    +0.000 C 
ATOM     22  C   UNL     1       1.115   9.745  19.467  0.00  0.00    +0.000 C 
ATOM     23  C   UNL     1       1.821   8.507  18.926  0.00  0.00    +0.000 C 
ENDBRANCH  17  19
ENDBRANCH  14  16
ENDBRANCH   1  14
TORSDOF 3
ENDMDL
MODEL 5
REMARK VINA RESULT:      -7.1      1.849      3.449
REMARK  Name = 
REMARK  3 active torsions:
REMARK  status: ('A' for Active; 'I' for Inactive)
REMARK    1  A    between atoms: C_2  and  C_3
REMARK    2  A    between atoms: C_3  and  N_4
REMARK    3  A    between atoms: N_17  and  C_18
REMARK                            x       y       z     vdW  Elec       q    Type
REMARK                         _______ _______ _______ _____ _____    ______ ____
ROOT
ATOM      1  N   UNL     1       4.491   4.962  18.071  0.00  0.00    +0.000 N 
ATOM      2  C   UNL     1       4.307   3.617  17.684  0.00  0.00    +0.000 C 
ATOM      3  O   UNL     1       5.069   2.983  16.960  0.00  0.00    +0.000 OA
ATOM      4  C   UNL     1       3.066   3.257  18.345  0.00  0.00    +0.000 A 
ATOM      5  C   UNL     1       2.332   2.071  18.342  0.00  0.00    +0.000 A 
ATOM      6  C   UNL     1       1.146   2.055  19.105  0.00  0.00    +0.000 A 
ATOM      7  C   UNL     1       0.710   3.179  19.838  0.00  0.00    +0.000 A 
ATOM      8  C   UNL     1       1.461   4.367  19.819  0.00  0.00    +0.000 A 
ATOM      9  C   UNL     1       1.185   5.584  20.472  0.00  0.00    +0.000 A 
ATOM     10  C   UNL     1       2.064   6.680  20.330  0.00  0.00    +0.000 A 
ATOM     11  C   UNL     1       3.236   6.607  19.547  0.00  0.00    +0.000 A 
ATOM     12  C   UNL     1       3.471   5.395  18.918  0.00  0.00    +0.000 A 
ATOM     13  C   UNL     1       2.603   4.340  19.071  0.00  0.00    +0.000 A 
ENDROOT
BRANCH   1  14
ATOM     14  C   UNL     1       5.591   5.760  17.586  0.00  0.00    +0.000 C 
BRANCH  14  16
ATOM     15  O   UNL     1       4.990   6.888  15.533  0.00  0.00    +0.000 OA
ATOM     16  C   UNL     1       5.544   5.932  16.069  0.00  0.00    +0.000 C 
ATOM     17  N   UNL     1       6.192   4.933  15.366  0.00  0.00    +0.000 N 
ATOM     18  H   UNL     1       6.861   4.365  15.879  0.00  0.00    +0.000 HD
BRANCH  17  19
ATOM     19  C   UNL     1       6.245   4.922  13.918  0.00  0.00    +0.000 C 
ATOM     20  C   UNL     1       7.644   5.149  13.357  0.00  0.00    +0.000 C 
ATOM     21  C   UNL     1       7.550   4.627  11.927  0.00  0.00    +0.000 C 
ATOM     22  C   UNL     1       6.494   3.523  11.953  0.00  0.00    +0.000 C 
ATOM     23  C   UNL     1       5.866   3.560  13.342  0.00  0.00    +0.000 C 
ENDBRANCH  17  19
ENDBRANCH  14  16
ENDBRANCH   1  14
TORSDOF 3
ENDMDL
MODEL 6
REMARK VINA RESULT:      -7.0      2.626      5.141
REMARK  Name = 
REMARK  3 active torsions:
REMARK  status: ('A' for Active; 'I' for Inactive)
REMARK    1  A    between atoms: C_2  and  C_3
REMARK    2  A    between atoms: C_3  and  N_4
REMARK    3  A    between atoms: N_17  and  C_18
REMARK                            x       y       z     vdW  Elec       q    Type
REMARK                         _______ _______ _______ _____ _____    ______ ____
ROOT
ATOM      1  N   UNL     1       3.910   3.862  17.285  0.00  0.00    +0.000 N 
ATOM      2  C   UNL     1       3.513   2.694  17.971  0.00  0.00    +0.000 C 
ATOM      3  O   UNL     1       3.836   1.552  17.660  0.00  0.00    +0.000 OA
ATOM      4  C   UNL     1       2.690   3.215  19.048  0.00  0.00    +0.000 A 
ATOM      5  C   UNL     1       1.984   2.569  20.061  0.00  0.00    +0.000 A 
ATOM      6  C   UNL     1       1.273   3.388  20.963  0.00  0.00    +0.000 A 
ATOM      7  C   UNL     1       1.265   4.795  20.853  0.00  0.00    +0.000 A 
ATOM      8  C   UNL     1       1.976   5.424  19.817  0.00  0.00    +0.000 A 
ATOM      9  C   UNL     1       2.079   6.802  19.541  0.00  0.00    +0.000 A 
ATOM     10  C   UNL     1       2.846   7.249  18.443  0.00  0.00    +0.000 A 
ATOM     11  C   UNL     1       3.532   6.357  17.591  0.00  0.00    +0.000 A 
ATOM     12  C   UNL     1       3.404   5.010  17.893  0.00  0.00    +0.000 A 
ATOM     13  C   UNL     1       2.654   4.596  18.969  0.00  0.00    +0.000 A 
ENDROOT
BRANCH   1  14
ATOM     14  C   UNL     1       4.705   3.817  16.082  0.00  0.00    +0.000 C 
BRANCH  14  16
ATOM     15  O   UNL     1       5.922   5.618  15.020  0.00  0.00    +0.000 OA
ATOM     16  C   UNL     1       5.728   4.951  16.033  0.00  0.00    +0.000 C 
ATOM     17  N   UNL     1       6.393   5.164  17.226  0.00  0.00    +0.000 N 
ATOM     18  H   UNL     1       5.969   4.783  18.068  0.00  0.00    +0.000 HD
BRANCH  17  19
ATOM     19  C   UNL     1       7.407   6.190  17.370  0.00  0.00    +0.000 C 
ATOM     20  C   UNL     1       6.885   7.601  17.120  0.00  0.00    +0.000 C 
ATOM     21  C   UNL     1       7.932   8.495  17.777  0.00  0.00    +0.000 C 
ATOM     22  C   UNL     1       8.516   7.678  18.930  0.00  0.00    +0.000 C 
ATOM     23  C   UNL     1       7.940   6.273  18.798  0.00  0.00    +0.000 C 
ENDBRANCH  17  19
ENDBRANCH  14  16
ENDBRANCH   1  14
TORSDOF 3
ENDMDL
MODEL 7
REMARK VINA RESULT:      -7.0      1.318      1.581
REMARK  Name = 
REMARK  3 active torsions:
REMARK  status: ('A' for Active; 'I' for Inactive)
REMARK    1  A    between atoms: C_2  and  C_3
REMARK    2  A    between atoms: C_3  and  N_4
REMARK    3  A    between atoms: N_17  and  C_18
REMARK                            x       y       z     vdW  Elec       q    Type
REMARK                         _______ _______ _______ _____ _____    ______ ____
ROOT
ATOM      1  N   UNL     1       5.132   4.678  17.527  0.00  0.00    +0.000 N 
ATOM      2  C   UNL     1       4.793   5.946  18.048  0.00  0.00    +0.000 C 
ATOM      3  O   UNL     1       5.409   6.984  17.829  0.00  0.00    +0.000 OA
ATOM      4  C   UNL     1       3.610   5.663  18.841  0.00  0.00    +0.000 A 
ATOM      5  C   UNL     1       2.811   6.491  19.628  0.00  0.00    +0.000 A 
ATOM      6  C   UNL     1       1.715   5.886  20.279  0.00  0.00    +0.000 A 
ATOM      7  C   UNL     1       1.432   4.509  20.150  0.00  0.00    +0.000 A 
ATOM      8  C   UNL     1       2.258   3.692  19.358  0.00  0.00    +0.000 A 
ATOM      9  C   UNL     1       2.143   2.309  19.119  0.00  0.00    +0.000 A 
ATOM     10  C   UNL     1       3.079   1.653  18.288  0.00  0.00    +0.000 A 
ATOM     11  C   UNL     1       4.146   2.339  17.671  0.00  0.00    +0.000 A 
ATOM     12  C   UNL     1       4.228   3.698  17.934  0.00  0.00    +0.000 A 
ATOM     13  C   UNL     1       3.304   4.317  18.744  0.00  0.00    +0.000 A 
ENDROOT
BRANCH   1  14
ATOM     14  C   UNL     1       6.305   4.468  16.712  0.00  0.00    +0.000 C 
BRANCH  14  16
ATOM     15  O   UNL     1       5.714   5.828  14.801  0.00  0.00    +0.000 OA
ATOM     16  C   UNL     1       6.021   4.719  15.232  0.00  0.00    +0.000 C 
ATOM     17  N   UNL     1       6.159   3.601  14.432  0.00  0.00    +0.000 N 
ATOM     18  H   UNL     1       6.693   2.822  14.810  0.00  0.00    +0.000 HD
BRANCH  17  19
ATOM     19  C   UNL     1       5.922   3.643  13.002  0.00  0.00    +0.000 C 
ATOM     20  C   UNL     1       6.463   2.426  12.259  0.00  0.00    +0.000 C 
ATOM     21  C   UNL     1       5.706   2.446  10.935  0.00  0.00    +0.000 C 
ATOM     22  C   UNL     1       4.355   3.096  11.235  0.00  0.00    +0.000 C 
ATOM     23  C   UNL     1       4.433   3.610  12.668  0.00  0.00    +0.000 C 
ENDBRANCH  17  19
ENDBRANCH  14  16
ENDBRANCH   1  14
TORSDOF 3
ENDMDL
MODEL 8
REMARK VINA RESULT:      -7.0      2.887      4.936
REMARK  Name = 
REMARK  3 active torsions:
REMARK  status: ('A' for Active; 'I' for Inactive)
REMARK    1  A    between atoms: C_2  and  C_3
REMARK    2  A    between atoms: C_3  and  N_4
REMARK    3  A    between atoms: N_17  and  C_18
REMARK                            x       y       z     vdW  Elec       q    Type
REMARK                         _______ _______ _______ _____ _____    ______ ____
ROOT
ATOM      1  N   UNL     1       4.130   5.125  17.123  0.00  0.00    +0.000 N 
ATOM      2  C   UNL     1       3.575   6.254  17.765  0.00  0.00    +0.000 C 
ATOM      3  O   UNL     1       3.748   7.417  17.415  0.00  0.00    +0.000 OA
ATOM      4  C   UNL     1       2.814   5.666  18.852  0.00  0.00    +0.000 A 
ATOM      5  C   UNL     1       2.053   6.250  19.863  0.00  0.00    +0.000 A 
ATOM      6  C   UNL     1       1.431   5.375  20.778  0.00  0.00    +0.000 A 
ATOM      7  C   UNL     1       1.567   3.973  20.686  0.00  0.00    +0.000 A 
ATOM      8  C   UNL     1       2.346   3.407  19.663  0.00  0.00    +0.000 A 
ATOM      9  C   UNL     1       2.606   2.044  19.417  0.00  0.00    +0.000 A 
ATOM     10  C   UNL     1       3.424   1.663  18.331  0.00  0.00    +0.000 A 
ATOM     11  C   UNL     1       4.005   2.609  17.460  0.00  0.00    +0.000 A 
ATOM     12  C   UNL     1       3.730   3.939  17.736  0.00  0.00    +0.000 A 
ATOM     13  C   UNL     1       2.928   4.288  18.798  0.00  0.00    +0.000 A 
ENDROOT
BRANCH   1  14
ATOM     14  C   UNL     1       5.029   5.242  16.000  0.00  0.00    +0.000 C 
BRANCH  14  16
ATOM     15  O   UNL     1       7.405   5.025  16.403  0.00  0.00    +0.000 OA
ATOM     16  C   UNL     1       6.408   5.743  16.426  0.00  0.00    +0.000 C 
ATOM     17  N   UNL     1       6.432   7.069  16.817  0.00  0.00    +0.000 N 
ATOM     18  H   UNL     1       5.652   7.653  16.526  0.00  0.00    +0.000 HD
BRANCH  17  19
ATOM     19  C   UNL     1       7.649   7.718  17.263  0.00  0.00    +0.000 C 
ATOM     20  C   UNL     1       7.509   9.227  17.430  0.00  0.00    +0.000 C 
ATOM     21  C   UNL     1       8.683   9.602  18.329  0.00  0.00    +0.000 C 
ATOM     22  C   UNL     1       8.952   8.375  19.200  0.00  0.00    +0.000 C 
ATOM     23  C   UNL     1       8.065   7.259  18.659  0.00  0.00    +0.000 C 
ENDBRANCH  17  19
ENDBRANCH  14  16
ENDBRANCH   1  14
TORSDOF 3
ENDMDL
MODEL 9
REMARK VINA RESULT:      -6.7      3.693      7.603
REMARK  Name = 
REMARK  3 active torsions:
REMARK  status: ('A' for Active; 'I' for Inactive)
REMARK    1  A    between atoms: C_2  and  C_3
REMARK    2  A    between atoms: C_3  and  N_4
REMARK    3  A    between atoms: N_17  and  C_18
REMARK                            x       y       z     vdW  Elec       q    Type
REMARK                         _______ _______ _______ _____ _____    ______ ____
ROOT
ATOM      1  N   UNL     1       2.632   6.437  19.189  0.00  0.00    +0.000 N 
ATOM      2  C   UNL     1       1.781   5.544  19.875  0.00  0.00    +0.000 C 
ATOM      3  O   UNL     1       0.998   5.863  20.764  0.00  0.00    +0.000 OA
ATOM      4  C   UNL     1       2.090   4.266  19.260  0.00  0.00    +0.000 A 
ATOM      5  C   UNL     1       1.603   2.984  19.510  0.00  0.00    +0.000 A 
ATOM      6  C   UNL     1       2.124   1.940  18.717  0.00  0.00    +0.000 A 
ATOM      7  C   UNL     1       3.094   2.169  17.718  0.00  0.00    +0.000 A 
ATOM      8  C   UNL     1       3.576   3.469  17.490  0.00  0.00    +0.000 A 
ATOM      9  C   UNL     1       4.541   3.889  16.553  0.00  0.00    +0.000 A 
ATOM     10  C   UNL     1       4.904   5.252  16.472  0.00  0.00    +0.000 A 
ATOM     11  C   UNL     1       4.327   6.234  17.305  0.00  0.00    +0.000 A 
ATOM     12  C   UNL     1       3.385   5.781  18.215  0.00  0.00    +0.000 A 
ATOM     13  C   UNL     1       3.045   4.450  18.276  0.00  0.00    +0.000 A 
ENDROOT
BRANCH   1  14
ATOM     14  C   UNL     1       2.708   7.839  19.521  0.00  0.00    +0.000 C 
BRANCH  14  16
ATOM     15  O   UNL     1       2.068   8.658  17.336  0.00  0.00    +0.000 OA
ATOM     16  C   UNL     1       1.896   8.698  18.552  0.00  0.00    +0.000 C 
ATOM     17  N   UNL     1       0.950   9.499  19.163  0.00  0.00    +0.000 N 
ATOM     18  H   UNL     1       0.676   9.254  20.111  0.00  0.00    +0.000 HD
BRANCH  17  19
ATOM     19  C   UNL     1       0.092  10.390  18.407  0.00  0.00    +0.000 C 
ATOM     20  C   UNL     1      -1.393  10.188  18.686  0.00  0.00    +0.000 C 
ATOM     21  C   UNL     1      -2.033  11.483  18.196  0.00  0.00    +0.000 C 
ATOM     22  C   UNL     1      -0.972  12.568  18.378  0.00  0.00    +0.000 C 
ATOM     23  C   UNL     1       0.312  11.853  18.783  0.00  0.00    +0.000 C 
ENDBRANCH  17  19
ENDBRANCH  14  16
ENDBRANCH   1  14
TORSDOF 3
ENDMDL
