MODEL 1
REMARK VINA RESULT:      -6.8      0.000      0.000
REMARK  Name = 
REMARK  13 active torsions:
REMARK  status: ('A' for Active; 'I' for Inactive)
REMARK    1  A    between atoms: C_1  and  C_2
REMARK    2  A    between atoms: C_2  and  O_3
REMARK    3  A    between atoms: O_3  and  P_4
REMARK    4  A    between atoms: P_4  and  O_6
REMARK    5  A    between atoms: P_4  and  O_9
REMARK    6  A    between atoms: O_6  and  C_7
REMARK    7  A    between atoms: C_7  and  C_8
REMARK    8  A    between atoms: O_9  and  C_10
REMARK    9  A    between atoms: C_10  and  C_11
REMARK   10  A    between atoms: C_11  and  O_12
REMARK   11  A    between atoms: O_12  and  C_13
REMARK   12  A    between atoms: C_16  and  N_17
REMARK   13  A    between atoms: N_22  and  N_23
REMARK                            x       y       z     vdW  Elec       q    Type
REMARK                         _______ _______ _______ _____ _____    ______ ____
ROOT
ATOM      1  C   UNL     1      -0.500  10.578  19.031  0.00  0.00    +0.000 C 
ATOM      2  N   UNL     1      -0.886  11.138  17.922  0.00  0.00    +0.000 NA
ENDROOT
BRANCH   2   3
ATOM      3  N   UNL     1      -1.801  12.091  17.555  0.00  0.00    +0.000 NA
ATOM      4  C   UNL     1      -2.984  11.543  17.653  0.00  0.00    +0.000 C 
ATOM      5  C   UNL     1      -3.476  10.701  16.474  0.00  0.00    +0.000 C 
ATOM      6  O   UNL     1      -2.806  10.017  15.751  0.00  0.00    +0.000 OA
ATOM      7  N   UNL     1      -4.827  10.921  16.429  0.00  0.00    +0.000 N 
ATOM      8  C   UNL     1      -5.291  11.439  17.631  0.00  0.00    +0.000 A 
ATOM      9  C   UNL     1      -6.608  11.410  18.044  0.00  0.00    +0.000 A 
ATOM     10  C   UNL     1      -6.865  11.716  19.374  0.00  0.00    +0.000 A 
ATOM     11  C   UNL     1      -5.811  12.121  20.217  0.00  0.00    +0.000 A 
ATOM     12  C   UNL     1      -4.481  12.211  19.746  0.00  0.00    +0.000 A 
ATOM     13  C   UNL     1      -4.228  11.851  18.429  0.00  0.00    +0.000 A 
ATOM     14  H   UNL     1      -5.322  10.964  15.547  0.00  0.00    +0.000 HD
ENDBRANCH   2   3
BRANCH   1  15
ATOM     15  O   UNL     1      -0.750  10.760  20.389  0.00  0.00    +0.000 OA
BRANCH  15  16
ATOM     16  P   UNL     1      -0.282  12.151  21.191  0.00  0.00    +0.000 P 
ATOM     17  S   UNL     1      -1.144  13.803  20.607  0.00  0.00    +0.000 S 
BRANCH  16  18
ATOM     18  O   UNL     1      -0.428  11.977  22.827  0.00  0.00    +0.000 OA
BRANCH  18  20
ATOM     19  C   UNL     1      -2.884  12.104  23.333  0.00  0.00    +0.000 C 
ATOM     20  C   UNL     1      -1.623  11.259  23.260  0.00  0.00    +0.000 C 
ENDBRANCH  18  20
ENDBRANCH  16  18
BRANCH  16  21
ATOM     21  O   UNL     1       1.352  12.078  21.072  0.00  0.00    +0.000 OA
BRANCH  21  22
ATOM     22  C   UNL     1       2.056  13.174  20.485  0.00  0.00    +0.000 C 
ATOM     23  C   UNL     1       2.359  12.927  19.014  0.00  0.00    +0.000 C 
ENDBRANCH  21  22
ENDBRANCH  16  21
ENDBRANCH  15  16
ENDBRANCH   1  15
BRANCH   1  24
ATOM     24  C   UNL     1       0.304   9.351  18.656  0.00  0.00    +0.000 C 
BRANCH  24  25
ATOM     25  O   UNL     1       1.708   9.399  18.718  0.00  0.00    +0.000 OA
BRANCH  25  26
ATOM     26  C   UNL     1       2.265   8.143  18.771  0.00  0.00    +0.000 A 
ATOM     27  C   UNL     1       2.085   7.258  19.839  0.00  0.00    +0.000 A 
ATOM     28  C   UNL     1       2.752   6.048  19.887  0.00  0.00    +0.000 A 
ATOM     29  C   UNL     1       3.599   5.692  18.824  0.00  0.00    +0.000 A 
ATOM     30  C   UNL     1       3.766   6.564  17.732  0.00  0.00    +0.000 A 
ATOM     31  C   UNL     1       3.099   7.790  17.708  0.00  0.00    +0.000 A 
BRANCH  29  32
ATOM     32  N   UNL     1       4.291   4.418  18.873  0.00  0.00    +0.000 N 
ATOM     33  O   UNL     1       3.676   3.408  18.493  0.00  0.00    +0.000 OA
ATOM     34  O   UNL     1       5.464   4.420  19.282  0.00  0.00    +0.000 OA
ENDBRANCH  29  32
ENDBRANCH  25  26
ENDBRANCH  24  25
ENDBRANCH   1  24
TORSDOF 11
ENDMDL
MODEL 2
REMARK VINA RESULT:      -6.7      1.243      1.906
REMARK  Name = 
REMARK  13 active torsions:
REMARK  status: ('A' for Active; 'I' for Inactive)
REMARK    1  A    between atoms: C_1  and  C_2
REMARK    2  A    between atoms: C_2  and  O_3
REMARK    3  A    between atoms: O_3  and  P_4
REMARK    4  A    between atoms: P_4  and  O_6
REMARK    5  A    between atoms: P_4  and  O_9
REMARK    6  A    between atoms: O_6  and  C_7
REMARK    7  A    between atoms: C_7  and  C_8
REMARK    8  A    between atoms: O_9  and  C_10
REMARK    9  A    between atoms: C_10  and  C_11
REMARK   10  A    between atoms: C_11  and  O_12
REMARK   11  A    between atoms: O_12  and  C_13
REMARK   12  A    between atoms: C_16  and  N_17
REMARK   13  A    between atoms: N_22  and  N_23
REMARK                            x       y       z     vdW  Elec       q    Type
REMARK                         _______ _______ _______ _____ _____    ______ ____
ROOT
ATOM      1  C   UNL     1      -0.509  10.785  19.281  0.00  0.00    +0.000 C 
ATOM      2  N   UNL     1      -0.793  11.411  18.177  0.00  0.00    +0.000 NA
ENDROOT
BRANCH   2   3
ATOM      3  N   UNL     1      -1.755  12.289  17.750  0.00  0.00    +0.000 NA
ATOM      4  C   UNL     1      -2.899  11.657  17.802  0.00  0.00    +0.000 C 
ATOM      5  C   UNL     1      -3.271  10.766  16.614  0.00  0.00    +0.000 C 
ATOM      6  O   UNL     1      -2.518  10.122  15.936  0.00  0.00    +0.000 OA
ATOM      7  N   UNL     1      -4.631  10.885  16.501  0.00  0.00    +0.000 N 
ATOM      8  C   UNL     1      -5.189  11.385  17.671  0.00  0.00    +0.000 A 
ATOM      9  C   UNL     1      -6.519  11.264  18.021  0.00  0.00    +0.000 A 
ATOM     10  C   UNL     1      -6.862  11.569  19.332  0.00  0.00    +0.000 A 
ATOM     11  C   UNL     1      -5.882  12.061  20.217  0.00  0.00    +0.000 A 
ATOM     12  C   UNL     1      -4.541  12.242  19.809  0.00  0.00    +0.000 A 
ATOM     13  C   UNL     1      -4.199  11.884  18.512  0.00  0.00    +0.000 A 
ATOM     14  H   UNL     1      -5.083  10.880  15.596  0.00  0.00    +0.000 HD
ENDBRANCH   2   3
BRANCH   1  15
ATOM     15  O   UNL     1      -0.981  10.795  20.592  0.00  0.00    +0.000 OA
BRANCH  15  16
ATOM     16  P   UNL     1      -0.640  12.054  21.639  0.00  0.00    +0.000 P 
ATOM     17  S   UNL     1       0.865  13.194  21.139  0.00  0.00    +0.000 S 
BRANCH  16  18
ATOM     18  O   UNL     1      -1.981  12.972  21.929  0.00  0.00    +0.000 OA
BRANCH  18  20
ATOM     19  C   UNL     1      -3.260  13.579  24.004  0.00  0.00    +0.000 C 
ATOM     20  C   UNL     1      -2.818  12.500  23.030  0.00  0.00    +0.000 C 
ENDBRANCH  18  20
ENDBRANCH  16  18
BRANCH  16  21
ATOM     21  O   UNL     1      -0.544  11.279  23.082  0.00  0.00    +0.000 OA
BRANCH  21  22
ATOM     22  C   UNL     1      -0.513   9.851  23.103  0.00  0.00    +0.000 C 
ATOM     23  C   UNL     1       0.914   9.319  23.132  0.00  0.00    +0.000 C 
ENDBRANCH  21  22
ENDBRANCH  16  21
ENDBRANCH  15  16
ENDBRANCH   1  15
BRANCH   1  24
ATOM     24  C   UNL     1       0.489   9.700  18.937  0.00  0.00    +0.000 C 
BRANCH  24  25
ATOM     25  O   UNL     1       1.213   9.074  19.968  0.00  0.00    +0.000 OA
BRANCH  25  26
ATOM     26  C   UNL     1       1.933   7.995  19.512  0.00  0.00    +0.000 A 
ATOM     27  C   UNL     1       2.590   7.966  18.278  0.00  0.00    +0.000 A 
ATOM     28  C   UNL     1       3.212   6.817  17.825  0.00  0.00    +0.000 A 
ATOM     29  C   UNL     1       3.212   5.673  18.639  0.00  0.00    +0.000 A 
ATOM     30  C   UNL     1       2.577   5.701  19.895  0.00  0.00    +0.000 A 
ATOM     31  C   UNL     1       1.936   6.863  20.330  0.00  0.00    +0.000 A 
BRANCH  29  32
ATOM     32  N   UNL     1       3.873   4.472  18.166  0.00  0.00    +0.000 N 
ATOM     33  O   UNL     1       4.982   4.190  18.651  0.00  0.00    +0.000 OA
ATOM     34  O   UNL     1       3.281   3.793  17.311  0.00  0.00    +0.000 OA
ENDBRANCH  29  32
ENDBRANCH  25  26
ENDBRANCH  24  25
ENDBRANCH   1  24
TORSDOF 11
ENDMDL
MODEL 3
REMARK VINA RESULT:      -6.7      3.308      5.504
REMARK  Name = 
REMARK  13 active torsions:
REMARK  status: ('A' for Active; 'I' for Inactive)
REMARK    1  A    between atoms: C_1  and  C_2
REMARK    2  A    between atoms: C_2  and  O_3
REMARK    3  A    between atoms: O_3  and  P_4
REMARK    4  A    between atoms: P_4  and  O_6
REMARK    5  A    between atoms: P_4  and  O_9
REMARK    6  A    between atoms: O_6  and  C_7
REMARK    7  A    between atoms: C_7  and  C_8
REMARK    8  A    between atoms: O_9  and  C_10
REMARK    9  A    between atoms: C_10  and  C_11
REMARK   10  A    between atoms: C_11  and  O_12
REMARK   11  A    between atoms: O_12  and  C_13
REMARK   12  A    between atoms: C_16  and  N_17
REMARK   13  A    between atoms: N_22  and  N_23
REMARK                            x       y       z     vdW  Elec       q    Type
REMARK                         _______ _______ _______ _____ _____    ______ ____
ROOT
ATOM      1  C   UNL     1       1.110  12.702  18.972  0.00  0.00    +0.000 C 
ATOM      2  N   UNL     1       2.034  13.455  19.492  0.00  0.00    +0.000 NA
ENDROOT
BRANCH   2   3
ATOM      3  N   UNL     1       2.148  14.765  19.880  0.00  0.00    +0.000 NA
ATOM      4  C   UNL     1       1.996  15.496  18.808  0.00  0.00    +0.000 C 
ATOM      5  C   UNL     1       3.222  15.716  17.918  0.00  0.00    +0.000 C 
ATOM      6  O   UNL     1       4.110  14.935  17.715  0.00  0.00    +0.000 OA
ATOM      7  N   UNL     1       3.077  16.989  17.433  0.00  0.00    +0.000 N 
ATOM      8  C   UNL     1       1.766  17.428  17.563  0.00  0.00    +0.000 A 
ATOM      9  C   UNL     1       1.213  18.471  16.847  0.00  0.00    +0.000 A 
ATOM     10  C   UNL     1      -0.169  18.609  16.888  0.00  0.00    +0.000 A 
ATOM     11  C   UNL     1      -0.934  17.755  17.706  0.00  0.00    +0.000 A 
ATOM     12  C   UNL     1      -0.332  16.740  18.485  0.00  0.00    +0.000 A 
ATOM     13  C   UNL     1       1.044  16.578  18.394  0.00  0.00    +0.000 A 
ATOM     14  H   UNL     1       3.880  17.586  17.285  0.00  0.00    +0.000 HD
ENDBRANCH   2   3
BRANCH   1  15
ATOM     15  O   UNL     1      -0.243  12.837  18.666  0.00  0.00    +0.000 OA
BRANCH  15  16
ATOM     16  P   UNL     1      -1.430  12.649  19.829  0.00  0.00    +0.000 P 
ATOM     17  S   UNL     1      -1.860  14.242  20.874  0.00  0.00    +0.000 S 
BRANCH  16  18
ATOM     18  O   UNL     1      -2.804  12.002  19.182  0.00  0.00    +0.000 OA
BRANCH  18  20
ATOM     19  C   UNL     1      -3.519  10.970  17.006  0.00  0.00    +0.000 C 
ATOM     20  C   UNL     1      -2.578  10.945  18.200  0.00  0.00    +0.000 C 
ENDBRANCH  18  20
ENDBRANCH  16  18
BRANCH  16  21
ATOM     21  O   UNL     1      -0.894  11.336  20.652  0.00  0.00    +0.000 OA
BRANCH  21  22
ATOM     22  C   UNL     1      -0.321  11.515  21.949  0.00  0.00    +0.000 C 
ATOM     23  C   UNL     1      -1.277  11.086  23.053  0.00  0.00    +0.000 C 
ENDBRANCH  21  22
ENDBRANCH  16  21
ENDBRANCH  15  16
ENDBRANCH   1  15
BRANCH   1  24
ATOM     24  C   UNL     1       1.786  11.441  18.476  0.00  0.00    +0.000 C 
BRANCH  24  25
ATOM     25  O   UNL     1       1.004  10.314  18.167  0.00  0.00    +0.000 OA
BRANCH  25  26
ATOM     26  C   UNL     1       1.597   9.145  18.581  0.00  0.00    +0.000 A 
ATOM     27  C   UNL     1       2.355   8.319  17.744  0.00  0.00    +0.000 A 
ATOM     28  C   UNL     1       2.842   7.103  18.187  0.00  0.00    +0.000 A 
ATOM     29  C   UNL     1       2.597   6.711  19.513  0.00  0.00    +0.000 A 
ATOM     30  C   UNL     1       1.858   7.548  20.371  0.00  0.00    +0.000 A 
ATOM     31  C   UNL     1       1.357   8.763  19.903  0.00  0.00    +0.000 A 
BRANCH  29  32
ATOM     32  N   UNL     1       3.116   5.439  19.978  0.00  0.00    +0.000 N 
ATOM     33  O   UNL     1       4.240   5.090  19.578  0.00  0.00    +0.000 OA
ATOM     34  O   UNL     1       2.407   4.783  20.758  0.00  0.00    +0.000 OA
ENDBRANCH  29  32
ENDBRANCH  25  26
ENDBRANCH  24  25
ENDBRANCH   1  24
TORSDOF 11
ENDMDL
MODEL 4
REMARK VINA RESULT:      -6.6      1.070      1.250
REMARK  Name = 
REMARK  13 active torsions:
REMARK  status: ('A' for Active; 'I' for Inactive)
REMARK    1  A    between atoms: C_1  and  C_2
REMARK    2  A    between atoms: C_2  and  O_3
REMARK    3  A    between atoms: O_3  and  P_4
REMARK    4  A    between atoms: P_4  and  O_6
REMARK    5  A    between atoms: P_4  and  O_9
REMARK    6  A    between atoms: O_6  and  C_7
REMARK    7  A    between atoms: C_7  and  C_8
REMARK    8  A    between atoms: O_9  and  C_10
REMARK    9  A    between atoms: C_10  and  C_11
REMARK   10  A    between atoms: C_11  and  O_12
REMARK   11  A    between atoms: O_12  and  C_13
REMARK   12  A    between atoms: C_16  and  N_17
REMARK   13  A    between atoms: N_22  and  N_23
REMARK                            x       y       z     vdW  Elec       q    Type
REMARK                         _______ _______ _______ _____ _____    ______ ____
ROOT
ATOM      1  C   UNL     1       0.160  10.945  18.750  0.00  0.00    +0.000 C 
ATOM      2  N   UNL     1      -0.915  11.016  18.019  0.00  0.00    +0.000 NA
ENDROOT
BRANCH   2   3
ATOM      3  N   UNL     1      -1.792  11.996  17.633  0.00  0.00    +0.000 NA
ATOM      4  C   UNL     1      -2.992  11.481  17.697  0.00  0.00    +0.000 C 
ATOM      5  C   UNL     1      -3.477  10.658  16.501  0.00  0.00    +0.000 C 
ATOM      6  O   UNL     1      -2.807   9.958  15.793  0.00  0.00    +0.000 OA
ATOM      7  N   UNL     1      -4.820  10.916  16.421  0.00  0.00    +0.000 N 
ATOM      8  C   UNL     1      -5.300  11.443  17.614  0.00  0.00    +0.000 A 
ATOM      9  C   UNL     1      -6.628  11.449  17.992  0.00  0.00    +0.000 A 
ATOM     10  C   UNL     1      -6.912  11.757  19.316  0.00  0.00    +0.000 A 
ATOM     11  C   UNL     1      -5.869  12.128  20.188  0.00  0.00    +0.000 A 
ATOM     12  C   UNL     1      -4.525  12.183  19.753  0.00  0.00    +0.000 A 
ATOM     13  C   UNL     1      -4.248  11.821  18.441  0.00  0.00    +0.000 A 
ATOM     14  H   UNL     1      -5.289  10.977  15.527  0.00  0.00    +0.000 HD
ENDBRANCH   2   3
BRANCH   1  15
ATOM     15  O   UNL     1       0.997  11.852  19.395  0.00  0.00    +0.000 OA
BRANCH  15  16
ATOM     16  P   UNL     1       0.601  12.512  20.880  0.00  0.00    +0.000 P 
ATOM     17  S   UNL     1      -1.088  13.491  20.954  0.00  0.00    +0.000 S 
BRANCH  16  18
ATOM     18  O   UNL     1       0.655  11.374  22.075  0.00  0.00    +0.000 OA
BRANCH  18  20
ATOM     19  C   UNL     1      -0.563   9.281  22.742  0.00  0.00    +0.000 C 
ATOM     20  C   UNL     1      -0.631  10.758  22.391  0.00  0.00    +0.000 C 
ENDBRANCH  18  20
ENDBRANCH  16  18
BRANCH  16  21
ATOM     21  O   UNL     1       1.964  13.343  21.257  0.00  0.00    +0.000 OA
BRANCH  21  22
ATOM     22  C   UNL     1       2.836  13.760  20.206  0.00  0.00    +0.000 C 
ATOM     23  C   UNL     1       3.220  15.228  20.341  0.00  0.00    +0.000 C 
ENDBRANCH  21  22
ENDBRANCH  16  21
ENDBRANCH  15  16
ENDBRANCH   1  15
BRANCH   1  24
ATOM     24  C   UNL     1       0.411   9.480  19.036  0.00  0.00    +0.000 C 
BRANCH  24  25
ATOM     25  O   UNL     1       1.526   9.108  19.807  0.00  0.00    +0.000 OA
BRANCH  25  26
ATOM     26  C   UNL     1       1.883   7.797  19.600  0.00  0.00    +0.000 A 
ATOM     27  C   UNL     1       1.681   6.779  20.538  0.00  0.00    +0.000 A 
ATOM     28  C   UNL     1       2.153   5.498  20.319  0.00  0.00    +0.000 A 
ATOM     29  C   UNL     1       2.815   5.210  19.113  0.00  0.00    +0.000 A 
ATOM     30  C   UNL     1       2.999   6.222  18.151  0.00  0.00    +0.000 A 
ATOM     31  C   UNL     1       2.533   7.514  18.397  0.00  0.00    +0.000 A 
BRANCH  29  32
ATOM     32  N   UNL     1       3.301   3.864  18.881  0.00  0.00    +0.000 N 
ATOM     33  O   UNL     1       3.142   3.026  19.785  0.00  0.00    +0.000 OA
ATOM     34  O   UNL     1       3.835   3.630  17.785  0.00  0.00    +0.000 OA
ENDBRANCH  29  32
ENDBRANCH  25  26
ENDBRANCH  24  25
ENDBRANCH   1  24
TORSDOF 11
ENDMDL
MODEL 5
REMARK VINA RESULT:      -6.6      1.250      2.476
REMARK  Name = 
REMARK  13 active torsions:
REMARK  status: ('A' for Active; 'I' for Inactive)
REMARK    1  A    between atoms: C_1  and  C_2
REMARK    2  A    between atoms: C_2  and  O_3
REMARK    3  A    between atoms: O_3  and  P_4
REMARK    4  A    between atoms: P_4  and  O_6
REMARK    5  A    between atoms: P_4  and  O_9
REMARK    6  A    between atoms: O_6  and  C_7
REMARK    7  A    between atoms: C_7  and  C_8
REMARK    8  A    between atoms: O_9  and  C_10
REMARK    9  A    between atoms: C_10  and  C_11
REMARK   10  A    between atoms: C_11  and  O_12
REMARK   11  A    between atoms: O_12  and  C_13
REMARK   12  A    between atoms: C_16  and  N_17
REMARK   13  A    between atoms: N_22  and  N_23
REMARK                            x       y       z     vdW  Elec       q    Type
REMARK                         _______ _______ _______ _____ _____    ______ ____
ROOT
ATOM      1  C   UNL     1      -0.365  10.615  19.170  0.00  0.00    +0.000 C 
ATOM      2  N   UNL     1      -0.542  11.438  18.178  0.00  0.00    +0.000 NA
ENDROOT
BRANCH   2   3
ATOM      3  N   UNL     1      -1.501  12.337  17.791  0.00  0.00    +0.000 NA
ATOM      4  C   UNL     1      -2.648  11.711  17.825  0.00  0.00    +0.000 C 
ATOM      5  C   UNL     1      -3.032  10.867  16.607  0.00  0.00    +0.000 C 
ATOM      6  O   UNL     1      -2.287  10.246  15.900  0.00  0.00    +0.000 OA
ATOM      7  N   UNL     1      -4.392  10.999  16.506  0.00  0.00    +0.000 N 
ATOM      8  C   UNL     1      -4.941  11.456  17.697  0.00  0.00    +0.000 A 
ATOM      9  C   UNL     1      -6.269  11.330  18.050  0.00  0.00    +0.000 A 
ATOM     10  C   UNL     1      -6.604  11.587  19.373  0.00  0.00    +0.000 A 
ATOM     11  C   UNL     1      -5.616  12.039  20.271  0.00  0.00    +0.000 A 
ATOM     12  C   UNL     1      -4.276  12.228  19.862  0.00  0.00    +0.000 A 
ATOM     13  C   UNL     1      -3.943  11.918  18.550  0.00  0.00    +0.000 A 
ATOM     14  H   UNL     1      -4.850  11.030  15.604  0.00  0.00    +0.000 HD
ENDBRANCH   2   3
BRANCH   1  15
ATOM     15  O   UNL     1      -1.011  10.337  20.372  0.00  0.00    +0.000 OA
BRANCH  15  16
ATOM     16  P   UNL     1      -0.467  10.956  21.827  0.00  0.00    +0.000 P 
ATOM     17  S   UNL     1      -0.083   9.644  23.222  0.00  0.00    +0.000 S 
BRANCH  16  18
ATOM     18  O   UNL     1       0.831  11.952  21.606  0.00  0.00    +0.000 OA
BRANCH  18  20
ATOM     19  C   UNL     1       1.143  13.987  20.167  0.00  0.00    +0.000 C 
ATOM     20  C   UNL     1       0.493  13.356  21.388  0.00  0.00    +0.000 C 
ENDBRANCH  18  20
ENDBRANCH  16  18
BRANCH  16  21
ATOM     21  O   UNL     1      -1.604  12.090  22.160  0.00  0.00    +0.000 OA
BRANCH  21  22
ATOM     22  C   UNL     1      -2.506  11.872  23.247  0.00  0.00    +0.000 C 
ATOM     23  C   UNL     1      -3.438  13.059  23.453  0.00  0.00    +0.000 C 
ENDBRANCH  21  22
ENDBRANCH  16  21
ENDBRANCH  15  16
ENDBRANCH   1  15
BRANCH   1  24
ATOM     24  C   UNL     1       0.752   9.673  18.776  0.00  0.00    +0.000 C 
BRANCH  24  25
ATOM     25  O   UNL     1       1.275   8.782  19.731  0.00  0.00    +0.000 OA
BRANCH  25  26
ATOM     26  C   UNL     1       2.153   7.884  19.173  0.00  0.00    +0.000 A 
ATOM     27  C   UNL     1       2.820   8.099  17.963  0.00  0.00    +0.000 A 
ATOM     28  C   UNL     1       3.613   7.118  17.396  0.00  0.00    +0.000 A 
ATOM     29  C   UNL     1       3.774   5.896  18.071  0.00  0.00    +0.000 A 
ATOM     30  C   UNL     1       3.128   5.680  19.303  0.00  0.00    +0.000 A 
ATOM     31  C   UNL     1       2.317   6.675  19.852  0.00  0.00    +0.000 A 
BRANCH  29  32
ATOM     32  N   UNL     1       4.613   4.872  17.480  0.00  0.00    +0.000 N 
ATOM     33  O   UNL     1       4.066   4.014  16.766  0.00  0.00    +0.000 OA
ATOM     34  O   UNL     1       5.832   4.925  17.715  0.00  0.00    +0.000 OA
ENDBRANCH  29  32
ENDBRANCH  25  26
ENDBRANCH  24  25
ENDBRANCH   1  24
TORSDOF 11
ENDMDL
MODEL 6
REMARK VINA RESULT:      -6.6      1.030      2.286
REMARK  Name = 
REMARK  13 active torsions:
REMARK  status: ('A' for Active; 'I' for Inactive)
REMARK    1  A    between atoms: C_1  and  C_2
REMARK    2  A    between atoms: C_2  and  O_3
REMARK    3  A    between atoms: O_3  and  P_4
REMARK    4  A    between atoms: P_4  and  O_6
REMARK    5  A    between atoms: P_4  and  O_9
REMARK    6  A    between atoms: O_6  and  C_7
REMARK    7  A    between atoms: C_7  and  C_8
REMARK    8  A    between atoms: O_9  and  C_10
REMARK    9  A    between atoms: C_10  and  C_11
REMARK   10  A    between atoms: C_11  and  O_12
REMARK   11  A    between atoms: O_12  and  C_13
REMARK   12  A    between atoms: C_16  and  N_17
REMARK   13  A    between atoms: N_22  and  N_23
REMARK                            x       y       z     vdW  Elec       q    Type
REMARK                         _______ _______ _______ _____ _____    ______ ____
ROOT
ATOM      1  C   UNL     1      -0.672  10.498  19.192  0.00  0.00    +0.000 C 
ATOM      2  N   UNL     1      -0.932  11.114  18.077  0.00  0.00    +0.000 NA
ENDROOT
BRANCH   2   3
ATOM      3  N   UNL     1      -1.802  12.088  17.658  0.00  0.00    +0.000 NA
ATOM      4  C   UNL     1      -3.002  11.571  17.698  0.00  0.00    +0.000 C 
ATOM      5  C   UNL     1      -3.455  10.734  16.498  0.00  0.00    +0.000 C 
ATOM      6  O   UNL     1      -2.766  10.028  15.815  0.00  0.00    +0.000 OA
ATOM      7  N   UNL     1      -4.796  10.988  16.382  0.00  0.00    +0.000 N 
ATOM      8  C   UNL     1      -5.307  11.526  17.556  0.00  0.00    +0.000 A 
ATOM      9  C   UNL     1      -6.644  11.533  17.900  0.00  0.00    +0.000 A 
ATOM     10  C   UNL     1      -6.962  11.855  19.213  0.00  0.00    +0.000 A 
ATOM     11  C   UNL     1      -5.942  12.237  20.108  0.00  0.00    +0.000 A 
ATOM     12  C   UNL     1      -4.588  12.291  19.706  0.00  0.00    +0.000 A 
ATOM     13  C   UNL     1      -4.276  11.916  18.406  0.00  0.00    +0.000 A 
ATOM     14  H   UNL     1      -5.242  11.038  15.476  0.00  0.00    +0.000 HD
ENDBRANCH   2   3
BRANCH   1  15
ATOM     15  O   UNL     1      -1.074  10.612  20.521  0.00  0.00    +0.000 OA
BRANCH  15  16
ATOM     16  P   UNL     1       0.016  10.945  21.744  0.00  0.00    +0.000 P 
ATOM     17  S   UNL     1       0.523   9.431  22.870  0.00  0.00    +0.000 S 
BRANCH  16  18
ATOM     18  O   UNL     1       1.364  11.697  21.157  0.00  0.00    +0.000 OA
BRANCH  18  20
ATOM     19  C   UNL     1       1.380  13.583  19.498  0.00  0.00    +0.000 C 
ATOM     20  C   UNL     1       1.216  13.134  20.941  0.00  0.00    +0.000 C 
ENDBRANCH  18  20
ENDBRANCH  16  18
BRANCH  16  21
ATOM     21  O   UNL     1      -0.687  12.227  22.487  0.00  0.00    +0.000 OA
BRANCH  21  22
ATOM     22  C   UNL     1      -2.071  12.494  22.249  0.00  0.00    +0.000 C 
ATOM     23  C   UNL     1      -2.933  12.108  23.444  0.00  0.00    +0.000 C 
ENDBRANCH  21  22
ENDBRANCH  16  21
ENDBRANCH  15  16
ENDBRANCH   1  15
BRANCH   1  24
ATOM     24  C   UNL     1       0.171   9.288  18.849  0.00  0.00    +0.000 C 
BRANCH  24  25
ATOM     25  O   UNL     1       1.573   9.399  18.849  0.00  0.00    +0.000 OA
BRANCH  25  26
ATOM     26  C   UNL     1       2.188   8.170  18.852  0.00  0.00    +0.000 A 
ATOM     27  C   UNL     1       2.075   7.247  19.897  0.00  0.00    +0.000 A 
ATOM     28  C   UNL     1       2.799   6.069  19.894  0.00  0.00    +0.000 A 
ATOM     29  C   UNL     1       3.634   5.783  18.801  0.00  0.00    +0.000 A 
ATOM     30  C   UNL     1       3.733   6.693  17.732  0.00  0.00    +0.000 A 
ATOM     31  C   UNL     1       3.010   7.886  17.760  0.00  0.00    +0.000 A 
BRANCH  29  32
ATOM     32  N   UNL     1       4.385   4.542  18.797  0.00  0.00    +0.000 N 
ATOM     33  O   UNL     1       5.510   4.542  19.324  0.00  0.00    +0.000 OA
ATOM     34  O   UNL     1       3.848   3.551  18.275  0.00  0.00    +0.000 OA
ENDBRANCH  29  32
ENDBRANCH  25  26
ENDBRANCH  24  25
ENDBRANCH   1  24
TORSDOF 11
ENDMDL
MODEL 7
REMARK VINA RESULT:      -6.4      1.326      2.245
REMARK  Name = 
REMARK  13 active torsions:
REMARK  status: ('A' for Active; 'I' for Inactive)
REMARK    1  A    between atoms: C_1  and  C_2
REMARK    2  A    between atoms: C_2  and  O_3
REMARK    3  A    between atoms: O_3  and  P_4
REMARK    4  A    between atoms: P_4  and  O_6
REMARK    5  A    between atoms: P_4  and  O_9
REMARK    6  A    between atoms: O_6  and  C_7
REMARK    7  A    between atoms: C_7  and  C_8
REMARK    8  A    between atoms: O_9  and  C_10
REMARK    9  A    between atoms: C_10  and  C_11
REMARK   10  A    between atoms: C_11  and  O_12
REMARK   11  A    between atoms: O_12  and  C_13
REMARK   12  A    between atoms: C_16  and  N_17
REMARK   13  A    between atoms: N_22  and  N_23
REMARK                            x       y       z     vdW  Elec       q    Type
REMARK                         _______ _______ _______ _____ _____    ______ ____
ROOT
ATOM      1  C   UNL     1      -0.233  10.795  19.271  0.00  0.00    +0.000 C 
ATOM      2  N   UNL     1      -0.683  11.256  18.141  0.00  0.00    +0.000 NA
ENDROOT
BRANCH   2   3
ATOM      3  N   UNL     1      -1.608  12.186  17.743  0.00  0.00    +0.000 NA
ATOM      4  C   UNL     1      -2.778  11.605  17.788  0.00  0.00    +0.000 C 
ATOM      5  C   UNL     1      -3.197  10.761  16.581  0.00  0.00    +0.000 C 
ATOM      6  O   UNL     1      -2.478  10.102  15.882  0.00  0.00    +0.000 OA
ATOM      7  N   UNL     1      -4.551  10.943  16.482  0.00  0.00    +0.000 N 
ATOM      8  C   UNL     1      -5.079  11.437  17.668  0.00  0.00    +0.000 A 
ATOM      9  C   UNL     1      -6.411  11.367  18.025  0.00  0.00    +0.000 A 
ATOM     10  C   UNL     1      -6.732  11.654  19.345  0.00  0.00    +0.000 A 
ATOM     11  C   UNL     1      -5.726  12.079  20.235  0.00  0.00    +0.000 A 
ATOM     12  C   UNL     1      -4.380  12.211  19.821  0.00  0.00    +0.000 A 
ATOM     13  C   UNL     1      -4.062  11.871  18.513  0.00  0.00    +0.000 A 
ATOM     14  H   UNL     1      -5.009  10.980  15.580  0.00  0.00    +0.000 HD
ENDBRANCH   2   3
BRANCH   1  15
ATOM     15  O   UNL     1      -0.394  11.108  20.619  0.00  0.00    +0.000 OA
BRANCH  15  16
ATOM     16  P   UNL     1      -0.110  12.649  21.204  0.00  0.00    +0.000 P 
ATOM     17  S   UNL     1       1.650  13.399  20.810  0.00  0.00    +0.000 S 
BRANCH  16  18
ATOM     18  O   UNL     1      -1.296  13.696  20.733  0.00  0.00    +0.000 OA
BRANCH  18  20
ATOM     19  C   UNL     1      -1.665  16.030  21.584  0.00  0.00    +0.000 C 
ATOM     20  C   UNL     1      -0.886  15.097  20.673  0.00  0.00    +0.000 C 
ENDBRANCH  18  20
ENDBRANCH  16  18
BRANCH  16  21
ATOM     21  O   UNL     1      -0.520  12.494  22.784  0.00  0.00    +0.000 OA
BRANCH  21  22
ATOM     22  C   UNL     1      -1.468  11.493  23.161  0.00  0.00    +0.000 C 
ATOM     23  C   UNL     1      -2.844  12.091  23.421  0.00  0.00    +0.000 C 
ENDBRANCH  21  22
ENDBRANCH  16  21
ENDBRANCH  15  16
ENDBRANCH   1  15
BRANCH   1  24
ATOM     24  C   UNL     1       0.530   9.524  18.965  0.00  0.00    +0.000 C 
BRANCH  24  25
ATOM     25  O   UNL     1       1.255   8.890  19.989  0.00  0.00    +0.000 OA
BRANCH  25  26
ATOM     26  C   UNL     1       1.989   7.826  19.519  0.00  0.00    +0.000 A 
ATOM     27  C   UNL     1       2.666   7.830  18.295  0.00  0.00    +0.000 A 
ATOM     28  C   UNL     1       3.302   6.696  17.825  0.00  0.00    +0.000 A 
ATOM     29  C   UNL     1       3.295   5.532  18.612  0.00  0.00    +0.000 A 
ATOM     30  C   UNL     1       2.640   5.527  19.857  0.00  0.00    +0.000 A 
ATOM     31  C   UNL     1       1.986   6.674  20.309  0.00  0.00    +0.000 A 
BRANCH  29  32
ATOM     32  N   UNL     1       3.971   4.347  18.120  0.00  0.00    +0.000 N 
ATOM     33  O   UNL     1       3.309   3.300  18.020  0.00  0.00    +0.000 OA
ATOM     34  O   UNL     1       5.171   4.458  17.817  0.00  0.00    +0.000 OA
ENDBRANCH  29  32
ENDBRANCH  25  26
ENDBRANCH  24  25
ENDBRANCH   1  24
TORSDOF 11
ENDMDL
MODEL 8
REMARK VINA RESULT:      -6.4      1.180      1.380
REMARK  Name = 
REMARK  13 active torsions:
REMARK  status: ('A' for Active; 'I' for Inactive)
REMARK    1  A    between atoms: C_1  and  C_2
REMARK    2  A    between atoms: C_2  and  O_3
REMARK    3  A    between atoms: O_3  and  P_4
REMARK    4  A    between atoms: P_4  and  O_6
REMARK    5  A    between atoms: P_4  and  O_9
REMARK    6  A    between atoms: O_6  and  C_7
REMARK    7  A    between atoms: C_7  and  C_8
REMARK    8  A    between atoms: O_9  and  C_10
REMARK    9  A    between atoms: C_10  and  C_11
REMARK   10  A    between atoms: C_11  and  O_12
REMARK   11  A    between atoms: O_12  and  C_13
REMARK   12  A    between atoms: C_16  and  N_17
REMARK   13  A    between atoms: N_22  and  N_23
REMARK                            x       y       z     vdW  Elec       q    Type
REMARK                         _______ _______ _______ _____ _____    ______ ____
ROOT
ATOM      1  C   UNL     1      -0.540  10.430  18.833  0.00  0.00    +0.000 C 
ATOM      2  N   UNL     1      -0.838  11.078  17.745  0.00  0.00    +0.000 NA
ENDROOT
BRANCH   2   3
ATOM      3  N   UNL     1      -1.748  12.033  17.374  0.00  0.00    +0.000 NA
ATOM      4  C   UNL     1      -2.936  11.506  17.520  0.00  0.00    +0.000 C 
ATOM      5  C   UNL     1      -3.472  10.637  16.380  0.00  0.00    +0.000 C 
ATOM      6  O   UNL     1      -2.831   9.921  15.661  0.00  0.00    +0.000 OA
ATOM      7  N   UNL     1      -4.821  10.875  16.365  0.00  0.00    +0.000 N 
ATOM      8  C   UNL     1      -5.244  11.436  17.563  0.00  0.00    +0.000 A 
ATOM      9  C   UNL     1      -6.550  11.438  18.011  0.00  0.00    +0.000 A 
ATOM     10  C   UNL     1      -6.767  11.788  19.337  0.00  0.00    +0.000 A 
ATOM     11  C   UNL     1      -5.685  12.201  20.139  0.00  0.00    +0.000 A 
ATOM     12  C   UNL     1      -4.367  12.259  19.631  0.00  0.00    +0.000 A 
ATOM     13  C   UNL     1      -4.155  11.856  18.319  0.00  0.00    +0.000 A 
ATOM     14  H   UNL     1      -5.338  10.898  15.495  0.00  0.00    +0.000 HD
ENDBRANCH   2   3
BRANCH   1  15
ATOM     15  O   UNL     1      -0.930  10.478  20.170  0.00  0.00    +0.000 OA
BRANCH  15  16
ATOM     16  P   UNL     1      -0.070  11.354  21.306  0.00  0.00    +0.000 P 
ATOM     17  S   UNL     1      -1.138  12.288  22.648  0.00  0.00    +0.000 S 
BRANCH  16  18
ATOM     18  O   UNL     1       1.079  10.420  22.037  0.00  0.00    +0.000 OA
BRANCH  18  20
ATOM     19  C   UNL     1      -0.417   8.413  22.240  0.00  0.00    +0.000 C 
ATOM     20  C   UNL     1       0.552   9.374  22.909  0.00  0.00    +0.000 C 
ENDBRANCH  18  20
ENDBRANCH  16  18
BRANCH  16  21
ATOM     21  O   UNL     1       0.909  12.268  20.360  0.00  0.00    +0.000 OA
BRANCH  21  22
ATOM     22  C   UNL     1       0.905  13.687  20.523  0.00  0.00    +0.000 C 
ATOM     23  C   UNL     1      -0.032  14.366  19.532  0.00  0.00    +0.000 C 
ENDBRANCH  21  22
ENDBRANCH  16  21
ENDBRANCH  15  16
ENDBRANCH   1  15
BRANCH   1  24
ATOM     24  C   UNL     1       0.343   9.268  18.434  0.00  0.00    +0.000 C 
BRANCH  24  25
ATOM     25  O   UNL     1       1.737   9.375  18.586  0.00  0.00    +0.000 OA
BRANCH  25  26
ATOM     26  C   UNL     1       2.351   8.145  18.603  0.00  0.00    +0.000 A 
ATOM     27  C   UNL     1       2.190   7.211  19.632  0.00  0.00    +0.000 A 
ATOM     28  C   UNL     1       2.912   6.032  19.650  0.00  0.00    +0.000 A 
ATOM     29  C   UNL     1       3.796   5.756  18.592  0.00  0.00    +0.000 A 
ATOM     30  C   UNL     1       3.943   6.677  17.538  0.00  0.00    +0.000 A 
ATOM     31  C   UNL     1       3.221   7.872  17.546  0.00  0.00    +0.000 A 
BRANCH  29  32
ATOM     32  N   UNL     1       4.544   4.515  18.608  0.00  0.00    +0.000 N 
ATOM     33  O   UNL     1       5.495   4.420  19.402  0.00  0.00    +0.000 OA
ATOM     34  O   UNL     1       4.178   3.617  17.832  0.00  0.00    +0.000 OA
ENDBRANCH  29  32
ENDBRANCH  25  26
ENDBRANCH  24  25
ENDBRANCH   1  24
TORSDOF 11
ENDMDL
MODEL 9
REMARK VINA RESULT:      -6.4      1.357      1.496
REMARK  Name = 
REMARK  13 active torsions:
REMARK  status: ('A' for Active; 'I' for Inactive)
REMARK    1  A    between atoms: C_1  and  C_2
REMARK    2  A    between atoms: C_2  and  O_3
REMARK    3  A    between atoms: O_3  and  P_4
REMARK    4  A    between atoms: P_4  and  O_6
REMARK    5  A    between atoms: P_4  and  O_9
REMARK    6  A    between atoms: O_6  and  C_7
REMARK    7  A    between atoms: C_7  and  C_8
REMARK    8  A    between atoms: O_9  and  C_10
REMARK    9  A    between atoms: C_10  and  C_11
REMARK   10  A    between atoms: C_11  and  O_12
REMARK   11  A    between atoms: O_12  and  C_13
REMARK   12  A    between atoms: C_16  and  N_17
REMARK   13  A    between atoms: N_22  and  N_23
REMARK                            x       y       z     vdW  Elec       q    Type
REMARK                         _______ _______ _______ _____ _____    ______ ____
ROOT
ATOM      1  C   UNL     1       0.021  10.909  19.140  0.00  0.00    +0.000 C 
ATOM      2  N   UNL     1      -1.211  11.002  18.731  0.00  0.00    +0.000 NA
ENDROOT
BRANCH   2   3
ATOM      3  N   UNL     1      -2.000  11.968  18.163  0.00  0.00    +0.000 NA
ATOM      4  C   UNL     1      -3.219  11.496  18.133  0.00  0.00    +0.000 C 
ATOM      5  C   UNL     1      -3.598  10.583  16.964  0.00  0.00    +0.000 C 
ATOM      6  O   UNL     1      -2.880   9.803  16.401  0.00  0.00    +0.000 OA
ATOM      7  N   UNL     1      -4.912  10.871  16.708  0.00  0.00    +0.000 N 
ATOM      8  C   UNL     1      -5.503  11.516  17.787  0.00  0.00    +0.000 A 
ATOM      9  C   UNL     1      -6.864  11.594  18.007  0.00  0.00    +0.000 A 
ATOM     10  C   UNL     1      -7.283  12.028  19.258  0.00  0.00    +0.000 A 
ATOM     11  C   UNL     1      -6.331  12.446  20.210  0.00  0.00    +0.000 A 
ATOM     12  C   UNL     1      -4.946  12.423  19.930  0.00  0.00    +0.000 A 
ATOM     13  C   UNL     1      -4.536  11.937  18.695  0.00  0.00    +0.000 A 
ATOM     14  H   UNL     1      -5.275  10.864  15.763  0.00  0.00    +0.000 HD
ENDBRANCH   2   3
BRANCH   1  15
ATOM     15  O   UNL     1       1.159  11.712  19.091  0.00  0.00    +0.000 OA
BRANCH  15  16
ATOM     16  P   UNL     1       1.258  13.150  19.938  0.00  0.00    +0.000 P 
ATOM     17  S   UNL     1       0.163  14.617  19.258  0.00  0.00    +0.000 S 
BRANCH  16  18
ATOM     18  O   UNL     1       0.969  12.918  21.547  0.00  0.00    +0.000 OA
BRANCH  18  20
ATOM     19  C   UNL     1      -1.142  13.046  22.903  0.00  0.00    +0.000 C 
ATOM     20  C   UNL     1      -0.070  13.776  22.110  0.00  0.00    +0.000 C 
ENDBRANCH  18  20
ENDBRANCH  16  18
BRANCH  16  21
ATOM     21  O   UNL     1       2.879  13.394  20.003  0.00  0.00    +0.000 OA
BRANCH  21  22
ATOM     22  C   UNL     1       3.399  14.690  19.701  0.00  0.00    +0.000 C 
ATOM     23  C   UNL     1       4.010  14.742  18.307  0.00  0.00    +0.000 C 
ENDBRANCH  21  22
ENDBRANCH  16  21
ENDBRANCH  15  16
ENDBRANCH   1  15
BRANCH   1  24
ATOM     24  C   UNL     1       0.118   9.659  19.987  0.00  0.00    +0.000 C 
BRANCH  24  25
ATOM     25  O   UNL     1       1.377   9.235  20.451  0.00  0.00    +0.000 OA
BRANCH  25  26
ATOM     26  C   UNL     1       1.724   8.003  19.948  0.00  0.00    +0.000 A 
ATOM     27  C   UNL     1       1.610   6.810  20.669  0.00  0.00    +0.000 A 
ATOM     28  C   UNL     1       2.071   5.613  20.151  0.00  0.00    +0.000 A 
ATOM     29  C   UNL     1       2.630   5.596  18.862  0.00  0.00    +0.000 A 
ATOM     30  C   UNL     1       2.723   6.788  18.118  0.00  0.00    +0.000 A 
ATOM     31  C   UNL     1       2.271   7.990  18.663  0.00  0.00    +0.000 A 
BRANCH  29  32
ATOM     32  N   UNL     1       3.103   4.338  18.317  0.00  0.00    +0.000 N 
ATOM     33  O   UNL     1       2.452   3.823  17.393  0.00  0.00    +0.000 OA
ATOM     34  O   UNL     1       4.142   3.860  18.803  0.00  0.00    +0.000 OA
ENDBRANCH  29  32
ENDBRANCH  25  26
ENDBRANCH  24  25
ENDBRANCH   1  24
TORSDOF 11
ENDMDL
