MODEL 1
REMARK VINA RESULT:      -8.6      0.000      0.000
REMARK  Name = 
REMARK  3 active torsions:
REMARK  status: ('A' for Active; 'I' for Inactive)
REMARK    1  A    between atoms: C_6  and  N_7
REMARK    2  A    between atoms: N_7  and  S_8
REMARK    3  A    between atoms: S_8  and  C_11
REMARK                            x       y       z     vdW  Elec       q    Type
REMARK                         _______ _______ _______ _____ _____    ______ ____
ROOT
ATOM      1  N   UNL     1       3.990   2.936  18.998  0.00  0.00    +0.000 N 
ATOM      2  H   UNL     1       4.328   2.121  19.504  0.00  0.00    +0.000 HD
ENDROOT
BRANCH   1   8
ATOM      3  N   UNL     1       7.827   5.476  13.536  0.00  0.00    +0.000 N 
ATOM      4  C   UNL     1       7.196   5.154  14.670  0.00  0.00    +0.000 A 
ATOM      5  N   UNL     1       6.258   4.257  14.824  0.00  0.00    +0.000 NA
ATOM      6  C   UNL     1       5.949   4.280  16.163  0.00  0.00    +0.000 A 
ATOM      7  C   UNL     1       5.022   3.507  16.877  0.00  0.00    +0.000 A 
ATOM      8  C   UNL     1       4.886   3.735  18.249  0.00  0.00    +0.000 A 
ATOM      9  C   UNL     1       5.670   4.689  18.905  0.00  0.00    +0.000 A 
ATOM     10  C   UNL     1       6.612   5.460  18.208  0.00  0.00    +0.000 A 
ATOM     11  C   UNL     1       6.714   5.225  16.835  0.00  0.00    +0.000 A 
ATOM     12  N   UNL     1       7.505   5.769  15.853  0.00  0.00    +0.000 N 
ATOM     13  H   UNL     1       7.430   5.100  12.679  0.00  0.00    +0.000 HD
ATOM     14  H   UNL     1       8.340   6.339  13.412  0.00  0.00    +0.000 HD
ATOM     15  H   UNL     1       8.206   6.481  15.975  0.00  0.00    +0.000 HD
ENDBRANCH   1   8
BRANCH   1  16
ATOM     16  S   UNL     1       2.333   3.150  18.913  0.00  0.00    +0.000 S 
ATOM     17  O   UNL     1       1.976   2.950  17.523  0.00  0.00    +0.000 OA
ATOM     18  O   UNL     1       1.704   2.374  19.961  0.00  0.00    +0.000 OA
BRANCH  16  19
ATOM     19  C   UNL     1       2.097   4.874  19.284  0.00  0.00    +0.000 A 
ATOM     20  C   UNL     1       1.713   5.243  20.574  0.00  0.00    +0.000 A 
ATOM     21  C   UNL     1       1.500   6.589  20.872  0.00  0.00    +0.000 A 
ATOM     22  C   UNL     1       1.653   7.576  19.886  0.00  0.00    +0.000 A 
ATOM     23  C   UNL     1       1.446   8.933  20.189  0.00  0.00    +0.000 A 
ATOM     24  C   UNL     1       1.593   9.913  19.205  0.00  0.00    +0.000 A 
ATOM     25  C   UNL     1       1.941   9.549  17.910  0.00  0.00    +0.000 A 
ATOM     26  C   UNL     1       2.148   8.203  17.591  0.00  0.00    +0.000 A 
ATOM     27  C   UNL     1       2.013   7.201  18.569  0.00  0.00    +0.000 A 
ATOM     28  C   UNL     1       2.228   5.839  18.278  0.00  0.00    +0.000 A 
ENDBRANCH  16  19
ENDBRANCH   1  16
TORSDOF 3
ENDMDL
MODEL 2
REMARK VINA RESULT:      -8.6      1.428      2.177
REMARK  Name = 
REMARK  3 active torsions:
REMARK  status: ('A' for Active; 'I' for Inactive)
REMARK    1  A    between atoms: C_6  and  N_7
REMARK    2  A    between atoms: N_7  and  S_8
REMARK    3  A    between atoms: S_8  and  C_11
REMARK                            x       y       z     vdW  Elec       q    Type
REMARK                         _______ _______ _______ _____ _____    ______ ____
ROOT
ATOM      1  N   UNL     1       4.433   2.786  17.931  0.00  0.00    +0.000 N 
ATOM      2  H   UNL     1       4.894   1.881  17.981  0.00  0.00    +0.000 HD
ENDROOT
BRANCH   1   8
ATOM      3  N   UNL     1       8.598   8.577  18.287  0.00  0.00    +0.000 N 
ATOM      4  C   UNL     1       7.806   7.535  18.016  0.00  0.00    +0.000 A 
ATOM      5  N   UNL     1       7.454   6.577  18.833  0.00  0.00    +0.000 NA
ATOM      6  C   UNL     1       6.622   5.762  18.103  0.00  0.00    +0.000 A 
ATOM      7  C   UNL     1       5.947   4.598  18.494  0.00  0.00    +0.000 A 
ATOM      8  C   UNL     1       5.160   3.938  17.546  0.00  0.00    +0.000 A 
ATOM      9  C   UNL     1       5.024   4.435  16.246  0.00  0.00    +0.000 A 
ATOM     10  C   UNL     1       5.680   5.608  15.844  0.00  0.00    +0.000 A 
ATOM     11  C   UNL     1       6.475   6.237  16.805  0.00  0.00    +0.000 A 
ATOM     12  N   UNL     1       7.244   7.374  16.779  0.00  0.00    +0.000 N 
ATOM     13  H   UNL     1       9.107   8.538  19.166  0.00  0.00    +0.000 HD
ATOM     14  H   UNL     1       9.050   9.132  17.571  0.00  0.00    +0.000 HD
ATOM     15  H   UNL     1       7.364   7.997  15.997  0.00  0.00    +0.000 HD
ENDBRANCH   1   8
BRANCH   1  16
ATOM     16  S   UNL     1       2.770   2.808  18.103  0.00  0.00    +0.000 S 
ATOM     17  O   UNL     1       2.231   2.835  16.758  0.00  0.00    +0.000 OA
ATOM     18  O   UNL     1       2.380   1.775  19.040  0.00  0.00    +0.000 OA
BRANCH  16  19
ATOM     19  C   UNL     1       2.429   4.388  18.847  0.00  0.00    +0.000 A 
ATOM     20  C   UNL     1       2.176   4.450  20.218  0.00  0.00    +0.000 A 
ATOM     21  C   UNL     1       1.883   5.679  20.811  0.00  0.00    +0.000 A 
ATOM     22  C   UNL     1       1.825   6.851  20.042  0.00  0.00    +0.000 A 
ATOM     23  C   UNL     1       1.538   8.090  20.641  0.00  0.00    +0.000 A 
ATOM     24  C   UNL     1       1.474   9.255  19.874  0.00  0.00    +0.000 A 
ATOM     25  C   UNL     1       1.691   9.194  18.502  0.00  0.00    +0.000 A 
ATOM     26  C   UNL     1       1.975   7.969  17.890  0.00  0.00    +0.000 A 
ATOM     27  C   UNL     1       2.052   6.785  18.646  0.00  0.00    +0.000 A 
ATOM     28  C   UNL     1       2.349   5.541  18.057  0.00  0.00    +0.000 A 
ENDBRANCH  16  19
ENDBRANCH   1  16
TORSDOF 3
ENDMDL
MODEL 3
REMARK VINA RESULT:      -8.6      1.972      2.592
REMARK  Name = 
REMARK  3 active torsions:
REMARK  status: ('A' for Active; 'I' for Inactive)
REMARK    1  A    between atoms: C_6  and  N_7
REMARK    2  A    between atoms: N_7  and  S_8
REMARK    3  A    between atoms: S_8  and  C_11
REMARK                            x       y       z     vdW  Elec       q    Type
REMARK                         _______ _______ _______ _____ _____    ______ ____
ROOT
ATOM      1  N   UNL     1       4.836   4.162  16.842  0.00  0.00    +0.000 N 
ATOM      2  H   UNL     1       4.855   3.979  15.842  0.00  0.00    +0.000 HD
ENDROOT
BRANCH   1   8
ATOM      3  N   UNL     1       8.863   9.930  18.079  0.00  0.00    +0.000 N 
ATOM      4  C   UNL     1       8.207   8.767  18.012  0.00  0.00    +0.000 A 
ATOM      5  N   UNL     1       7.206   8.469  17.226  0.00  0.00    +0.000 NA
ATOM      6  C   UNL     1       6.895   7.161  17.511  0.00  0.00    +0.000 A 
ATOM      7  C   UNL     1       5.913   6.334  16.947  0.00  0.00    +0.000 A 
ATOM      8  C   UNL     1       5.790   5.028  17.427  0.00  0.00    +0.000 A 
ATOM      9  C   UNL     1       6.640   4.542  18.426  0.00  0.00    +0.000 A 
ATOM     10  C   UNL     1       7.637   5.351  18.990  0.00  0.00    +0.000 A 
ATOM     11  C   UNL     1       7.725   6.657  18.505  0.00  0.00    +0.000 A 
ATOM     12  N   UNL     1       8.556   7.708  18.806  0.00  0.00    +0.000 N 
ATOM     13  H   UNL     1       8.442  10.712  17.584  0.00  0.00    +0.000 HD
ATOM     14  H   UNL     1       9.437  10.199  18.867  0.00  0.00    +0.000 HD
ATOM     15  H   UNL     1       9.307   7.705  19.477  0.00  0.00    +0.000 HD
ENDBRANCH   1   8
BRANCH   1  16
ATOM     16  S   UNL     1       3.523   3.584  17.701  0.00  0.00    +0.000 S 
ATOM     17  O   UNL     1       2.530   3.218  16.711  0.00  0.00    +0.000 OA
ATOM     18  O   UNL     1       3.987   2.623  18.679  0.00  0.00    +0.000 OA
BRANCH  16  19
ATOM     19  C   UNL     1       2.910   5.009  18.572  0.00  0.00    +0.000 A 
ATOM     20  C   UNL     1       2.653   4.907  19.940  0.00  0.00    +0.000 A 
ATOM     21  C   UNL     1       2.148   6.009  20.631  0.00  0.00    +0.000 A 
ATOM     22  C   UNL     1       1.883   7.215  19.965  0.00  0.00    +0.000 A 
ATOM     23  C   UNL     1       1.383   8.327  20.663  0.00  0.00    +0.000 A 
ATOM     24  C   UNL     1       1.114   9.525  19.997  0.00  0.00    +0.000 A 
ATOM     25  C   UNL     1       1.336   9.622  18.629  0.00  0.00    +0.000 A 
ATOM     26  C   UNL     1       1.831   8.524  17.918  0.00  0.00    +0.000 A 
ATOM     27  C   UNL     1       2.116   7.311  18.571  0.00  0.00    +0.000 A 
ATOM     28  C   UNL     1       2.627   6.194  17.882  0.00  0.00    +0.000 A 
ENDBRANCH  16  19
ENDBRANCH   1  16
TORSDOF 3
ENDMDL
MODEL 4
REMARK VINA RESULT:      -8.4      0.758      1.612
REMARK  Name = 
REMARK  3 active torsions:
REMARK  status: ('A' for Active; 'I' for Inactive)
REMARK    1  A    between atoms: C_6  and  N_7
REMARK    2  A    between atoms: N_7  and  S_8
REMARK    3  A    between atoms: S_8  and  C_11
REMARK                            x       y       z     vdW  Elec       q    Type
REMARK                         _______ _______ _______ _____ _____    ______ ____
ROOT
ATOM      1  N   UNL     1       4.406   3.567  19.606  0.00  0.00    +0.000 N 
ATOM      2  H   UNL     1       4.834   2.934  20.277  0.00  0.00    +0.000 HD
ENDROOT
BRANCH   1   8
ATOM      3  N   UNL     1       7.548   5.195  13.403  0.00  0.00    +0.000 N 
ATOM      4  C   UNL     1       7.059   5.059  14.639  0.00  0.00    +0.000 A 
ATOM      5  N   UNL     1       6.153   4.206  15.040  0.00  0.00    +0.000 NA
ATOM      6  C   UNL     1       6.004   4.438  16.387  0.00  0.00    +0.000 A 
ATOM      7  C   UNL     1       5.175   3.794  17.316  0.00  0.00    +0.000 A 
ATOM      8  C   UNL     1       5.200   4.232  18.642  0.00  0.00    +0.000 A 
ATOM      9  C   UNL     1       6.049   5.268  19.046  0.00  0.00    +0.000 A 
ATOM     10  C   UNL     1       6.895   5.913  18.132  0.00  0.00    +0.000 A 
ATOM     11  C   UNL     1       6.836   5.468  16.809  0.00  0.00    +0.000 A 
ATOM     12  N   UNL     1       7.500   5.846  15.669  0.00  0.00    +0.000 N 
ATOM     13  H   UNL     1       7.056   4.696  12.667  0.00  0.00    +0.000 HD
ATOM     14  H   UNL     1       8.036   6.024  13.087  0.00  0.00    +0.000 HD
ATOM     15  H   UNL     1       8.205   6.561  15.596  0.00  0.00    +0.000 HD
ENDBRANCH   1   8
BRANCH   1  16
ATOM     16  S   UNL     1       2.734   3.610  19.555  0.00  0.00    +0.000 S 
ATOM     17  O   UNL     1       2.356   2.937  18.329  0.00  0.00    +0.000 OA
ATOM     18  O   UNL     1       2.213   3.175  20.834  0.00  0.00    +0.000 OA
BRANCH  16  19
ATOM     19  C   UNL     1       2.348   5.336  19.359  0.00  0.00    +0.000 A 
ATOM     20  C   UNL     1       2.552   5.938  18.116  0.00  0.00    +0.000 A 
ATOM     21  C   UNL     1       2.277   7.296  17.954  0.00  0.00    +0.000 A 
ATOM     22  C   UNL     1       1.812   8.069  19.029  0.00  0.00    +0.000 A 
ATOM     23  C   UNL     1       1.528   9.435  18.863  0.00  0.00    +0.000 A 
ATOM     24  C   UNL     1       1.071  10.204  19.936  0.00  0.00    +0.000 A 
ATOM     25  C   UNL     1       0.899   9.618  21.184  0.00  0.00    +0.000 A 
ATOM     26  C   UNL     1       1.180   8.260  21.368  0.00  0.00    +0.000 A 
ATOM     27  C   UNL     1       1.634   7.466  20.298  0.00  0.00    +0.000 A 
ATOM     28  C   UNL     1       1.912   6.094  20.452  0.00  0.00    +0.000 A 
ENDBRANCH  16  19
ENDBRANCH   1  16
TORSDOF 3
ENDMDL
MODEL 5
REMARK VINA RESULT:      -8.3      3.675      6.673
REMARK  Name = 
REMARK  3 active torsions:
REMARK  status: ('A' for Active; 'I' for Inactive)
REMARK    1  A    between atoms: C_6  and  N_7
REMARK    2  A    between atoms: N_7  and  S_8
REMARK    3  A    between atoms: S_8  and  C_11
REMARK                            x       y       z     vdW  Elec       q    Type
REMARK                         _______ _______ _______ _____ _____    ______ ____
ROOT
ATOM      1  N   UNL     1       2.229   6.432  21.044  0.00  0.00    +0.000 N 
ATOM      2  H   UNL     1       2.795   6.583  21.876  0.00  0.00    +0.000 HD
ENDROOT
BRANCH   1   8
ATOM      3  N   UNL     1      -0.983  12.380  18.740  0.00  0.00    +0.000 N 
ATOM      4  C   UNL     1      -0.280  11.271  18.989  0.00  0.00    +0.000 A 
ATOM      5  N   UNL     1      -0.237  10.598  20.108  0.00  0.00    +0.000 NA
ATOM      6  C   UNL     1       0.597   9.534  19.863  0.00  0.00    +0.000 A 
ATOM      7  C   UNL     1       0.981   8.487  20.713  0.00  0.00    +0.000 A 
ATOM      8  C   UNL     1       1.863   7.523  20.219  0.00  0.00    +0.000 A 
ATOM      9  C   UNL     1       2.335   7.578  18.904  0.00  0.00    +0.000 A 
ATOM     10  C   UNL     1       1.948   8.610  18.036  0.00  0.00    +0.000 A 
ATOM     11  C   UNL     1       1.081   9.571  18.560  0.00  0.00    +0.000 A 
ATOM     12  N   UNL     1       0.501  10.694  18.024  0.00  0.00    +0.000 N 
ATOM     13  H   UNL     1      -1.402  12.837  19.545  0.00  0.00    +0.000 HD
ATOM     14  H   UNL     1      -0.783  13.003  17.968  0.00  0.00    +0.000 HD
ATOM     15  H   UNL     1       0.609  11.032  17.082  0.00  0.00    +0.000 HD
ENDBRANCH   1   8
BRANCH   1  16
ATOM     16  S   UNL     1       1.947   4.847  20.589  0.00  0.00    +0.000 S 
ATOM     17  O   UNL     1       2.430   4.028  21.683  0.00  0.00    +0.000 OA
ATOM     18  O   UNL     1       0.584   4.728  20.116  0.00  0.00    +0.000 OA
BRANCH  16  19
ATOM     19  C   UNL     1       3.038   4.590  19.207  0.00  0.00    +0.000 A 
ATOM     20  C   UNL     1       2.528   4.021  18.039  0.00  0.00    +0.000 A 
ATOM     21  C   UNL     1       3.377   3.791  16.956  0.00  0.00    +0.000 A 
ATOM     22  C   UNL     1       4.741   4.112  17.031  0.00  0.00    +0.000 A 
ATOM     23  C   UNL     1       5.594   3.887  15.938  0.00  0.00    +0.000 A 
ATOM     24  C   UNL     1       6.952   4.202  16.016  0.00  0.00    +0.000 A 
ATOM     25  C   UNL     1       7.472   4.737  17.188  0.00  0.00    +0.000 A 
ATOM     26  C   UNL     1       6.638   4.965  18.287  0.00  0.00    +0.000 A 
ATOM     27  C   UNL     1       5.266   4.662  18.226  0.00  0.00    +0.000 A 
ATOM     28  C   UNL     1       4.401   4.893  19.314  0.00  0.00    +0.000 A 
ENDBRANCH  16  19
ENDBRANCH   1  16
TORSDOF 3
ENDMDL
MODEL 6
REMARK VINA RESULT:      -8.3      3.502      6.609
REMARK  Name = 
REMARK  3 active torsions:
REMARK  status: ('A' for Active; 'I' for Inactive)
REMARK    1  A    between atoms: C_6  and  N_7
REMARK    2  A    between atoms: N_7  and  S_8
REMARK    3  A    between atoms: S_8  and  C_11
REMARK                            x       y       z     vdW  Elec       q    Type
REMARK                         _______ _______ _______ _____ _____    ______ ____
ROOT
ATOM      1  N   UNL     1       2.535   6.014  20.572  0.00  0.00    +0.000 N 
ATOM      2  H   UNL     1       2.950   6.046  21.499  0.00  0.00    +0.000 HD
ENDROOT
BRANCH   1   8
ATOM      3  N   UNL     1      -0.601  12.297  19.268  0.00  0.00    +0.000 N 
ATOM      4  C   UNL     1       0.074  11.145  19.324  0.00  0.00    +0.000 A 
ATOM      5  N   UNL     1       0.173  10.336  20.347  0.00  0.00    +0.000 NA
ATOM      6  C   UNL     1       0.945   9.287  19.909  0.00  0.00    +0.000 A 
ATOM      7  C   UNL     1       1.349   8.131  20.592  0.00  0.00    +0.000 A 
ATOM      8  C   UNL     1       2.153   7.210  19.917  0.00  0.00    +0.000 A 
ATOM      9  C   UNL     1       2.528   7.415  18.585  0.00  0.00    +0.000 A 
ATOM     10  C   UNL     1       2.120   8.558  17.883  0.00  0.00    +0.000 A 
ATOM     11  C   UNL     1       1.333   9.472  18.587  0.00  0.00    +0.000 A 
ATOM     12  N   UNL     1       0.759  10.670  18.239  0.00  0.00    +0.000 N 
ATOM     13  H   UNL     1      -0.941  12.662  20.154  0.00  0.00    +0.000 HD
ATOM     14  H   UNL     1      -0.434  13.005  18.565  0.00  0.00    +0.000 HD
ATOM     15  H   UNL     1       0.811  11.119  17.339  0.00  0.00    +0.000 HD
ENDBRANCH   1   8
BRANCH   1  16
ATOM     16  S   UNL     1       2.532   4.537  19.786  0.00  0.00    +0.000 S 
ATOM     17  O   UNL     1       2.792   3.543  20.808  0.00  0.00    +0.000 OA
ATOM     18  O   UNL     1       1.354   4.452  18.949  0.00  0.00    +0.000 OA
BRANCH  16  19
ATOM     19  C   UNL     1       3.960   4.603  18.728  0.00  0.00    +0.000 A 
ATOM     20  C   UNL     1       5.199   4.932  19.282  0.00  0.00    +0.000 A 
ATOM     21  C   UNL     1       6.323   5.012  18.460  0.00  0.00    +0.000 A 
ATOM     22  C   UNL     1       6.222   4.779  17.080  0.00  0.00    +0.000 A 
ATOM     23  C   UNL     1       7.356   4.851  16.254  0.00  0.00    +0.000 A 
ATOM     24  C   UNL     1       7.254   4.625  14.880  0.00  0.00    +0.000 A 
ATOM     25  C   UNL     1       6.017   4.331  14.317  0.00  0.00    +0.000 A 
ATOM     26  C   UNL     1       4.877   4.257  15.124  0.00  0.00    +0.000 A 
ATOM     27  C   UNL     1       4.962   4.474  16.512  0.00  0.00    +0.000 A 
ATOM     28  C   UNL     1       3.832   4.394  17.350  0.00  0.00    +0.000 A 
ENDBRANCH  16  19
ENDBRANCH   1  16
TORSDOF 3
ENDMDL
MODEL 7
REMARK VINA RESULT:      -8.3      3.281      6.650
REMARK  Name = 
REMARK  3 active torsions:
REMARK  status: ('A' for Active; 'I' for Inactive)
REMARK    1  A    between atoms: C_6  and  N_7
REMARK    2  A    between atoms: N_7  and  S_8
REMARK    3  A    between atoms: S_8  and  C_11
REMARK                            x       y       z     vdW  Elec       q    Type
REMARK                         _______ _______ _______ _____ _____    ______ ____
ROOT
ATOM      1  N   UNL     1       3.262   4.745  18.563  0.00  0.00    +0.000 N 
ATOM      2  H   UNL     1       2.681   3.979  18.230  0.00  0.00    +0.000 HD
ENDROOT
BRANCH   1   8
ATOM      3  N   UNL     1       1.195  11.570  18.174  0.00  0.00    +0.000 N 
ATOM      4  C   UNL     1       1.486  10.291  18.433  0.00  0.00    +0.000 A 
ATOM      5  N   UNL     1       2.043   9.429  17.624  0.00  0.00    +0.000 NA
ATOM      6  C   UNL     1       2.155   8.267  18.349  0.00  0.00    +0.000 A 
ATOM      7  C   UNL     1       2.697   7.030  17.973  0.00  0.00    +0.000 A 
ATOM      8  C   UNL     1       2.679   5.988  18.904  0.00  0.00    +0.000 A 
ATOM      9  C   UNL     1       2.159   6.175  20.189  0.00  0.00    +0.000 A 
ATOM     10  C   UNL     1       1.627   7.410  20.585  0.00  0.00    +0.000 A 
ATOM     11  C   UNL     1       1.640   8.429  19.630  0.00  0.00    +0.000 A 
ATOM     12  N   UNL     1       1.220   9.735  19.655  0.00  0.00    +0.000 N 
ATOM     13  H   UNL     1       1.267  11.859  17.203  0.00  0.00    +0.000 HD
ATOM     14  H   UNL     1       0.537  12.111  18.721  0.00  0.00    +0.000 HD
ATOM     15  H   UNL     1       0.806  10.216  20.437  0.00  0.00    +0.000 HD
ENDBRANCH   1   8
BRANCH   1  16
ATOM     16  S   UNL     1       4.865   4.401  18.892  0.00  0.00    +0.000 S 
ATOM     17  O   UNL     1       5.341   5.482  19.731  0.00  0.00    +0.000 OA
ATOM     18  O   UNL     1       4.972   3.023  19.323  0.00  0.00    +0.000 OA
BRANCH  16  19
ATOM     19  C   UNL     1       5.676   4.552  17.315  0.00  0.00    +0.000 A 
ATOM     20  C   UNL     1       6.820   5.345  17.215  0.00  0.00    +0.000 A 
ATOM     21  C   UNL     1       7.452   5.493  15.980  0.00  0.00    +0.000 A 
ATOM     22  C   UNL     1       6.943   4.864  14.833  0.00  0.00    +0.000 A 
ATOM     23  C   UNL     1       7.584   5.007  13.591  0.00  0.00    +0.000 A 
ATOM     24  C   UNL     1       7.074   4.385  12.449  0.00  0.00    +0.000 A 
ATOM     25  C   UNL     1       5.916   3.622  12.536  0.00  0.00    +0.000 A 
ATOM     26  C   UNL     1       5.263   3.472  13.764  0.00  0.00    +0.000 A 
ATOM     27  C   UNL     1       5.766   4.083  14.927  0.00  0.00    +0.000 A 
ATOM     28  C   UNL     1       5.136   3.938  16.178  0.00  0.00    +0.000 A 
ENDBRANCH  16  19
ENDBRANCH   1  16
TORSDOF 3
ENDMDL
MODEL 8
REMARK VINA RESULT:      -8.2      5.423      8.165
REMARK  Name = 
REMARK  3 active torsions:
REMARK  status: ('A' for Active; 'I' for Inactive)
REMARK    1  A    between atoms: C_6  and  N_7
REMARK    2  A    between atoms: N_7  and  S_8
REMARK    3  A    between atoms: S_8  and  C_11
REMARK                            x       y       z     vdW  Elec       q    Type
REMARK                         _______ _______ _______ _____ _____    ______ ____
ROOT
ATOM      1  N   UNL     1       0.833  10.290  20.223  0.00  0.00    +0.000 N 
ATOM      2  H   UNL     1       1.732  10.708  19.995  0.00  0.00    +0.000 HD
ENDROOT
BRANCH   1   8
ATOM      3  N   UNL     1      -4.159  10.668  15.129  0.00  0.00    +0.000 N 
ATOM      4  C   UNL     1      -3.342  10.738  16.185  0.00  0.00    +0.000 A 
ATOM      5  N   UNL     1      -2.292   9.995  16.421  0.00  0.00    +0.000 NA
ATOM      6  C   UNL     1      -1.775  10.460  17.606  0.00  0.00    +0.000 A 
ATOM      7  C   UNL     1      -0.641  10.035  18.312  0.00  0.00    +0.000 A 
ATOM      8  C   UNL     1      -0.333  10.672  19.516  0.00  0.00    +0.000 A 
ATOM      9  C   UNL     1      -1.115  11.726  19.999  0.00  0.00    +0.000 A 
ATOM     10  C   UNL     1      -2.245  12.173  19.297  0.00  0.00    +0.000 A 
ATOM     11  C   UNL     1      -2.541  11.507  18.106  0.00  0.00    +0.000 A 
ATOM     12  N   UNL     1      -3.537  11.663  17.174  0.00  0.00    +0.000 N 
ATOM     13  H   UNL     1      -4.050   9.856  14.529  0.00  0.00    +0.000 HD
ATOM     14  H   UNL     1      -5.088  11.069  15.119  0.00  0.00    +0.000 HD
ATOM     15  H   UNL     1      -4.274  12.348  17.195  0.00  0.00    +0.000 HD
ENDBRANCH   1   8
BRANCH   1  16
ATOM     16  S   UNL     1       0.837   9.003  21.291  0.00  0.00    +0.000 S 
ATOM     17  O   UNL     1       1.755   9.368  22.351  0.00  0.00    +0.000 OA
ATOM     18  O   UNL     1      -0.531   8.633  21.587  0.00  0.00    +0.000 OA
BRANCH  16  19
ATOM     19  C   UNL     1       1.583   7.676  20.371  0.00  0.00    +0.000 A 
ATOM     20  C   UNL     1       2.202   7.960  19.153  0.00  0.00    +0.000 A 
ATOM     21  C   UNL     1       2.769   6.926  18.408  0.00  0.00    +0.000 A 
ATOM     22  C   UNL     1       2.713   5.599  18.862  0.00  0.00    +0.000 A 
ATOM     23  C   UNL     1       3.291   4.559  18.116  0.00  0.00    +0.000 A 
ATOM     24  C   UNL     1       3.229   3.238  18.566  0.00  0.00    +0.000 A 
ATOM     25  C   UNL     1       2.583   2.943  19.761  0.00  0.00    +0.000 A 
ATOM     26  C   UNL     1       1.999   3.967  20.515  0.00  0.00    +0.000 A 
ATOM     27  C   UNL     1       2.058   5.304  20.083  0.00  0.00    +0.000 A 
ATOM     28  C   UNL     1       1.490   6.356  20.829  0.00  0.00    +0.000 A 
ENDBRANCH  16  19
ENDBRANCH   1  16
TORSDOF 3
ENDMDL
MODEL 9
REMARK VINA RESULT:      -8.1      3.283      7.022
REMARK  Name = 
REMARK  3 active torsions:
REMARK  status: ('A' for Active; 'I' for Inactive)
REMARK    1  A    between atoms: C_6  and  N_7
REMARK    2  A    between atoms: N_7  and  S_8
REMARK    3  A    between atoms: S_8  and  C_11
REMARK                            x       y       z     vdW  Elec       q    Type
REMARK                         _______ _______ _______ _____ _____    ______ ____
ROOT
ATOM      1  N   UNL     1       3.391   4.814  18.597  0.00  0.00    +0.000 N 
ATOM      2  H   UNL     1       2.762   4.041  18.396  0.00  0.00    +0.000 HD
ENDROOT
BRANCH   1   8
ATOM      3  N   UNL     1       0.075  10.355  21.649  0.00  0.00    +0.000 N 
ATOM      4  C   UNL     1       0.740   9.451  20.923  0.00  0.00    +0.000 A 
ATOM      5  N   UNL     1       1.060   8.234  21.277  0.00  0.00    +0.000 NA
ATOM      6  C   UNL     1       1.710   7.697  20.191  0.00  0.00    +0.000 A 
ATOM      7  C   UNL     1       2.250   6.414  20.020  0.00  0.00    +0.000 A 
ATOM      8  C   UNL     1       2.879   6.117  18.809  0.00  0.00    +0.000 A 
ATOM      9  C   UNL     1       2.949   7.060  17.778  0.00  0.00    +0.000 A 
ATOM     10  C   UNL     1       2.400   8.342  17.928  0.00  0.00    +0.000 A 
ATOM     11  C   UNL     1       1.794   8.619  19.155  0.00  0.00    +0.000 A 
ATOM     12  N   UNL     1       1.163   9.733  19.652  0.00  0.00    +0.000 N 
ATOM     13  H   UNL     1      -0.057  10.132  22.632  0.00  0.00    +0.000 HD
ATOM     14  H   UNL     1       0.085  11.346  21.446  0.00  0.00    +0.000 HD
ATOM     15  H   UNL     1       1.015  10.603  19.168  0.00  0.00    +0.000 HD
ENDBRANCH   1   8
BRANCH   1  16
ATOM     16  S   UNL     1       4.997   4.440  18.879  0.00  0.00    +0.000 S 
ATOM     17  O   UNL     1       5.520   5.517  19.694  0.00  0.00    +0.000 OA
ATOM     18  O   UNL     1       5.089   3.063  19.318  0.00  0.00    +0.000 OA
BRANCH  16  19
ATOM     19  C   UNL     1       5.761   4.563  17.277  0.00  0.00    +0.000 A 
ATOM     20  C   UNL     1       6.912   5.340  17.133  0.00  0.00    +0.000 A 
ATOM     21  C   UNL     1       7.507   5.465  15.878  0.00  0.00    +0.000 A 
ATOM     22  C   UNL     1       6.956   4.831  14.754  0.00  0.00    +0.000 A 
ATOM     23  C   UNL     1       7.561   4.951  13.492  0.00  0.00    +0.000 A 
ATOM     24  C   UNL     1       7.008   4.324  12.373  0.00  0.00    +0.000 A 
ATOM     25  C   UNL     1       5.844   3.577  12.503  0.00  0.00    +0.000 A 
ATOM     26  C   UNL     1       5.227   3.449  13.752  0.00  0.00    +0.000 A 
ATOM     27  C   UNL     1       5.773   4.066  14.893  0.00  0.00    +0.000 A 
ATOM     28  C   UNL     1       5.179   3.944  16.164  0.00  0.00    +0.000 A 
ENDBRANCH  16  19
ENDBRANCH   1  16
TORSDOF 3
ENDMDL
