MODEL 1
REMARK VINA RESULT:      -8.0      0.000      0.000
REMARK  Name = 
REMARK  6 active torsions:
REMARK  status: ('A' for Active; 'I' for Inactive)
REMARK    1  A    between atoms: C_2  and  C_11
REMARK    2  A    between atoms: N_3  and  C_4
REMARK    3  A    between atoms: C_4  and  C_5
REMARK    4  A    between atoms: C_5  and  C_6
REMARK    5  A    between atoms: C_11  and  O_12
REMARK    6  A    between atoms: N_15  and  C_16
REMARK                            x       y       z     vdW  Elec       q    Type
REMARK                         _______ _______ _______ _____ _____    ______ ____
ROOT
ATOM      1  C   UNL     1       6.166   6.074  16.826  0.00  0.00    +0.000 C 
ATOM      2  C   UNL     1       6.644   4.726  16.301  0.00  0.00    +0.000 C 
ATOM      3  C   UNL     1       5.357   3.938  16.179  0.00  0.00    +0.000 C 
ATOM      4  N   UNL     1       4.556   4.393  17.286  0.00  0.00    +0.000 N 
ATOM      5  C   UNL     1       4.953   5.688  17.676  0.00  0.00    +0.000 C 
ATOM      6  O   UNL     1       4.501   6.396  18.564  0.00  0.00    +0.000 OA
ENDROOT
BRANCH   4   7
ATOM      7  C   UNL     1       3.423   3.681  17.759  0.00  0.00    +0.000 A 
ATOM      8  C   UNL     1       3.551   2.406  18.315  0.00  0.00    +0.000 A 
ATOM      9  C   UNL     1       2.441   1.713  18.806  0.00  0.00    +0.000 A 
ATOM     10  C   UNL     1       1.176   2.282  18.729  0.00  0.00    +0.000 A 
ATOM     11  C   UNL     1       1.022   3.543  18.168  0.00  0.00    +0.000 A 
ATOM     12  C   UNL     1       2.136   4.242  17.695  0.00  0.00    +0.000 A 
ENDBRANCH   4   7
BRANCH   1  14
ATOM     13  O   UNL     1       7.891   6.122  18.497  0.00  0.00    +0.000 OA
ATOM     14  C   UNL     1       7.288   6.760  17.628  0.00  0.00    +0.000 C 
ATOM     15  N   UNL     1       7.531   8.098  17.391  0.00  0.00    +0.000 N 
ATOM     16  H   UNL     1       7.360   8.425  16.441  0.00  0.00    +0.000 HD
BRANCH  15  17
ATOM     17  C   UNL     1       8.552   8.798  18.157  0.00  0.00    +0.000 C 
BRANCH  17  18
ATOM     18  C   UNL     1       8.423  10.319  18.059  0.00  0.00    +0.000 C 
BRANCH  18  19
ATOM     19  C   UNL     1       9.619  11.024  18.629  0.00  0.00    +0.000 A 
ATOM     20  C   UNL     1      10.717  11.529  17.958  0.00  0.00    +0.000 A 
ATOM     21  C   UNL     1      11.658  12.139  18.839  0.00  0.00    +0.000 A 
ATOM     22  C   UNL     1      11.247  12.081  20.152  0.00  0.00    +0.000 A 
ATOM     23  S   UNL     1       9.736  11.299  20.317  0.00  0.00    +0.000 S 
ENDBRANCH  18  19
ENDBRANCH  17  18
ENDBRANCH  15  17
ENDBRANCH   1  14
BRANCH   1  24
ATOM     24  O   UNL     1       5.774   6.859  15.700  0.00  0.00    +0.000 OA
ATOM     25  H   UNL     1       6.527   7.460  15.517  0.00  0.00    +0.000 HD
ENDBRANCH   1  24
TORSDOF 6
ENDMDL
MODEL 2
REMARK VINA RESULT:      -8.0      0.672      1.321
REMARK  Name = 
REMARK  6 active torsions:
REMARK  status: ('A' for Active; 'I' for Inactive)
REMARK    1  A    between atoms: C_2  and  C_11
REMARK    2  A    between atoms: N_3  and  C_4
REMARK    3  A    between atoms: C_4  and  C_5
REMARK    4  A    between atoms: C_5  and  C_6
REMARK    5  A    between atoms: C_11  and  O_12
REMARK    6  A    between atoms: N_15  and  C_16
REMARK                            x       y       z     vdW  Elec       q    Type
REMARK                         _______ _______ _______ _____ _____    ______ ____
ROOT
ATOM      1  C   UNL     1       6.170   6.040  16.843  0.00  0.00    +0.000 C 
ATOM      2  C   UNL     1       6.660   4.673  16.380  0.00  0.00    +0.000 C 
ATOM      3  C   UNL     1       5.375   3.881  16.257  0.00  0.00    +0.000 C 
ATOM      4  N   UNL     1       4.549   4.378  17.327  0.00  0.00    +0.000 N 
ATOM      5  C   UNL     1       4.937   5.686  17.678  0.00  0.00    +0.000 C 
ATOM      6  O   UNL     1       4.465   6.427  18.528  0.00  0.00    +0.000 OA
ENDROOT
BRANCH   4   7
ATOM      7  C   UNL     1       3.404   3.684  17.799  0.00  0.00    +0.000 A 
ATOM      8  C   UNL     1       2.126   4.242  17.695  0.00  0.00    +0.000 A 
ATOM      9  C   UNL     1       0.994   3.550  18.134  0.00  0.00    +0.000 A 
ATOM     10  C   UNL     1       1.126   2.291  18.705  0.00  0.00    +0.000 A 
ATOM     11  C   UNL     1       2.387   1.721  18.831  0.00  0.00    +0.000 A 
ATOM     12  C   UNL     1       3.516   2.407  18.374  0.00  0.00    +0.000 A 
ENDBRANCH   4   7
BRANCH   1  14
ATOM     13  O   UNL     1       7.882   6.138  18.525  0.00  0.00    +0.000 OA
ATOM     14  C   UNL     1       7.273   6.755  17.646  0.00  0.00    +0.000 C 
ATOM     15  N   UNL     1       7.492   8.095  17.396  0.00  0.00    +0.000 N 
ATOM     16  H   UNL     1       7.322   8.409  16.442  0.00  0.00    +0.000 HD
BRANCH  15  17
ATOM     17  C   UNL     1       8.495   8.822  18.162  0.00  0.00    +0.000 C 
BRANCH  17  18
ATOM     18  C   UNL     1       8.466  10.328  17.890  0.00  0.00    +0.000 C 
BRANCH  18  19
ATOM     19  C   UNL     1       9.531  11.058  18.655  0.00  0.00    +0.000 A 
ATOM     20  C   UNL     1       9.762  11.054  20.018  0.00  0.00    +0.000 A 
ATOM     21  C   UNL     1      10.874  11.869  20.382  0.00  0.00    +0.000 A 
ATOM     22  C   UNL     1      11.455  12.468  19.286  0.00  0.00    +0.000 A 
ATOM     23  S   UNL     1      10.665  12.044  17.831  0.00  0.00    +0.000 S 
ENDBRANCH  18  19
ENDBRANCH  17  18
ENDBRANCH  15  17
ENDBRANCH   1  14
BRANCH   1  24
ATOM     24  O   UNL     1       5.806   6.782  15.680  0.00  0.00    +0.000 OA
ATOM     25  H   UNL     1       5.820   7.725  15.948  0.00  0.00    +0.000 HD
ENDBRANCH   1  24
TORSDOF 6
ENDMDL
MODEL 3
REMARK VINA RESULT:      -7.7      1.132      1.444
REMARK  Name = 
REMARK  6 active torsions:
REMARK  status: ('A' for Active; 'I' for Inactive)
REMARK    1  A    between atoms: C_2  and  C_11
REMARK    2  A    between atoms: N_3  and  C_4
REMARK    3  A    between atoms: C_4  and  C_5
REMARK    4  A    between atoms: C_5  and  C_6
REMARK    5  A    between atoms: C_11  and  O_12
REMARK    6  A    between atoms: N_15  and  C_16
REMARK                            x       y       z     vdW  Elec       q    Type
REMARK                         _______ _______ _______ _____ _____    ______ ____
ROOT
ATOM      1  C   UNL     1       5.631   5.885  16.662  0.00  0.00    +0.000 C 
ATOM      2  C   UNL     1       5.856   4.425  16.287  0.00  0.00    +0.000 C 
ATOM      3  C   UNL     1       4.486   3.813  16.486  0.00  0.00    +0.000 C 
ATOM      4  N   UNL     1       3.942   4.519  17.617  0.00  0.00    +0.000 N 
ATOM      5  C   UNL     1       4.544   5.788  17.736  0.00  0.00    +0.000 C 
ATOM      6  O   UNL     1       4.333   6.665  18.561  0.00  0.00    +0.000 OA
ENDROOT
BRANCH   4   7
ATOM      7  C   UNL     1       2.832   4.041  18.361  0.00  0.00    +0.000 A 
ATOM      8  C   UNL     1       2.439   4.658  19.551  0.00  0.00    +0.000 A 
ATOM      9  C   UNL     1       1.330   4.206  20.273  0.00  0.00    +0.000 A 
ATOM     10  C   UNL     1       0.607   3.110  19.820  0.00  0.00    +0.000 A 
ATOM     11  C   UNL     1       0.986   2.471  18.647  0.00  0.00    +0.000 A 
ATOM     12  C   UNL     1       2.084   2.937  17.917  0.00  0.00    +0.000 A 
ENDBRANCH   4   7
BRANCH   1  14
ATOM     13  O   UNL     1       7.898   5.781  17.449  0.00  0.00    +0.000 OA
ATOM     14  C   UNL     1       6.943   6.512  17.169  0.00  0.00    +0.000 C 
ATOM     15  N   UNL     1       6.978   7.879  17.360  0.00  0.00    +0.000 N 
ATOM     16  H   UNL     1       6.398   8.436  16.734  0.00  0.00    +0.000 HD
BRANCH  15  17
ATOM     17  C   UNL     1       8.183   8.509  17.880  0.00  0.00    +0.000 C 
BRANCH  17  18
ATOM     18  C   UNL     1       8.158  10.033  17.741  0.00  0.00    +0.000 C 
BRANCH  18  19
ATOM     19  C   UNL     1       9.219  10.692  18.573  0.00  0.00    +0.000 A 
ATOM     20  C   UNL     1       9.361  10.677  19.948  0.00  0.00    +0.000 A 
ATOM     21  C   UNL     1      10.500  11.415  20.383  0.00  0.00    +0.000 A 
ATOM     22  C   UNL     1      11.190  11.969  19.328  0.00  0.00    +0.000 A 
ATOM     23  S   UNL     1      10.468  11.595  17.824  0.00  0.00    +0.000 S 
ENDBRANCH  18  19
ENDBRANCH  17  18
ENDBRANCH  15  17
ENDBRANCH   1  14
BRANCH   1  24
ATOM     24  O   UNL     1       5.145   6.556  15.500  0.00  0.00    +0.000 OA
ATOM     25  H   UNL     1       4.384   6.026  15.183  0.00  0.00    +0.000 HD
ENDBRANCH   1  24
TORSDOF 6
ENDMDL
MODEL 4
REMARK VINA RESULT:      -7.4      2.466      4.082
REMARK  Name = 
REMARK  6 active torsions:
REMARK  status: ('A' for Active; 'I' for Inactive)
REMARK    1  A    between atoms: C_2  and  C_11
REMARK    2  A    between atoms: N_3  and  C_4
REMARK    3  A    between atoms: C_4  and  C_5
REMARK    4  A    between atoms: C_5  and  C_6
REMARK    5  A    between atoms: C_11  and  O_12
REMARK    6  A    between atoms: N_15  and  C_16
REMARK                            x       y       z     vdW  Elec       q    Type
REMARK                         _______ _______ _______ _____ _____    ______ ____
ROOT
ATOM      1  C   UNL     1       6.355   4.992  17.908  0.00  0.00    +0.000 C 
ATOM      2  C   UNL     1       5.051   5.667  17.498  0.00  0.00    +0.000 C 
ATOM      3  C   UNL     1       4.670   4.923  16.237  0.00  0.00    +0.000 C 
ATOM      4  N   UNL     1       5.930   4.633  15.602  0.00  0.00    +0.000 N 
ATOM      5  C   UNL     1       6.964   4.601  16.559  0.00  0.00    +0.000 C 
ATOM      6  O   UNL     1       8.154   4.378  16.398  0.00  0.00    +0.000 OA
ENDROOT
BRANCH   4   7
ATOM      7  C   UNL     1       6.034   4.258  14.237  0.00  0.00    +0.000 A 
ATOM      8  C   UNL     1       5.015   3.542  13.604  0.00  0.00    +0.000 A 
ATOM      9  C   UNL     1       5.102   3.195  12.252  0.00  0.00    +0.000 A 
ATOM     10  C   UNL     1       6.227   3.544  11.516  0.00  0.00    +0.000 A 
ATOM     11  C   UNL     1       7.260   4.244  12.127  0.00  0.00    +0.000 A 
ATOM     12  C   UNL     1       7.162   4.607  13.474  0.00  0.00    +0.000 A 
ENDBRANCH   4   7
BRANCH   1  14
ATOM     13  O   UNL     1       7.449   5.744  19.910  0.00  0.00    +0.000 OA
ATOM     14  C   UNL     1       7.227   5.971  18.717  0.00  0.00    +0.000 C 
ATOM     15  N   UNL     1       7.674   7.115  18.086  0.00  0.00    +0.000 N 
ATOM     16  H   UNL     1       7.853   7.037  17.086  0.00  0.00    +0.000 HD
BRANCH  15  17
ATOM     17  C   UNL     1       8.465   8.089  18.824  0.00  0.00    +0.000 C 
BRANCH  17  18
ATOM     18  C   UNL     1       8.534   9.446  18.121  0.00  0.00    +0.000 C 
BRANCH  18  19
ATOM     19  C   UNL     1       9.308  10.455  18.919  0.00  0.00    +0.000 A 
ATOM     20  C   UNL     1       9.340  10.620  20.291  0.00  0.00    +0.000 A 
ATOM     21  C   UNL     1      10.198  11.686  20.689  0.00  0.00    +0.000 A 
ATOM     22  C   UNL     1      10.793  12.300  19.610  0.00  0.00    +0.000 A 
ATOM     23  S   UNL     1      10.321  11.590  18.128  0.00  0.00    +0.000 S 
ENDBRANCH  18  19
ENDBRANCH  17  18
ENDBRANCH  15  17
ENDBRANCH   1  14
BRANCH   1  24
ATOM     24  O   UNL     1       6.018   3.836  18.673  0.00  0.00    +0.000 OA
ATOM     25  H   UNL     1       5.409   3.312  18.112  0.00  0.00    +0.000 HD
ENDBRANCH   1  24
TORSDOF 6
ENDMDL
MODEL 5
REMARK VINA RESULT:      -7.4      1.489      2.121
REMARK  Name = 
REMARK  6 active torsions:
REMARK  status: ('A' for Active; 'I' for Inactive)
REMARK    1  A    between atoms: C_2  and  C_11
REMARK    2  A    between atoms: N_3  and  C_4
REMARK    3  A    between atoms: C_4  and  C_5
REMARK    4  A    between atoms: C_5  and  C_6
REMARK    5  A    between atoms: C_11  and  O_12
REMARK    6  A    between atoms: N_15  and  C_16
REMARK                            x       y       z     vdW  Elec       q    Type
REMARK                         _______ _______ _______ _____ _____    ______ ____
ROOT
ATOM      1  C   UNL     1       7.040   5.281  17.795  0.00  0.00    +0.000 C 
ATOM      2  C   UNL     1       6.932   5.307  19.316  0.00  0.00    +0.000 C 
ATOM      3  C   UNL     1       5.886   4.250  19.595  0.00  0.00    +0.000 C 
ATOM      4  N   UNL     1       4.968   4.358  18.490  0.00  0.00    +0.000 N 
ATOM      5  C   UNL     1       5.618   4.910  17.368  0.00  0.00    +0.000 C 
ATOM      6  O   UNL     1       5.167   5.141  16.256  0.00  0.00    +0.000 OA
ENDROOT
BRANCH   4   7
ATOM      7  C   UNL     1       3.662   3.803  18.519  0.00  0.00    +0.000 A 
ATOM      8  C   UNL     1       2.577   4.532  19.013  0.00  0.00    +0.000 A 
ATOM      9  C   UNL     1       1.285   3.999  19.018  0.00  0.00    +0.000 A 
ATOM     10  C   UNL     1       1.062   2.713  18.544  0.00  0.00    +0.000 A 
ATOM     11  C   UNL     1       2.126   1.963  18.060  0.00  0.00    +0.000 A 
ATOM     12  C   UNL     1       3.415   2.506  18.038  0.00  0.00    +0.000 A 
ENDBRANCH   4   7
BRANCH   1  14
ATOM     13  O   UNL     1       7.725   6.804  16.068  0.00  0.00    +0.000 OA
ATOM     14  C   UNL     1       7.502   6.655  17.273  0.00  0.00    +0.000 C 
ATOM     15  N   UNL     1       7.719   7.660  18.195  0.00  0.00    +0.000 N 
ATOM     16  H   UNL     1       7.130   7.643  19.026  0.00  0.00    +0.000 HD
BRANCH  15  17
ATOM     17  C   UNL     1       8.197   8.961  17.751  0.00  0.00    +0.000 C 
BRANCH  17  18
ATOM     18  C   UNL     1       8.954   9.715  18.847  0.00  0.00    +0.000 C 
BRANCH  18  19
ATOM     19  C   UNL     1       9.444  11.053  18.373  0.00  0.00    +0.000 A 
ATOM     20  C   UNL     1       8.709  12.097  17.846  0.00  0.00    +0.000 A 
ATOM     21  C   UNL     1       9.522  13.219  17.511  0.00  0.00    +0.000 A 
ATOM     22  C   UNL     1      10.851  12.995  17.795  0.00  0.00    +0.000 A 
ATOM     23  S   UNL     1      11.111  11.444  18.464  0.00  0.00    +0.000 S 
ENDBRANCH  18  19
ENDBRANCH  17  18
ENDBRANCH  15  17
ENDBRANCH   1  14
BRANCH   1  24
ATOM     24  O   UNL     1       7.965   4.252  17.448  0.00  0.00    +0.000 OA
ATOM     25  H   UNL     1       8.771   4.426  17.977  0.00  0.00    +0.000 HD
ENDBRANCH   1  24
TORSDOF 6
ENDMDL
MODEL 6
REMARK VINA RESULT:      -7.3      4.677      6.611
REMARK  Name = 
REMARK  6 active torsions:
REMARK  status: ('A' for Active; 'I' for Inactive)
REMARK    1  A    between atoms: C_2  and  C_11
REMARK    2  A    between atoms: N_3  and  C_4
REMARK    3  A    between atoms: C_4  and  C_5
REMARK    4  A    between atoms: C_5  and  C_6
REMARK    5  A    between atoms: C_11  and  O_12
REMARK    6  A    between atoms: N_15  and  C_16
REMARK                            x       y       z     vdW  Elec       q    Type
REMARK                         _______ _______ _______ _____ _____    ______ ____
ROOT
ATOM      1  C   UNL     1       6.013   5.740  17.351  0.00  0.00    +0.000 C 
ATOM      2  C   UNL     1       4.891   6.471  16.622  0.00  0.00    +0.000 C 
ATOM      3  C   UNL     1       3.750   6.407  17.614  0.00  0.00    +0.000 C 
ATOM      4  N   UNL     1       3.907   5.127  18.254  0.00  0.00    +0.000 N 
ATOM      5  C   UNL     1       5.250   4.706  18.183  0.00  0.00    +0.000 C 
ATOM      6  O   UNL     1       5.760   3.685  18.620  0.00  0.00    +0.000 OA
ENDROOT
BRANCH   4   7
ATOM      7  C   UNL     1       2.869   4.507  18.997  0.00  0.00    +0.000 A 
ATOM      8  C   UNL     1       2.731   4.727  20.371  0.00  0.00    +0.000 A 
ATOM      9  C   UNL     1       1.694   4.140  21.100  0.00  0.00    +0.000 A 
ATOM     10  C   UNL     1       0.786   3.302  20.466  0.00  0.00    +0.000 A 
ATOM     11  C   UNL     1       0.909   3.057  19.104  0.00  0.00    +0.000 A 
ATOM     12  C   UNL     1       1.936   3.661  18.373  0.00  0.00    +0.000 A 
ENDBRANCH   4   7
BRANCH   1  14
ATOM     13  O   UNL     1       7.981   4.506  16.741  0.00  0.00    +0.000 OA
ATOM     14  C   UNL     1       6.988   5.116  16.335  0.00  0.00    +0.000 C 
ATOM     15  N   UNL     1       6.747   5.326  14.991  0.00  0.00    +0.000 N 
ATOM     16  H   UNL     1       5.769   5.414  14.718  0.00  0.00    +0.000 HD
BRANCH  15  17
ATOM     17  C   UNL     1       7.666   4.792  13.997  0.00  0.00    +0.000 C 
BRANCH  17  18
ATOM     18  C   UNL     1       7.127   4.917  12.570  0.00  0.00    +0.000 C 
BRANCH  18  19
ATOM     19  C   UNL     1       6.730   3.586  12.000  0.00  0.00    +0.000 A 
ATOM     20  C   UNL     1       7.544   2.607  11.462  0.00  0.00    +0.000 A 
ATOM     21  C   UNL     1       6.806   1.469  11.023  0.00  0.00    +0.000 A 
ATOM     22  C   UNL     1       5.454   1.616  11.239  0.00  0.00    +0.000 A 
ATOM     23  S   UNL     1       5.082   3.115  11.972  0.00  0.00    +0.000 S 
ENDBRANCH  18  19
ENDBRANCH  17  18
ENDBRANCH  15  17
ENDBRANCH   1  14
BRANCH   1  24
ATOM     24  O   UNL     1       6.669   6.690  18.190  0.00  0.00    +0.000 OA
ATOM     25  H   UNL     1       6.950   6.194  18.988  0.00  0.00    +0.000 HD
ENDBRANCH   1  24
TORSDOF 6
ENDMDL
MODEL 7
REMARK VINA RESULT:      -7.3      1.320      1.477
REMARK  Name = 
REMARK  6 active torsions:
REMARK  status: ('A' for Active; 'I' for Inactive)
REMARK    1  A    between atoms: C_2  and  C_11
REMARK    2  A    between atoms: N_3  and  C_4
REMARK    3  A    between atoms: C_4  and  C_5
REMARK    4  A    between atoms: C_5  and  C_6
REMARK    5  A    between atoms: C_11  and  O_12
REMARK    6  A    between atoms: N_15  and  C_16
REMARK                            x       y       z     vdW  Elec       q    Type
REMARK                         _______ _______ _______ _____ _____    ______ ____
ROOT
ATOM      1  C   UNL     1       5.740   5.712  16.436  0.00  0.00    +0.000 C 
ATOM      2  C   UNL     1       6.076   4.234  16.604  0.00  0.00    +0.000 C 
ATOM      3  C   UNL     1       4.745   3.631  17.002  0.00  0.00    +0.000 C 
ATOM      4  N   UNL     1       4.121   4.649  17.807  0.00  0.00    +0.000 N 
ATOM      5  C   UNL     1       4.631   5.920  17.471  0.00  0.00    +0.000 C 
ATOM      6  O   UNL     1       4.337   7.013  17.932  0.00  0.00    +0.000 OA
ENDROOT
BRANCH   4   7
ATOM      7  C   UNL     1       3.025   4.383  18.669  0.00  0.00    +0.000 A 
ATOM      8  C   UNL     1       1.938   3.618  18.240  0.00  0.00    +0.000 A 
ATOM      9  C   UNL     1       0.869   3.331  19.094  0.00  0.00    +0.000 A 
ATOM     10  C   UNL     1       0.865   3.826  20.392  0.00  0.00    +0.000 A 
ATOM     11  C   UNL     1       1.928   4.601  20.838  0.00  0.00    +0.000 A 
ATOM     12  C   UNL     1       3.005   4.870  19.987  0.00  0.00    +0.000 A 
ENDBRANCH   4   7
BRANCH   1  14
ATOM     13  O   UNL     1       7.920   6.554  15.879  0.00  0.00    +0.000 OA
ATOM     14  C   UNL     1       6.991   6.572  16.693  0.00  0.00    +0.000 C 
ATOM     15  N   UNL     1       7.057   7.286  17.873  0.00  0.00    +0.000 N 
ATOM     16  H   UNL     1       6.169   7.617  18.249  0.00  0.00    +0.000 HD
BRANCH  15  17
ATOM     17  C   UNL     1       8.240   8.078  18.178  0.00  0.00    +0.000 C 
BRANCH  17  18
ATOM     18  C   UNL     1       8.016   9.577  17.962  0.00  0.00    +0.000 C 
BRANCH  18  19
ATOM     19  C   UNL     1       9.151  10.398  18.499  0.00  0.00    +0.000 A 
ATOM     20  C   UNL     1      10.185  10.993  17.800  0.00  0.00    +0.000 A 
ATOM     21  C   UNL     1      11.080  11.702  18.653  0.00  0.00    +0.000 A 
ATOM     22  C   UNL     1      10.700  11.627  19.975  0.00  0.00    +0.000 A 
ATOM     23  S   UNL     1       9.272  10.710  20.181  0.00  0.00    +0.000 S 
ENDBRANCH  18  19
ENDBRANCH  17  18
ENDBRANCH  15  17
ENDBRANCH   1  14
BRANCH   1  24
ATOM     24  O   UNL     1       5.244   5.891  15.111  0.00  0.00    +0.000 OA
ATOM     25  H   UNL     1       4.941   5.007  14.816  0.00  0.00    +0.000 HD
ENDBRANCH   1  24
TORSDOF 6
ENDMDL
MODEL 8
REMARK VINA RESULT:      -7.2      2.797      4.027
REMARK  Name = 
REMARK  6 active torsions:
REMARK  status: ('A' for Active; 'I' for Inactive)
REMARK    1  A    between atoms: C_2  and  C_11
REMARK    2  A    between atoms: N_3  and  C_4
REMARK    3  A    between atoms: C_4  and  C_5
REMARK    4  A    between atoms: C_5  and  C_6
REMARK    5  A    between atoms: C_11  and  O_12
REMARK    6  A    between atoms: N_15  and  C_16
REMARK                            x       y       z     vdW  Elec       q    Type
REMARK                         _______ _______ _______ _____ _____    ______ ____
ROOT
ATOM      1  C   UNL     1       6.379   5.833  17.549  0.00  0.00    +0.000 C 
ATOM      2  C   UNL     1       5.436   6.801  16.845  0.00  0.00    +0.000 C 
ATOM      3  C   UNL     1       4.973   6.004  15.644  0.00  0.00    +0.000 C 
ATOM      4  N   UNL     1       6.124   5.223  15.271  0.00  0.00    +0.000 N 
ATOM      5  C   UNL     1       6.970   5.036  16.383  0.00  0.00    +0.000 C 
ATOM      6  O   UNL     1       8.025   4.424  16.452  0.00  0.00    +0.000 OA
ENDROOT
BRANCH   4   7
ATOM      7  C   UNL     1       6.251   4.599  14.003  0.00  0.00    +0.000 A 
ATOM      8  C   UNL     1       7.336   4.874  13.167  0.00  0.00    +0.000 A 
ATOM      9  C   UNL     1       7.478   4.241  11.928  0.00  0.00    +0.000 A 
ATOM     10  C   UNL     1       6.519   3.333  11.498  0.00  0.00    +0.000 A 
ATOM     11  C   UNL     1       5.424   3.053  12.305  0.00  0.00    +0.000 A 
ATOM     12  C   UNL     1       5.294   3.673  13.552  0.00  0.00    +0.000 A 
ENDBRANCH   4   7
BRANCH   1  14
ATOM     13  O   UNL     1       7.879   6.127  19.403  0.00  0.00    +0.000 OA
ATOM     14  C   UNL     1       7.433   6.612  18.359  0.00  0.00    +0.000 C 
ATOM     15  N   UNL     1       7.789   7.871  17.916  0.00  0.00    +0.000 N 
ATOM     16  H   UNL     1       7.762   8.018  16.908  0.00  0.00    +0.000 HD
BRANCH  15  17
ATOM     17  C   UNL     1       8.748   8.662  18.674  0.00  0.00    +0.000 C 
BRANCH  17  18
ATOM     18  C   UNL     1       8.763  10.133  18.252  0.00  0.00    +0.000 C 
BRANCH  18  19
ATOM     19  C   UNL     1       9.768  10.932  19.029  0.00  0.00    +0.000 A 
ATOM     20  C   UNL     1      10.999  11.399  18.611  0.00  0.00    +0.000 A 
ATOM     21  C   UNL     1      11.678  12.129  19.630  0.00  0.00    +0.000 A 
ATOM     22  C   UNL     1      10.943  12.195  20.793  0.00  0.00    +0.000 A 
ATOM     23  S   UNL     1       9.444  11.385  20.650  0.00  0.00    +0.000 S 
ENDBRANCH  18  19
ENDBRANCH  17  18
ENDBRANCH  15  17
ENDBRANCH   1  14
BRANCH   1  24
ATOM     24  O   UNL     1       5.586   4.997  18.391  0.00  0.00    +0.000 OA
ATOM     25  H   UNL     1       6.159   4.759  19.150  0.00  0.00    +0.000 HD
ENDBRANCH   1  24
TORSDOF 6
ENDMDL
MODEL 9
REMARK VINA RESULT:      -7.2      4.370      7.431
REMARK  Name = 
REMARK  6 active torsions:
REMARK  status: ('A' for Active; 'I' for Inactive)
REMARK    1  A    between atoms: C_2  and  C_11
REMARK    2  A    between atoms: N_3  and  C_4
REMARK    3  A    between atoms: C_4  and  C_5
REMARK    4  A    between atoms: C_5  and  C_6
REMARK    5  A    between atoms: C_11  and  O_12
REMARK    6  A    between atoms: N_15  and  C_16
REMARK                            x       y       z     vdW  Elec       q    Type
REMARK                         _______ _______ _______ _____ _____    ______ ____
ROOT
ATOM      1  C   UNL     1       5.580   6.327  17.420  0.00  0.00    +0.000 C 
ATOM      2  C   UNL     1       6.001   4.919  17.823  0.00  0.00    +0.000 C 
ATOM      3  C   UNL     1       6.854   4.476  16.653  0.00  0.00    +0.000 C 
ATOM      4  N   UNL     1       6.225   5.081  15.507  0.00  0.00    +0.000 N 
ATOM      5  C   UNL     1       5.501   6.226  15.895  0.00  0.00    +0.000 C 
ATOM      6  O   UNL     1       4.852   6.996  15.202  0.00  0.00    +0.000 OA
ENDROOT
BRANCH   4   7
ATOM      7  C   UNL     1       6.481   4.656  14.177  0.00  0.00    +0.000 A 
ATOM      8  C   UNL     1       7.524   5.208  13.429  0.00  0.00    +0.000 A 
ATOM      9  C   UNL     1       7.795   4.773  12.129  0.00  0.00    +0.000 A 
ATOM     10  C   UNL     1       7.008   3.786  11.548  0.00  0.00    +0.000 A 
ATOM     11  C   UNL     1       5.957   3.231  12.267  0.00  0.00    +0.000 A 
ATOM     12  C   UNL     1       5.700   3.655  13.574  0.00  0.00    +0.000 A 
ENDBRANCH   4   7
BRANCH   1  14
ATOM     13  O   UNL     1       3.615   7.681  17.692  0.00  0.00    +0.000 OA
ATOM     14  C   UNL     1       4.239   6.691  18.084  0.00  0.00    +0.000 C 
ATOM     15  N   UNL     1       3.816   5.925  19.153  0.00  0.00    +0.000 N 
ATOM     16  H   UNL     1       4.086   4.943  19.138  0.00  0.00    +0.000 HD
BRANCH  15  17
ATOM     17  C   UNL     1       2.576   6.259  19.839  0.00  0.00    +0.000 C 
BRANCH  17  18
ATOM     18  C   UNL     1       1.773   5.019  20.240  0.00  0.00    +0.000 C 
BRANCH  18  19
ATOM     19  C   UNL     1       2.164   3.812  19.438  0.00  0.00    +0.000 A 
ATOM     20  C   UNL     1       1.752   3.458  18.167  0.00  0.00    +0.000 A 
ATOM     21  C   UNL     1       2.341   2.237  17.725  0.00  0.00    +0.000 A 
ATOM     22  C   UNL     1       3.185   1.700  18.673  0.00  0.00    +0.000 A 
ATOM     23  S   UNL     1       3.264   2.666  20.081  0.00  0.00    +0.000 S 
ENDBRANCH  18  19
ENDBRANCH  17  18
ENDBRANCH  15  17
ENDBRANCH   1  14
BRANCH   1  24
ATOM     24  O   UNL     1       6.621   7.217  17.821  0.00  0.00    +0.000 OA
ATOM     25  H   UNL     1       6.200   8.098  17.910  0.00  0.00    +0.000 HD
ENDBRANCH   1  24
TORSDOF 6
ENDMDL
