MODEL 1
REMARK VINA RESULT:      -8.5      0.000      0.000
REMARK  Name = 
REMARK  2 active torsions:
REMARK  status: ('A' for Active; 'I' for Inactive)
REMARK    1  A    between atoms: C_1  and  C_2
REMARK    2  A    between atoms: C_15  and  C_16
REMARK                            x       y       z     vdW  Elec       q    Type
REMARK                         _______ _______ _______ _____ _____    ______ ____
ROOT
ATOM      1  C   UNL     1       1.971  13.799  17.690  0.00  0.00    +0.000 C 
ATOM      2  C   UNL     1       1.189  13.679  18.953  0.00  0.00    +0.000 C 
ATOM      3  O   UNL     1       0.627  14.633  19.485  0.00  0.00    +0.000 OA
ATOM      4  N   UNL     1       0.970  12.383  19.458  0.00  0.00    +0.000 N 
ATOM      5  C   UNL     1       0.247  12.149  20.634  0.00  0.00    +0.000 A 
ATOM      6  C   UNL     1      -0.457  13.046  21.459  0.00  0.00    +0.000 A 
ATOM      7  C   UNL     1      -1.143  12.557  22.563  0.00  0.00    +0.000 A 
ATOM      8 BR   UNL     1      -2.139  13.778  23.600  0.00  0.00    +0.000 Br
ATOM      9  C   UNL     1      -1.120  11.212  22.880  0.00  0.00    +0.000 A 
ATOM     10  C   UNL     1      -0.409  10.321  22.070  0.00  0.00    +0.000 A 
ATOM     11 BR   UNL     1      -0.418   8.484  22.563  0.00  0.00    +0.000 Br
ATOM     12  C   UNL     1       0.264  10.780  20.910  0.00  0.00    +0.000 A 
ATOM     13  C   UNL     1       1.036  10.160  19.882  0.00  0.00    +0.000 A 
ATOM     14  C   UNL     1       1.478   8.843  19.637  0.00  0.00    +0.000 A 
ATOM     15  C   UNL     1       2.327   8.614  18.562  0.00  0.00    +0.000 A 
ATOM     16  N   UNL     1       2.643   9.635  17.729  0.00  0.00    +0.000 NA
ATOM     17  N   UNL     1       2.204  10.917  17.907  0.00  0.00    +0.000 NA
ATOM     18  C   UNL     1       1.424  11.152  18.986  0.00  0.00    +0.000 A 
ENDROOT
BRANCH  15  19
ATOM     19  C   UNL     1       2.833   7.246  18.240  0.00  0.00    +0.000 A 
ATOM     20  C   UNL     1       3.730   7.140  17.108  0.00  0.00    +0.000 A 
ATOM     21  C   UNL     1       4.426   5.975  16.876  0.00  0.00    +0.000 A 
ATOM     22  C   UNL     1       3.872   4.842  17.422  0.00  0.00    +0.000 A 
ATOM     23  C   UNL     1       2.815   4.870  18.344  0.00  0.00    +0.000 A 
ATOM     24  C   UNL     1       2.127   3.702  18.630  0.00  0.00    +0.000 A 
ATOM     25  C   UNL     1       1.028   3.711  19.495  0.00  0.00    +0.000 A 
ATOM     26  C   UNL     1       1.203   4.319  20.715  0.00  0.00    +0.000 A 
ATOM     27  C   UNL     1       1.693   5.580  20.287  0.00  0.00    +0.000 A 
ATOM     28  C   UNL     1       2.436   6.008  19.002  0.00  0.00    +0.000 A 
ENDBRANCH  15  19
TORSDOF 1
ENDMDL
MODEL 2
REMARK VINA RESULT:      -8.3      3.266      3.837
REMARK  Name = 
REMARK  2 active torsions:
REMARK  status: ('A' for Active; 'I' for Inactive)
REMARK    1  A    between atoms: C_1  and  C_2
REMARK    2  A    between atoms: C_15  and  C_16
REMARK                            x       y       z     vdW  Elec       q    Type
REMARK                         _______ _______ _______ _____ _____    ______ ____
ROOT
ATOM      1  C   UNL     1      -1.205  12.684  22.872  0.00  0.00    +0.000 C 
ATOM      2  C   UNL     1      -2.291  12.697  21.851  0.00  0.00    +0.000 C 
ATOM      3  O   UNL     1      -3.295  13.398  21.951  0.00  0.00    +0.000 OA
ATOM      4  N   UNL     1      -2.065  11.988  20.656  0.00  0.00    +0.000 N 
ATOM      5  C   UNL     1      -3.013  11.933  19.626  0.00  0.00    +0.000 A 
ATOM      6  C   UNL     1      -4.249  12.592  19.496  0.00  0.00    +0.000 A 
ATOM      7  C   UNL     1      -4.998  12.408  18.341  0.00  0.00    +0.000 A 
ATOM      8 BR   UNL     1      -6.612  13.368  18.169  0.00  0.00    +0.000 Br
ATOM      9  C   UNL     1      -4.564  11.566  17.335  0.00  0.00    +0.000 A 
ATOM     10  C   UNL     1      -3.342  10.898  17.469  0.00  0.00    +0.000 A 
ATOM     11 BR   UNL     1      -2.804   9.754  16.047  0.00  0.00    +0.000 Br
ATOM     12  C   UNL     1      -2.531  11.100  18.614  0.00  0.00    +0.000 A 
ATOM     13  C   UNL     1      -1.260  10.615  19.046  0.00  0.00    +0.000 A 
ATOM     14  C   UNL     1      -0.322   9.701  18.523  0.00  0.00    +0.000 A 
ATOM     15  C   UNL     1       0.793   9.379  19.286  0.00  0.00    +0.000 A 
ATOM     16  N   UNL     1       0.998  10.008  20.469  0.00  0.00    +0.000 NA
ATOM     17  N   UNL     1       0.135  10.930  20.993  0.00  0.00    +0.000 NA
ATOM     18  C   UNL     1      -0.979  11.201  20.277  0.00  0.00    +0.000 A 
ENDROOT
BRANCH  15  19
ATOM     19  C   UNL     1       1.829   8.421  18.796  0.00  0.00    +0.000 A 
ATOM     20  C   UNL     1       2.618   8.851  17.660  0.00  0.00    +0.000 A 
ATOM     21  C   UNL     1       3.742   8.148  17.286  0.00  0.00    +0.000 A 
ATOM     22  C   UNL     1       3.771   6.833  17.687  0.00  0.00    +0.000 A 
ATOM     23  C   UNL     1       2.861   6.288  18.604  0.00  0.00    +0.000 A 
ATOM     24  C   UNL     1       2.773   4.912  18.742  0.00  0.00    +0.000 A 
ATOM     25  C   UNL     1       1.830   4.337  19.601  0.00  0.00    +0.000 A 
ATOM     26  C   UNL     1       1.787   4.820  20.887  0.00  0.00    +0.000 A 
ATOM     27  C   UNL     1       1.650   6.206  20.620  0.00  0.00    +0.000 A 
ATOM     28  C   UNL     1       2.058   7.059  19.398  0.00  0.00    +0.000 A 
ENDBRANCH  15  19
TORSDOF 1
ENDMDL
MODEL 3
REMARK VINA RESULT:      -8.2      1.001      2.324
REMARK  Name = 
REMARK  2 active torsions:
REMARK  status: ('A' for Active; 'I' for Inactive)
REMARK    1  A    between atoms: C_1  and  C_2
REMARK    2  A    between atoms: C_15  and  C_16
REMARK                            x       y       z     vdW  Elec       q    Type
REMARK                         _______ _______ _______ _____ _____    ______ ____
ROOT
ATOM      1  C   UNL     1       2.496  13.384  17.456  0.00  0.00    +0.000 C 
ATOM      2  C   UNL     1       1.715  13.357  18.726  0.00  0.00    +0.000 C 
ATOM      3  O   UNL     1       1.261  14.370  19.253  0.00  0.00    +0.000 OA
ATOM      4  N   UNL     1       1.362  12.096  19.242  0.00  0.00    +0.000 N 
ATOM      5  C   UNL     1       0.627  11.950  20.425  0.00  0.00    +0.000 A 
ATOM      6  C   UNL     1       0.028  12.923  21.247  0.00  0.00    +0.000 A 
ATOM      7  C   UNL     1      -0.698  12.518  22.359  0.00  0.00    +0.000 A 
ATOM      8 BR   UNL     1      -1.551  13.846  23.392  0.00  0.00    +0.000 Br
ATOM      9  C   UNL     1      -0.816  11.180  22.687  0.00  0.00    +0.000 A 
ATOM     10  C   UNL     1      -0.209  10.213  21.880  0.00  0.00    +0.000 A 
ATOM     11 BR   UNL     1      -0.411   8.391  22.388  0.00  0.00    +0.000 Br
ATOM     12  C   UNL     1       0.501  10.588  20.712  0.00  0.00    +0.000 A 
ATOM     13  C   UNL     1       1.195   9.882  19.685  0.00  0.00    +0.000 A 
ATOM     14  C   UNL     1       1.493   8.524  19.447  0.00  0.00    +0.000 A 
ATOM     15  C   UNL     1       2.305   8.197  18.369  0.00  0.00    +0.000 A 
ATOM     16  N   UNL     1       2.722   9.173  17.525  0.00  0.00    +0.000 NA
ATOM     17  N   UNL     1       2.423  10.496  17.696  0.00  0.00    +0.000 NA
ATOM     18  C   UNL     1       1.680  10.821  18.778  0.00  0.00    +0.000 A 
ENDROOT
BRANCH  15  19
ATOM     19  C   UNL     1       2.660   6.781  18.055  0.00  0.00    +0.000 A 
ATOM     20  C   UNL     1       1.608   5.800  18.224  0.00  0.00    +0.000 A 
ATOM     21  C   UNL     1       1.765   4.519  17.742  0.00  0.00    +0.000 A 
ATOM     22  C   UNL     1       3.067   4.111  17.577  0.00  0.00    +0.000 A 
ATOM     23  C   UNL     1       4.163   4.982  17.657  0.00  0.00    +0.000 A 
ATOM     24  C   UNL     1       5.442   4.461  17.763  0.00  0.00    +0.000 A 
ATOM     25  C   UNL     1       6.549   5.305  17.910  0.00  0.00    +0.000 A 
ATOM     26  C   UNL     1       6.667   6.336  17.009  0.00  0.00    +0.000 A 
ATOM     27  C   UNL     1       5.386   6.928  17.153  0.00  0.00    +0.000 A 
ATOM     28  C   UNL     1       4.032   6.343  17.613  0.00  0.00    +0.000 A 
ENDBRANCH  15  19
TORSDOF 1
ENDMDL
MODEL 4
REMARK VINA RESULT:      -7.6      2.319      3.303
REMARK  Name = 
REMARK  2 active torsions:
REMARK  status: ('A' for Active; 'I' for Inactive)
REMARK    1  A    between atoms: C_1  and  C_2
REMARK    2  A    between atoms: C_15  and  C_16
REMARK                            x       y       z     vdW  Elec       q    Type
REMARK                         _______ _______ _______ _____ _____    ______ ____
ROOT
ATOM      1  C   UNL     1      -1.431  10.427  23.482  0.00  0.00    +0.000 C 
ATOM      2  C   UNL     1      -1.082  11.672  22.740  0.00  0.00    +0.000 C 
ATOM      3  O   UNL     1      -1.465  12.787  23.088  0.00  0.00    +0.000 OA
ATOM      4  N   UNL     1      -0.149  11.562  21.692  0.00  0.00    +0.000 N 
ATOM      5  C   UNL     1       0.256  12.665  20.930  0.00  0.00    +0.000 A 
ATOM      6  C   UNL     1      -0.053  14.030  21.075  0.00  0.00    +0.000 A 
ATOM      7  C   UNL     1       0.518  14.951  20.206  0.00  0.00    +0.000 A 
ATOM      8 BR   UNL     1       0.141  16.779  20.480  0.00  0.00    +0.000 Br
ATOM      9  C   UNL     1       1.358  14.545  19.187  0.00  0.00    +0.000 A 
ATOM     10  C   UNL     1       1.654  13.187  19.032  0.00  0.00    +0.000 A 
ATOM     11 BR   UNL     1       2.817  12.698  17.608  0.00  0.00    +0.000 Br
ATOM     12  C   UNL     1       1.126  12.226  19.929  0.00  0.00    +0.000 A 
ATOM     13  C   UNL     1       1.241  10.811  20.071  0.00  0.00    +0.000 A 
ATOM     14  C   UNL     1       1.894   9.795  19.343  0.00  0.00    +0.000 A 
ATOM     15  C   UNL     1       1.698   8.472  19.719  0.00  0.00    +0.000 A 
ATOM     16  N   UNL     1       0.959   8.193  20.820  0.00  0.00    +0.000 NA
ATOM     17  N   UNL     1       0.342   9.149  21.578  0.00  0.00    +0.000 NA
ATOM     18  C   UNL     1       0.486  10.433  21.178  0.00  0.00    +0.000 A 
ENDROOT
BRANCH  15  19
ATOM     19  C   UNL     1       2.359   7.344  18.997  0.00  0.00    +0.000 A 
ATOM     20  C   UNL     1       3.187   7.701  17.863  0.00  0.00    +0.000 A 
ATOM     21  C   UNL     1       4.016   6.767  17.283  0.00  0.00    +0.000 A 
ATOM     22  C   UNL     1       3.653   5.457  17.484  0.00  0.00    +0.000 A 
ATOM     23  C   UNL     1       2.664   5.064  18.398  0.00  0.00    +0.000 A 
ATOM     24  C   UNL     1       2.157   3.775  18.343  0.00  0.00    +0.000 A 
ATOM     25  C   UNL     1       1.125   3.374  19.197  0.00  0.00    +0.000 A 
ATOM     26  C   UNL     1       1.297   3.624  20.538  0.00  0.00    +0.000 A 
ATOM     27  C   UNL     1       1.586   5.011  20.489  0.00  0.00    +0.000 A 
ATOM     28  C   UNL     1       2.181   5.896  19.370  0.00  0.00    +0.000 A 
ENDBRANCH  15  19
TORSDOF 1
ENDMDL
MODEL 5
REMARK VINA RESULT:      -7.6      0.790      2.311
REMARK  Name = 
REMARK  2 active torsions:
REMARK  status: ('A' for Active; 'I' for Inactive)
REMARK    1  A    between atoms: C_1  and  C_2
REMARK    2  A    between atoms: C_15  and  C_16
REMARK                            x       y       z     vdW  Elec       q    Type
REMARK                         _______ _______ _______ _____ _____    ______ ____
ROOT
ATOM      1  C   UNL     1       2.032  13.514  17.494  0.00  0.00    +0.000 C 
ATOM      2  C   UNL     1       1.262  13.653  18.763  0.00  0.00    +0.000 C 
ATOM      3  O   UNL     1       0.778  14.717  19.138  0.00  0.00    +0.000 OA
ATOM      4  N   UNL     1       0.958  12.472  19.469  0.00  0.00    +0.000 N 
ATOM      5  C   UNL     1       0.239  12.482  20.670  0.00  0.00    +0.000 A 
ATOM      6  C   UNL     1      -0.387  13.547  21.344  0.00  0.00    +0.000 A 
ATOM      7  C   UNL     1      -1.090  13.290  22.514  0.00  0.00    +0.000 A 
ATOM      8 BR   UNL     1      -1.980  14.729  23.347  0.00  0.00    +0.000 Br
ATOM      9  C   UNL     1      -1.158  12.014  23.041  0.00  0.00    +0.000 A 
ATOM     10  C   UNL     1      -0.524  10.957  22.380  0.00  0.00    +0.000 A 
ATOM     11 BR   UNL     1      -0.657   9.227  23.160  0.00  0.00    +0.000 Br
ATOM     12  C   UNL     1       0.163  11.175  21.160  0.00  0.00    +0.000 A 
ATOM     13  C   UNL     1       0.873  10.346  20.241  0.00  0.00    +0.000 A 
ATOM     14  C   UNL     1       1.216   8.979  20.207  0.00  0.00    +0.000 A 
ATOM     15  C   UNL     1       2.031   8.521  19.180  0.00  0.00    +0.000 A 
ATOM     16  N   UNL     1       2.406   9.371  18.193  0.00  0.00    +0.000 NA
ATOM     17  N   UNL     1       2.062  10.694  18.166  0.00  0.00    +0.000 NA
ATOM     18  C   UNL     1       1.317  11.153  19.197  0.00  0.00    +0.000 A 
ENDROOT
BRANCH  15  19
ATOM     19  C   UNL     1       2.433   7.086  19.077  0.00  0.00    +0.000 A 
ATOM     20  C   UNL     1       1.869   6.186  20.062  0.00  0.00    +0.000 A 
ATOM     21  C   UNL     1       1.990   4.823  19.912  0.00  0.00    +0.000 A 
ATOM     22  C   UNL     1       3.040   4.411  19.126  0.00  0.00    +0.000 A 
ATOM     23  C   UNL     1       3.798   5.287  18.334  0.00  0.00    +0.000 A 
ATOM     24  C   UNL     1       5.001   4.854  17.799  0.00  0.00    +0.000 A 
ATOM     25  C   UNL     1       5.810   5.725  17.061  0.00  0.00    +0.000 A 
ATOM     26  C   UNL     1       5.205   6.420  16.041  0.00  0.00    +0.000 A 
ATOM     27  C   UNL     1       4.124   6.999  16.754  0.00  0.00    +0.000 A 
ATOM     28  C   UNL     1       3.394   6.560  18.043  0.00  0.00    +0.000 A 
ENDBRANCH  15  19
TORSDOF 1
ENDMDL
MODEL 6
REMARK VINA RESULT:      -7.4      1.912      1.930
REMARK  Name = 
REMARK  2 active torsions:
REMARK  status: ('A' for Active; 'I' for Inactive)
REMARK    1  A    between atoms: C_1  and  C_2
REMARK    2  A    between atoms: C_15  and  C_16
REMARK                            x       y       z     vdW  Elec       q    Type
REMARK                         _______ _______ _______ _____ _____    ______ ____
ROOT
ATOM      1  C   UNL     1      -1.998  11.535  16.721  0.00  0.00    +0.000 C 
ATOM      2  C   UNL     1      -2.118  11.846  18.175  0.00  0.00    +0.000 C 
ATOM      3  O   UNL     1      -2.937  12.644  18.622  0.00  0.00    +0.000 OA
ATOM      4  N   UNL     1      -1.356  11.068  19.068  0.00  0.00    +0.000 N 
ATOM      5  C   UNL     1      -1.392  11.268  20.453  0.00  0.00    +0.000 A 
ATOM      6  C   UNL     1      -2.193  12.131  21.225  0.00  0.00    +0.000 A 
ATOM      7  C   UNL     1      -2.072  12.114  22.608  0.00  0.00    +0.000 A 
ATOM      8 BR   UNL     1      -3.216  13.227  23.612  0.00  0.00    +0.000 Br
ATOM      9  C   UNL     1      -1.159  11.286  23.235  0.00  0.00    +0.000 A 
ATOM     10  C   UNL     1      -0.352  10.439  22.469  0.00  0.00    +0.000 A 
ATOM     11 BR   UNL     1       0.884   9.327  23.395  0.00  0.00    +0.000 Br
ATOM     12  C   UNL     1      -0.481  10.398  21.058  0.00  0.00    +0.000 A 
ATOM     13  C   UNL     1       0.143   9.658  20.010  0.00  0.00    +0.000 A 
ATOM     14  C   UNL     1       1.176   8.700  19.958  0.00  0.00    +0.000 A 
ATOM     15  C   UNL     1       1.612   8.255  18.717  0.00  0.00    +0.000 A 
ATOM     16  N   UNL     1       0.983   8.682  17.594  0.00  0.00    +0.000 NA
ATOM     17  N   UNL     1      -0.048   9.579  17.603  0.00  0.00    +0.000 NA
ATOM     18  C   UNL     1      -0.435  10.055  18.808  0.00  0.00    +0.000 A 
ENDROOT
BRANCH  15  19
ATOM     19  C   UNL     1       2.700   7.239  18.585  0.00  0.00    +0.000 A 
ATOM     20  C   UNL     1       3.691   7.487  17.559  0.00  0.00    +0.000 A 
ATOM     21  C   UNL     1       4.849   6.743  17.513  0.00  0.00    +0.000 A 
ATOM     22  C   UNL     1       4.777   5.510  18.117  0.00  0.00    +0.000 A 
ATOM     23  C   UNL     1       3.704   5.112  18.929  0.00  0.00    +0.000 A 
ATOM     24  C   UNL     1       3.563   3.775  19.266  0.00  0.00    +0.000 A 
ATOM     25  C   UNL     1       2.468   3.338  20.018  0.00  0.00    +0.000 A 
ATOM     26  C   UNL     1       2.202   4.021  21.181  0.00  0.00    +0.000 A 
ATOM     27  C   UNL     1       2.145   5.345  20.675  0.00  0.00    +0.000 A 
ATOM     28  C   UNL     1       2.787   5.994  19.428  0.00  0.00    +0.000 A 
ENDBRANCH  15  19
TORSDOF 1
ENDMDL
MODEL 7
REMARK VINA RESULT:      -7.0      4.838      9.659
REMARK  Name = 
REMARK  2 active torsions:
REMARK  status: ('A' for Active; 'I' for Inactive)
REMARK    1  A    between atoms: C_1  and  C_2
REMARK    2  A    between atoms: C_15  and  C_16
REMARK                            x       y       z     vdW  Elec       q    Type
REMARK                         _______ _______ _______ _____ _____    ______ ____
ROOT
ATOM      1  C   UNL     1       0.660  10.627  20.142  0.00  0.00    +0.000 C 
ATOM      2  C   UNL     1      -0.163  10.526  18.903  0.00  0.00    +0.000 C 
ATOM      3  O   UNL     1       0.188   9.881  17.918  0.00  0.00    +0.000 OA
ATOM      4  N   UNL     1      -1.461  11.071  18.941  0.00  0.00    +0.000 N 
ATOM      5  C   UNL     1      -2.323  11.030  17.838  0.00  0.00    +0.000 A 
ATOM      6  C   UNL     1      -2.166  10.407  16.586  0.00  0.00    +0.000 A 
ATOM      7  C   UNL     1      -3.199  10.473  15.661  0.00  0.00    +0.000 A 
ATOM      8 BR   UNL     1      -2.983   9.559  14.025  0.00  0.00    +0.000 Br
ATOM      9  C   UNL     1      -4.363  11.165  15.938  0.00  0.00    +0.000 A 
ATOM     10  C   UNL     1      -4.515  11.798  17.175  0.00  0.00    +0.000 A 
ATOM     11 BR   UNL     1      -6.141  12.733  17.492  0.00  0.00    +0.000 Br
ATOM     12  C   UNL     1      -3.499  11.712  18.160  0.00  0.00    +0.000 A 
ATOM     13  C   UNL     1      -3.344  12.199  19.492  0.00  0.00    +0.000 A 
ATOM     14  C   UNL     1      -4.125  13.005  20.347  0.00  0.00    +0.000 A 
ATOM     15  C   UNL     1      -3.600  13.378  21.577  0.00  0.00    +0.000 A 
ATOM     16  N   UNL     1      -2.394  12.896  21.964  0.00  0.00    +0.000 NA
ATOM     17  N   UNL     1      -1.622  12.080  21.184  0.00  0.00    +0.000 NA
ATOM     18  C   UNL     1      -2.109  11.763  19.962  0.00  0.00    +0.000 A 
ENDROOT
BRANCH  15  19
ATOM     19  C   UNL     1      -4.371  14.227  22.534  0.00  0.00    +0.000 A 
ATOM     20  C   UNL     1      -5.764  14.458  22.214  0.00  0.00    +0.000 A 
ATOM     21  C   UNL     1      -6.608  15.025  23.143  0.00  0.00    +0.000 A 
ATOM     22  C   UNL     1      -5.991  15.779  24.112  0.00  0.00    +0.000 A 
ATOM     23  C   UNL     1      -4.603  15.793  24.308  0.00  0.00    +0.000 A 
ATOM     24  C   UNL     1      -4.036  16.778  25.101  0.00  0.00    +0.000 A 
ATOM     25  C   UNL     1      -2.648  16.858  25.261  0.00  0.00    +0.000 A 
ATOM     26  C   UNL     1      -1.998  15.702  25.623  0.00  0.00    +0.000 A 
ATOM     27  C   UNL     1      -2.477  14.831  24.612  0.00  0.00    +0.000 A 
ATOM     28  C   UNL     1      -3.768  14.858  23.762  0.00  0.00    +0.000 A 
ENDBRANCH  15  19
TORSDOF 1
ENDMDL
MODEL 8
REMARK VINA RESULT:      -7.0      4.643      9.440
REMARK  Name = 
REMARK  2 active torsions:
REMARK  status: ('A' for Active; 'I' for Inactive)
REMARK    1  A    between atoms: C_1  and  C_2
REMARK    2  A    between atoms: C_15  and  C_16
REMARK                            x       y       z     vdW  Elec       q    Type
REMARK                         _______ _______ _______ _____ _____    ______ ____
ROOT
ATOM      1  C   UNL     1      -4.449  10.985  15.890  0.00  0.00    +0.000 C 
ATOM      2  C   UNL     1      -3.140  10.572  16.473  0.00  0.00    +0.000 C 
ATOM      3  O   UNL     1      -2.290   9.954  15.836  0.00  0.00    +0.000 OA
ATOM      4  N   UNL     1      -2.821  11.053  17.757  0.00  0.00    +0.000 N 
ATOM      5  C   UNL     1      -1.620  10.733  18.400  0.00  0.00    +0.000 A 
ATOM      6  C   UNL     1      -0.503  10.016  17.932  0.00  0.00    +0.000 A 
ATOM      7  C   UNL     1       0.604   9.870  18.757  0.00  0.00    +0.000 A 
ATOM      8 BR   UNL     1       2.111   8.970  18.066  0.00  0.00    +0.000 Br
ATOM      9  C   UNL     1       0.614  10.389  20.038  0.00  0.00    +0.000 A 
ATOM     10  C   UNL     1      -0.500  11.089  20.511  0.00  0.00    +0.000 A 
ATOM     11 BR   UNL     1      -0.421  11.776  22.283  0.00  0.00    +0.000 Br
ATOM     12  C   UNL     1      -1.629  11.297  19.679  0.00  0.00    +0.000 A 
ATOM     13  C   UNL     1      -2.881  11.965  19.828  0.00  0.00    +0.000 A 
ATOM     14  C   UNL     1      -3.516  12.647  20.886  0.00  0.00    +0.000 A 
ATOM     15  C   UNL     1      -4.819  13.094  20.706  0.00  0.00    +0.000 A 
ATOM     16  N   UNL     1      -5.417  12.941  19.499  0.00  0.00    +0.000 NA
ATOM     17  N   UNL     1      -4.823  12.322  18.436  0.00  0.00    +0.000 NA
ATOM     18  C   UNL     1      -3.576  11.836  18.629  0.00  0.00    +0.000 A 
ENDROOT
BRANCH  15  19
ATOM     19  C   UNL     1      -5.553  13.827  21.781  0.00  0.00    +0.000 A 
ATOM     20  C   UNL     1      -6.973  14.023  21.573  0.00  0.00    +0.000 A 
ATOM     21  C   UNL     1      -7.772  14.474  22.600  0.00  0.00    +0.000 A 
ATOM     22  C   UNL     1      -7.119  15.170  23.588  0.00  0.00    +0.000 A 
ATOM     23  C   UNL     1      -5.721  15.228  23.694  0.00  0.00    +0.000 A 
ATOM     24  C   UNL     1      -5.138  16.167  24.530  0.00  0.00    +0.000 A 
ATOM     25  C   UNL     1      -3.747  16.292  24.607  0.00  0.00    +0.000 A 
ATOM     26  C   UNL     1      -3.031  15.139  24.825  0.00  0.00    +0.000 A 
ATOM     27  C   UNL     1      -3.546  14.335  23.776  0.00  0.00    +0.000 A 
ATOM     28  C   UNL     1      -4.892  14.378  23.017  0.00  0.00    +0.000 A 
ENDBRANCH  15  19
TORSDOF 1
ENDMDL
MODEL 9
REMARK VINA RESULT:      -6.9      9.131     10.475
REMARK  Name = 
REMARK  2 active torsions:
REMARK  status: ('A' for Active; 'I' for Inactive)
REMARK    1  A    between atoms: C_1  and  C_2
REMARK    2  A    between atoms: C_15  and  C_16
REMARK                            x       y       z     vdW  Elec       q    Type
REMARK                         _______ _______ _______ _____ _____    ______ ____
ROOT
ATOM      1  C   UNL     1       6.594  11.143  26.604  0.00  0.00    +0.000 C 
ATOM      2  C   UNL     1       7.019  12.553  26.835  0.00  0.00    +0.000 C 
ATOM      3  O   UNL     1       6.881  13.124  27.914  0.00  0.00    +0.000 OA
ATOM      4  N   UNL     1       7.745  13.188  25.809  0.00  0.00    +0.000 N 
ATOM      5  C   UNL     1       8.198  14.508  25.918  0.00  0.00    +0.000 A 
ATOM      6  C   UNL     1       8.140  15.400  27.005  0.00  0.00    +0.000 A 
ATOM      7  C   UNL     1       8.708  16.661  26.880  0.00  0.00    +0.000 A 
ATOM      8 BR   UNL     1       8.680  17.799  28.383  0.00  0.00    +0.000 Br
ATOM      9  C   UNL     1       9.301  17.063  25.697  0.00  0.00    +0.000 A 
ATOM     10  C   UNL     1       9.346  16.183  24.611  0.00  0.00    +0.000 A 
ATOM     11 BR   UNL     1      10.175  16.800  23.014  0.00  0.00    +0.000 Br
ATOM     12  C   UNL     1       8.816  14.873  24.720  0.00  0.00    +0.000 A 
ATOM     13  C   UNL     1       8.723  13.749  23.846  0.00  0.00    +0.000 A 
ATOM     14  C   UNL     1       9.080  13.509  22.503  0.00  0.00    +0.000 A 
ATOM     15  C   UNL     1       8.735  12.294  21.927  0.00  0.00    +0.000 A 
ATOM     16  N   UNL     1       8.142  11.338  22.685  0.00  0.00    +0.000 NA
ATOM     17  N   UNL     1       7.815  11.515  24.000  0.00  0.00    +0.000 NA
ATOM     18  C   UNL     1       8.100  12.719  24.546  0.00  0.00    +0.000 A 
ENDROOT
BRANCH  15  19
ATOM     19  C   UNL     1       9.083  11.969  20.511  0.00  0.00    +0.000 A 
ATOM     20  C   UNL     1       9.296  10.570  20.204  0.00  0.00    +0.000 A 
ATOM     21  C   UNL     1       9.389  10.149  18.896  0.00  0.00    +0.000 A 
ATOM     22  C   UNL     1       9.765  11.116  17.995  0.00  0.00    +0.000 A 
ATOM     23  C   UNL     1       9.825  12.482  18.311  0.00  0.00    +0.000 A 
ATOM     24  C   UNL     1      10.477  13.353  17.453  0.00  0.00    +0.000 A 
ATOM     25  C   UNL     1      10.609  14.708  17.774  0.00  0.00    +0.000 A 
ATOM     26  C   UNL     1       9.464  15.374  18.143  0.00  0.00    +0.000 A 
ATOM     27  C   UNL     1       9.008  14.513  19.173  0.00  0.00    +0.000 A 
ATOM     28  C   UNL     1       9.245  13.008  19.432  0.00  0.00    +0.000 A 
ENDBRANCH  15  19
TORSDOF 1
ENDMDL
