MODEL 1
REMARK VINA RESULT:      -7.9      0.000      0.000
REMARK  Name = 
REMARK  12 active torsions:
REMARK  status: ('A' for Active; 'I' for Inactive)
REMARK    1  A    between atoms: C_1  and  C_2
REMARK    2  A    between atoms: C_2  and  C_3
REMARK    3  A    between atoms: C_8  and  C_9
REMARK    4  A    between atoms: C_9  and  C_10
REMARK    5  A    between atoms: C_9  and  N_18
REMARK    6  A    between atoms: C_13  and  O_14
REMARK    7  A    between atoms: C_15  and  O_16
REMARK    8  A    between atoms: C_20  and  C_21
REMARK    9  A    between atoms: C_21  and  C_22
REMARK   10  A    between atoms: C_22  and  N_23
REMARK   11  A    between atoms: N_23  and  C_24
REMARK   12  A    between atoms: N_23  and  C_25
REMARK                            x       y       z     vdW  Elec       q    Type
REMARK                         _______ _______ _______ _____ _____    ______ ____
ROOT
ATOM      1  C   UNL     1       4.049   5.826  18.554  0.00  0.00    +0.000 C 
ENDROOT
BRANCH   1   7
ATOM      2  C   UNL     1       0.255  10.193  20.097  0.00  0.00    +0.000 A 
ATOM      3  C   UNL     1       0.422  10.691  18.793  0.00  0.00    +0.000 A 
ATOM      4  C   UNL     1       1.268  10.059  17.870  0.00  0.00    +0.000 A 
ATOM      5  C   UNL     1       1.950   8.899  18.268  0.00  0.00    +0.000 A 
ATOM      6  C   UNL     1       2.832   7.980  17.644  0.00  0.00    +0.000 A 
ATOM      7  C   UNL     1       3.160   7.032  18.595  0.00  0.00    +0.000 A 
ATOM      8  O   UNL     1       2.535   7.327  19.776  0.00  0.00    +0.000 OA
ATOM      9  C   UNL     1       1.787   8.447  19.570  0.00  0.00    +0.000 A 
ATOM     10  C   UNL     1       0.961   9.052  20.514  0.00  0.00    +0.000 A 
BRANCH   2  12
ATOM     11  C   UNL     1      -0.186  12.149  21.585  0.00  0.00    +0.000 C 
ATOM     12  C   UNL     1      -0.741  10.847  21.024  0.00  0.00    +0.000 C 
ENDBRANCH   2  12
ENDBRANCH   1   7
BRANCH   1  13
ATOM     13  C   UNL     1       3.266   4.515  18.616  0.00  0.00    +0.000 A 
ATOM     14  C   UNL     1       1.863   4.471  18.742  0.00  0.00    +0.000 A 
ATOM     15  C   UNL     1       1.180   3.252  18.816  0.00  0.00    +0.000 A 
ATOM     16  C   UNL     1       1.902   2.070  18.785  0.00  0.00    +0.000 A 
ATOM     17  C   UNL     1       3.288   2.096  18.684  0.00  0.00    +0.000 A 
ATOM     18  C   UNL     1       3.974   3.299  18.600  0.00  0.00    +0.000 A 
BRANCH  16  19
ATOM     19  O   UNL     1       1.291   0.848  18.856  0.00  0.00    +0.000 OA
ATOM     20  H   UNL     1       0.330   0.990  18.808  0.00  0.00    +0.000 HD
ENDBRANCH  16  19
BRANCH  17  21
ATOM     21  O   UNL     1       3.994   0.927  18.670  0.00  0.00    +0.000 OA
ATOM     22  H   UNL     1       4.406   0.902  17.783  0.00  0.00    +0.000 HD
ENDBRANCH  17  21
ENDBRANCH   1  13
BRANCH   1  23
ATOM     23  N   UNL     1       5.000   5.866  17.434  0.00  0.00    +0.000 N 
ATOM     24  C   UNL     1       4.934   5.270  16.204  0.00  0.00    +0.000 A 
ATOM     25  C   UNL     1       6.154   5.540  15.628  0.00  0.00    +0.000 A 
ATOM     26  N   UNL     1       6.891   6.317  16.482  0.00  0.00    +0.000 NA
ATOM     27  N   UNL     1       6.175   6.521  17.579  0.00  0.00    +0.000 NA
BRANCH  25  28
ATOM     28  C   UNL     1       6.707   5.086  14.328  0.00  0.00    +0.000 C 
BRANCH  28  29
ATOM     29  C   UNL     1       6.174   3.692  13.956  0.00  0.00    +0.000 C 
BRANCH  29  30
ATOM     30  N   UNL     1       6.320   3.335  12.529  0.00  0.00    +0.000 NA
ATOM     31  C   UNL     1       5.027   3.293  11.841  0.00  0.00    +0.000 C 
ATOM     32  C   UNL     1       7.192   4.312  11.867  0.00  0.00    +0.000 C 
ENDBRANCH  29  30
ENDBRANCH  28  29
ENDBRANCH  25  28
ENDBRANCH   1  23
TORSDOF 9
ENDMDL
MODEL 2
REMARK VINA RESULT:      -7.8      0.647      1.238
REMARK  Name = 
REMARK  12 active torsions:
REMARK  status: ('A' for Active; 'I' for Inactive)
REMARK    1  A    between atoms: C_1  and  C_2
REMARK    2  A    between atoms: C_2  and  C_3
REMARK    3  A    between atoms: C_8  and  C_9
REMARK    4  A    between atoms: C_9  and  C_10
REMARK    5  A    between atoms: C_9  and  N_18
REMARK    6  A    between atoms: C_13  and  O_14
REMARK    7  A    between atoms: C_15  and  O_16
REMARK    8  A    between atoms: C_20  and  C_21
REMARK    9  A    between atoms: C_21  and  C_22
REMARK   10  A    between atoms: C_22  and  N_23
REMARK   11  A    between atoms: N_23  and  C_24
REMARK   12  A    between atoms: N_23  and  C_25
REMARK                            x       y       z     vdW  Elec       q    Type
REMARK                         _______ _______ _______ _____ _____    ______ ____
ROOT
ATOM      1  C   UNL     1       4.208   5.923  18.670  0.00  0.00    +0.000 C 
ENDROOT
BRANCH   1   7
ATOM      2  C   UNL     1       0.121  10.085  20.021  0.00  0.00    +0.000 A 
ATOM      3  C   UNL     1       0.230  10.512  18.686  0.00  0.00    +0.000 A 
ATOM      4  C   UNL     1       1.106   9.888  17.786  0.00  0.00    +0.000 A 
ATOM      5  C   UNL     1       1.880   8.809  18.240  0.00  0.00    +0.000 A 
ATOM      6  C   UNL     1       2.818   7.921  17.655  0.00  0.00    +0.000 A 
ATOM      7  C   UNL     1       3.231   7.060  18.655  0.00  0.00    +0.000 A 
ATOM      8  O   UNL     1       2.605   7.381  19.829  0.00  0.00    +0.000 OA
ATOM      9  C   UNL     1       1.772   8.427  19.571  0.00  0.00    +0.000 A 
ATOM     10  C   UNL     1       0.918   9.027  20.492  0.00  0.00    +0.000 A 
BRANCH   2  12
ATOM     11  C   UNL     1      -1.559  11.918  20.252  0.00  0.00    +0.000 C 
ATOM     12  C   UNL     1      -0.906  10.719  20.926  0.00  0.00    +0.000 C 
ENDBRANCH   2  12
ENDBRANCH   1   7
BRANCH   1  13
ATOM     13  C   UNL     1       3.532   4.569  18.875  0.00  0.00    +0.000 A 
ATOM     14  C   UNL     1       4.200   3.460  19.433  0.00  0.00    +0.000 A 
ATOM     15  C   UNL     1       3.556   2.228  19.588  0.00  0.00    +0.000 A 
ATOM     16  C   UNL     1       2.243   2.093  19.164  0.00  0.00    +0.000 A 
ATOM     17  C   UNL     1       1.577   3.170  18.589  0.00  0.00    +0.000 A 
ATOM     18  C   UNL     1       2.204   4.399  18.441  0.00  0.00    +0.000 A 
BRANCH  16  19
ATOM     19  O   UNL     1       1.563   0.914  19.286  0.00  0.00    +0.000 OA
ATOM     20  H   UNL     1       1.369   0.584  18.392  0.00  0.00    +0.000 HD
ENDBRANCH  16  19
BRANCH  17  21
ATOM     21  O   UNL     1       0.289   3.025  18.159  0.00  0.00    +0.000 OA
ATOM     22  H   UNL     1       0.369   2.538  17.315  0.00  0.00    +0.000 HD
ENDBRANCH  17  21
ENDBRANCH   1  13
BRANCH   1  23
ATOM     23  N   UNL     1       5.106   5.938  17.506  0.00  0.00    +0.000 N 
ATOM     24  C   UNL     1       5.024   5.252  16.324  0.00  0.00    +0.000 A 
ATOM     25  C   UNL     1       6.198   5.551  15.674  0.00  0.00    +0.000 A 
ATOM     26  N   UNL     1       6.922   6.429  16.435  0.00  0.00    +0.000 NA
ATOM     27  N   UNL     1       6.244   6.668  17.549  0.00  0.00    +0.000 NA
BRANCH  25  28
ATOM     28  C   UNL     1       6.722   5.037  14.383  0.00  0.00    +0.000 C 
BRANCH  28  29
ATOM     29  C   UNL     1       6.063   3.696  14.013  0.00  0.00    +0.000 C 
BRANCH  29  30
ATOM     30  N   UNL     1       6.171   3.329  12.585  0.00  0.00    +0.000 NA
ATOM     31  C   UNL     1       4.875   3.391  11.905  0.00  0.00    +0.000 C 
ATOM     32  C   UNL     1       7.115   4.232  11.917  0.00  0.00    +0.000 C 
ENDBRANCH  29  30
ENDBRANCH  28  29
ENDBRANCH  25  28
ENDBRANCH   1  23
TORSDOF 9
ENDMDL
MODEL 3
REMARK VINA RESULT:      -7.7      1.428      1.785
REMARK  Name = 
REMARK  12 active torsions:
REMARK  status: ('A' for Active; 'I' for Inactive)
REMARK    1  A    between atoms: C_1  and  C_2
REMARK    2  A    between atoms: C_2  and  C_3
REMARK    3  A    between atoms: C_8  and  C_9
REMARK    4  A    between atoms: C_9  and  C_10
REMARK    5  A    between atoms: C_9  and  N_18
REMARK    6  A    between atoms: C_13  and  O_14
REMARK    7  A    between atoms: C_15  and  O_16
REMARK    8  A    between atoms: C_20  and  C_21
REMARK    9  A    between atoms: C_21  and  C_22
REMARK   10  A    between atoms: C_22  and  N_23
REMARK   11  A    between atoms: N_23  and  C_24
REMARK   12  A    between atoms: N_23  and  C_25
REMARK                            x       y       z     vdW  Elec       q    Type
REMARK                         _______ _______ _______ _____ _____    ______ ____
ROOT
ATOM      1  C   UNL     1       3.230   5.884  19.794  0.00  0.00    +0.000 C 
ENDROOT
BRANCH   1   7
ATOM      2  C   UNL     1       0.040  10.939  20.143  0.00  0.00    +0.000 A 
ATOM      3  C   UNL     1       0.252  11.074  18.760  0.00  0.00    +0.000 A 
ATOM      4  C   UNL     1       0.998  10.133  18.037  0.00  0.00    +0.000 A 
ATOM      5  C   UNL     1       1.533   9.030  18.720  0.00  0.00    +0.000 A 
ATOM      6  C   UNL     1       2.284   7.883  18.359  0.00  0.00    +0.000 A 
ATOM      7  C   UNL     1       2.501   7.165  19.520  0.00  0.00    +0.000 A 
ATOM      8  O   UNL     1       1.935   7.818  20.580  0.00  0.00    +0.000 OA
ATOM      9  C   UNL     1       1.332   8.938  20.091  0.00  0.00    +0.000 A 
ATOM     10  C   UNL     1       0.601   9.856  20.841  0.00  0.00    +0.000 A 
BRANCH   2  12
ATOM     11  C   UNL     1      -1.109  11.473  22.294  0.00  0.00    +0.000 C 
ATOM     12  C   UNL     1      -0.852  11.920  20.862  0.00  0.00    +0.000 C 
ENDBRANCH   2  12
ENDBRANCH   1   7
BRANCH   1  13
ATOM     13  C   UNL     1       2.386   4.648  19.485  0.00  0.00    +0.000 A 
ATOM     14  C   UNL     1       1.290   4.256  20.280  0.00  0.00    +0.000 A 
ATOM     15  C   UNL     1       0.551   3.107  19.980  0.00  0.00    +0.000 A 
ATOM     16  C   UNL     1       0.920   2.331  18.893  0.00  0.00    +0.000 A 
ATOM     17  C   UNL     1       2.012   2.690  18.112  0.00  0.00    +0.000 A 
ATOM     18  C   UNL     1       2.745   3.834  18.395  0.00  0.00    +0.000 A 
BRANCH  16  19
ATOM     19  O   UNL     1       0.238   1.196  18.552  0.00  0.00    +0.000 OA
ATOM     20  H   UNL     1       0.800   0.432  18.767  0.00  0.00    +0.000 HD
ENDBRANCH  16  19
BRANCH  17  21
ATOM     21  O   UNL     1       2.379   1.912  17.052  0.00  0.00    +0.000 OA
ATOM     22  H   UNL     1       1.558   1.808  16.531  0.00  0.00    +0.000 HD
ENDBRANCH  17  21
ENDBRANCH   1  13
BRANCH   1  23
ATOM     23  N   UNL     1       4.552   5.841  19.153  0.00  0.00    +0.000 N 
ATOM     24  C   UNL     1       4.964   6.357  17.954  0.00  0.00    +0.000 A 
ATOM     25  C   UNL     1       6.253   5.899  17.811  0.00  0.00    +0.000 A 
ATOM     26  N   UNL     1       6.599   5.178  18.922  0.00  0.00    +0.000 NA
ATOM     27  N   UNL     1       5.559   5.155  19.742  0.00  0.00    +0.000 NA
BRANCH  25  28
ATOM     28  C   UNL     1       7.192   6.059  16.672  0.00  0.00    +0.000 C 
BRANCH  28  29
ATOM     29  C   UNL     1       7.147   4.834  15.741  0.00  0.00    +0.000 C 
BRANCH  29  30
ATOM     30  N   UNL     1       6.636   5.110  14.383  0.00  0.00    +0.000 NA
ATOM     31  C   UNL     1       7.707   5.098  13.382  0.00  0.00    +0.000 C 
ATOM     32  C   UNL     1       5.626   4.107  14.026  0.00  0.00    +0.000 C 
ENDBRANCH  29  30
ENDBRANCH  28  29
ENDBRANCH  25  28
ENDBRANCH   1  23
TORSDOF 9
ENDMDL
MODEL 4
REMARK VINA RESULT:      -7.5      0.960      1.017
REMARK  Name = 
REMARK  12 active torsions:
REMARK  status: ('A' for Active; 'I' for Inactive)
REMARK    1  A    between atoms: C_1  and  C_2
REMARK    2  A    between atoms: C_2  and  C_3
REMARK    3  A    between atoms: C_8  and  C_9
REMARK    4  A    between atoms: C_9  and  C_10
REMARK    5  A    between atoms: C_9  and  N_18
REMARK    6  A    between atoms: C_13  and  O_14
REMARK    7  A    between atoms: C_15  and  O_16
REMARK    8  A    between atoms: C_20  and  C_21
REMARK    9  A    between atoms: C_21  and  C_22
REMARK   10  A    between atoms: C_22  and  N_23
REMARK   11  A    between atoms: N_23  and  C_24
REMARK   12  A    between atoms: N_23  and  C_25
REMARK                            x       y       z     vdW  Elec       q    Type
REMARK                         _______ _______ _______ _____ _____    ______ ____
ROOT
ATOM      1  C   UNL     1       3.713   6.109  18.695  0.00  0.00    +0.000 C 
ENDROOT
BRANCH   1   7
ATOM      2  C   UNL     1      -0.035  10.552  20.130  0.00  0.00    +0.000 A 
ATOM      3  C   UNL     1       0.096  10.986  18.800  0.00  0.00    +0.000 A 
ATOM      4  C   UNL     1       0.916  10.309  17.886  0.00  0.00    +0.000 A 
ATOM      5  C   UNL     1       1.608   9.169  18.320  0.00  0.00    +0.000 A 
ATOM      6  C   UNL     1       2.472   8.219  17.717  0.00  0.00    +0.000 A 
ATOM      7  C   UNL     1       2.826   7.318  18.702  0.00  0.00    +0.000 A 
ATOM      8  O   UNL     1       2.235   7.670  19.885  0.00  0.00    +0.000 OA
ATOM      9  C   UNL     1       1.481   8.780  19.647  0.00  0.00    +0.000 A 
ATOM     10  C   UNL     1       0.682   9.431  20.582  0.00  0.00    +0.000 A 
BRANCH   2  12
ATOM     11  C   UNL     1      -1.874  12.235  20.282  0.00  0.00    +0.000 C 
ATOM     12  C   UNL     1      -1.004  11.251  21.052  0.00  0.00    +0.000 C 
ENDBRANCH   2  12
ENDBRANCH   1   7
BRANCH   1  13
ATOM     13  C   UNL     1       2.932   4.804  18.831  0.00  0.00    +0.000 A 
ATOM     14  C   UNL     1       2.056   4.332  17.833  0.00  0.00    +0.000 A 
ATOM     15  C   UNL     1       1.340   3.142  17.999  0.00  0.00    +0.000 A 
ATOM     16  C   UNL     1       1.481   2.428  19.178  0.00  0.00    +0.000 A 
ATOM     17  C   UNL     1       2.322   2.890  20.183  0.00  0.00    +0.000 A 
ATOM     18  C   UNL     1       3.045   4.065  20.023  0.00  0.00    +0.000 A 
BRANCH  16  19
ATOM     19  O   UNL     1       0.805   1.259  19.400  0.00  0.00    +0.000 OA
ATOM     20  H   UNL     1       0.418   0.972  18.555  0.00  0.00    +0.000 HD
ENDBRANCH  16  19
BRANCH  17  21
ATOM     21  O   UNL     1       2.444   2.190  21.349  0.00  0.00    +0.000 OA
ATOM     22  H   UNL     1       3.159   2.647  21.834  0.00  0.00    +0.000 HD
ENDBRANCH  17  21
ENDBRANCH   1  13
BRANCH   1  23
ATOM     23  N   UNL     1       4.639   6.099  17.554  0.00  0.00    +0.000 N 
ATOM     24  C   UNL     1       4.801   5.170  16.562  0.00  0.00    +0.000 A 
ATOM     25  C   UNL     1       5.893   5.613  15.854  0.00  0.00    +0.000 A 
ATOM     26  N   UNL     1       6.325   6.797  16.389  0.00  0.00    +0.000 NA
ATOM     27  N   UNL     1       5.548   7.093  17.422  0.00  0.00    +0.000 NA
BRANCH  25  28
ATOM     28  C   UNL     1       6.601   4.980  14.712  0.00  0.00    +0.000 C 
BRANCH  28  29
ATOM     29  C   UNL     1       5.639   4.124  13.871  0.00  0.00    +0.000 C 
BRANCH  29  30
ATOM     30  N   UNL     1       6.276   3.402  12.749  0.00  0.00    +0.000 NA
ATOM     31  C   UNL     1       5.287   2.895  11.794  0.00  0.00    +0.000 C 
ATOM     32  C   UNL     1       7.209   4.297  12.057  0.00  0.00    +0.000 C 
ENDBRANCH  29  30
ENDBRANCH  28  29
ENDBRANCH  25  28
ENDBRANCH   1  23
TORSDOF 9
ENDMDL
MODEL 5
REMARK VINA RESULT:      -7.4      4.009      6.223
REMARK  Name = 
REMARK  12 active torsions:
REMARK  status: ('A' for Active; 'I' for Inactive)
REMARK    1  A    between atoms: C_1  and  C_2
REMARK    2  A    between atoms: C_2  and  C_3
REMARK    3  A    between atoms: C_8  and  C_9
REMARK    4  A    between atoms: C_9  and  C_10
REMARK    5  A    between atoms: C_9  and  N_18
REMARK    6  A    between atoms: C_13  and  O_14
REMARK    7  A    between atoms: C_15  and  O_16
REMARK    8  A    between atoms: C_20  and  C_21
REMARK    9  A    between atoms: C_21  and  C_22
REMARK   10  A    between atoms: C_22  and  N_23
REMARK   11  A    between atoms: N_23  and  C_24
REMARK   12  A    between atoms: N_23  and  C_25
REMARK                            x       y       z     vdW  Elec       q    Type
REMARK                         _______ _______ _______ _____ _____    ______ ____
ROOT
ATOM      1  C   UNL     1       6.748   5.244  17.600  0.00  0.00    +0.000 C 
ENDROOT
BRANCH   1   7
ATOM      2  C   UNL     1       1.587   6.161  20.495  0.00  0.00    +0.000 A 
ATOM      3  C   UNL     1       1.640   4.804  20.856  0.00  0.00    +0.000 A 
ATOM      4  C   UNL     1       2.693   3.975  20.441  0.00  0.00    +0.000 A 
ATOM      5  C   UNL     1       3.713   4.529  19.653  0.00  0.00    +0.000 A 
ATOM      6  C   UNL     1       4.923   4.054  19.085  0.00  0.00    +0.000 A 
ATOM      7  C   UNL     1       5.489   5.115  18.406  0.00  0.00    +0.000 A 
ATOM      8  O   UNL     1       4.685   6.217  18.515  0.00  0.00    +0.000 OA
ATOM      9  C   UNL     1       3.619   5.865  19.288  0.00  0.00    +0.000 A 
ATOM     10  C   UNL     1       2.587   6.715  19.677  0.00  0.00    +0.000 A 
BRANCH   2  12
ATOM     11  C   UNL     1       1.019   8.430  21.370  0.00  0.00    +0.000 C 
ATOM     12  C   UNL     1       0.491   7.039  21.046  0.00  0.00    +0.000 C 
ENDBRANCH   2  12
ENDBRANCH   1   7
BRANCH   1  13
ATOM     13  C   UNL     1       6.565   4.802  16.149  0.00  0.00    +0.000 A 
ATOM     14  C   UNL     1       5.617   3.833  15.761  0.00  0.00    +0.000 A 
ATOM     15  C   UNL     1       5.491   3.437  14.425  0.00  0.00    +0.000 A 
ATOM     16  C   UNL     1       6.330   3.994  13.473  0.00  0.00    +0.000 A 
ATOM     17  C   UNL     1       7.286   4.933  13.842  0.00  0.00    +0.000 A 
ATOM     18  C   UNL     1       7.412   5.341  15.163  0.00  0.00    +0.000 A 
BRANCH  16  19
ATOM     19  O   UNL     1       6.255   3.645  12.153  0.00  0.00    +0.000 OA
ATOM     20  H   UNL     1       7.062   3.962  11.712  0.00  0.00    +0.000 HD
ENDBRANCH  16  19
BRANCH  17  21
ATOM     21  O   UNL     1       8.119   5.466  12.901  0.00  0.00    +0.000 OA
ATOM     22  H   UNL     1       8.361   6.343  13.259  0.00  0.00    +0.000 HD
ENDBRANCH  17  21
ENDBRANCH   1  13
BRANCH   1  23
ATOM     23  N   UNL     1       7.354   6.578  17.715  0.00  0.00    +0.000 N 
ATOM     24  C   UNL     1       8.226   7.069  18.648  0.00  0.00    +0.000 A 
ATOM     25  C   UNL     1       8.343   8.404  18.337  0.00  0.00    +0.000 A 
ATOM     26  N   UNL     1       7.598   8.671  17.220  0.00  0.00    +0.000 NA
ATOM     27  N   UNL     1       7.004   7.548  16.840  0.00  0.00    +0.000 NA
BRANCH  25  28
ATOM     28  C   UNL     1       9.086   9.478  19.042  0.00  0.00    +0.000 C 
BRANCH  28  29
ATOM     29  C   UNL     1       9.117  10.770  18.207  0.00  0.00    +0.000 C 
BRANCH  29  30
ATOM     30  N   UNL     1      10.037  11.810  18.714  0.00  0.00    +0.000 NA
ATOM     31  C   UNL     1      11.213  11.966  17.855  0.00  0.00    +0.000 C 
ATOM     32  C   UNL     1       9.326  13.091  18.803  0.00  0.00    +0.000 C 
ENDBRANCH  29  30
ENDBRANCH  28  29
ENDBRANCH  25  28
ENDBRANCH   1  23
TORSDOF 9
ENDMDL
MODEL 6
REMARK VINA RESULT:      -7.4      3.995      6.885
REMARK  Name = 
REMARK  12 active torsions:
REMARK  status: ('A' for Active; 'I' for Inactive)
REMARK    1  A    between atoms: C_1  and  C_2
REMARK    2  A    between atoms: C_2  and  C_3
REMARK    3  A    between atoms: C_8  and  C_9
REMARK    4  A    between atoms: C_9  and  C_10
REMARK    5  A    between atoms: C_9  and  N_18
REMARK    6  A    between atoms: C_13  and  O_14
REMARK    7  A    between atoms: C_15  and  O_16
REMARK    8  A    between atoms: C_20  and  C_21
REMARK    9  A    between atoms: C_21  and  C_22
REMARK   10  A    between atoms: C_22  and  N_23
REMARK   11  A    between atoms: N_23  and  C_24
REMARK   12  A    between atoms: N_23  and  C_25
REMARK                            x       y       z     vdW  Elec       q    Type
REMARK                         _______ _______ _______ _____ _____    ______ ____
ROOT
ATOM      1  C   UNL     1       6.594   4.722  17.000  0.00  0.00    +0.000 C 
ENDROOT
BRANCH   1   7
ATOM      2  C   UNL     1       1.629   3.428  20.086  0.00  0.00    +0.000 A 
ATOM      3  C   UNL     1       0.919   3.704  18.906  0.00  0.00    +0.000 A 
ATOM      4  C   UNL     1       1.574   4.102  17.732  0.00  0.00    +0.000 A 
ATOM      5  C   UNL     1       2.972   4.216  17.748  0.00  0.00    +0.000 A 
ATOM      6  C   UNL     1       3.972   4.541  16.796  0.00  0.00    +0.000 A 
ATOM      7  C   UNL     1       5.186   4.477  17.453  0.00  0.00    +0.000 A 
ATOM      8  O   UNL     1       4.985   4.142  18.764  0.00  0.00    +0.000 OA
ATOM      9  C   UNL     1       3.645   3.965  18.936  0.00  0.00    +0.000 A 
ATOM     10  C   UNL     1       3.027   3.574  20.121  0.00  0.00    +0.000 A 
BRANCH   2  12
ATOM     11  C   UNL     1       1.834   2.132  22.211  0.00  0.00    +0.000 C 
ATOM     12  C   UNL     1       0.894   2.906  21.296  0.00  0.00    +0.000 C 
ENDBRANCH   2  12
ENDBRANCH   1   7
BRANCH   1  13
ATOM     13  C   UNL     1       6.751   4.621  15.484  0.00  0.00    +0.000 A 
ATOM     14  C   UNL     1       5.996   3.728  14.697  0.00  0.00    +0.000 A 
ATOM     15  C   UNL     1       6.180   3.647  13.312  0.00  0.00    +0.000 A 
ATOM     16  C   UNL     1       7.138   4.447  12.710  0.00  0.00    +0.000 A 
ATOM     17  C   UNL     1       7.908   5.316  13.474  0.00  0.00    +0.000 A 
ATOM     18  C   UNL     1       7.726   5.411  14.847  0.00  0.00    +0.000 A 
BRANCH  16  19
ATOM     19  O   UNL     1       7.366   4.411  11.362  0.00  0.00    +0.000 OA
ATOM     20  H   UNL     1       6.521   4.578  10.911  0.00  0.00    +0.000 HD
ENDBRANCH  16  19
BRANCH  17  21
ATOM     21  O   UNL     1       8.862   6.089  12.876  0.00  0.00    +0.000 OA
ATOM     22  H   UNL     1       8.715   5.958  11.918  0.00  0.00    +0.000 HD
ENDBRANCH  17  21
ENDBRANCH   1  13
BRANCH   1  23
ATOM     23  N   UNL     1       7.151   5.967  17.546  0.00  0.00    +0.000 N 
ATOM     24  C   UNL     1       7.021   7.256  17.104  0.00  0.00    +0.000 A 
ATOM     25  C   UNL     1       7.862   7.982  17.915  0.00  0.00    +0.000 A 
ATOM     26  N   UNL     1       8.429   7.144  18.838  0.00  0.00    +0.000 NA
ATOM     27  N   UNL     1       7.982   5.917  18.612  0.00  0.00    +0.000 NA
BRANCH  25  28
ATOM     28  C   UNL     1       8.210   9.424  17.867  0.00  0.00    +0.000 C 
BRANCH  28  29
ATOM     29  C   UNL     1       9.169   9.801  19.010  0.00  0.00    +0.000 C 
BRANCH  29  30
ATOM     30  N   UNL     1       9.626  11.206  18.994  0.00  0.00    +0.000 NA
ATOM     31  C   UNL     1       8.959  11.987  17.950  0.00  0.00    +0.000 C 
ATOM     32  C   UNL     1       9.367  11.820  20.302  0.00  0.00    +0.000 C 
ENDBRANCH  29  30
ENDBRANCH  28  29
ENDBRANCH  25  28
ENDBRANCH   1  23
TORSDOF 9
ENDMDL
MODEL 7
REMARK VINA RESULT:      -7.4      3.217      5.346
REMARK  Name = 
REMARK  12 active torsions:
REMARK  status: ('A' for Active; 'I' for Inactive)
REMARK    1  A    between atoms: C_1  and  C_2
REMARK    2  A    between atoms: C_2  and  C_3
REMARK    3  A    between atoms: C_8  and  C_9
REMARK    4  A    between atoms: C_9  and  C_10
REMARK    5  A    between atoms: C_9  and  N_18
REMARK    6  A    between atoms: C_13  and  O_14
REMARK    7  A    between atoms: C_15  and  O_16
REMARK    8  A    between atoms: C_20  and  C_21
REMARK    9  A    between atoms: C_21  and  C_22
REMARK   10  A    between atoms: C_22  and  N_23
REMARK   11  A    between atoms: N_23  and  C_24
REMARK   12  A    between atoms: N_23  and  C_25
REMARK                            x       y       z     vdW  Elec       q    Type
REMARK                         _______ _______ _______ _____ _____    ______ ____
ROOT
ATOM      1  C   UNL     1       3.352   6.354  17.501  0.00  0.00    +0.000 C 
ENDROOT
BRANCH   1   7
ATOM      2  C   UNL     1       0.381   9.674  21.501  0.00  0.00    +0.000 A 
ATOM      3  C   UNL     1       0.147  10.583  20.455  0.00  0.00    +0.000 A 
ATOM      4  C   UNL     1       0.640  10.355  19.161  0.00  0.00    +0.000 A 
ATOM      5  C   UNL     1       1.373   9.184  18.918  0.00  0.00    +0.000 A 
ATOM      6  C   UNL     1       1.984   8.590  17.784  0.00  0.00    +0.000 A 
ATOM      7  C   UNL     1       2.561   7.410  18.213  0.00  0.00    +0.000 A 
ATOM      8  O   UNL     1       2.349   7.252  19.556  0.00  0.00    +0.000 OA
ATOM      9  C   UNL     1       1.612   8.318  19.977  0.00  0.00    +0.000 A 
ATOM     10  C   UNL     1       1.144   8.516  21.274  0.00  0.00    +0.000 A 
BRANCH   2  12
ATOM     11  C   UNL     1      -0.998  11.237  22.877  0.00  0.00    +0.000 C 
ATOM     12  C   UNL     1      -0.252   9.910  22.850  0.00  0.00    +0.000 C 
ENDBRANCH   2  12
ENDBRANCH   1   7
BRANCH   1  13
ATOM     13  C   UNL     1       4.812   6.310  17.948  0.00  0.00    +0.000 A 
ATOM     14  C   UNL     1       5.262   5.490  19.003  0.00  0.00    +0.000 A 
ATOM     15  C   UNL     1       6.603   5.490  19.400  0.00  0.00    +0.000 A 
ATOM     16  C   UNL     1       7.499   6.328  18.756  0.00  0.00    +0.000 A 
ATOM     17  C   UNL     1       7.068   7.160  17.729  0.00  0.00    +0.000 A 
ATOM     18  C   UNL     1       5.742   7.160  17.321  0.00  0.00    +0.000 A 
BRANCH  16  19
ATOM     19  O   UNL     1       8.821   6.374  19.101  0.00  0.00    +0.000 OA
ATOM     20  H   UNL     1       8.933   5.871  19.926  0.00  0.00    +0.000 HD
ENDBRANCH  16  19
BRANCH  17  21
ATOM     21  O   UNL     1       7.953   7.995  17.110  0.00  0.00    +0.000 OA
ATOM     22  H   UNL     1       7.440   8.809  16.937  0.00  0.00    +0.000 HD
ENDBRANCH  17  21
ENDBRANCH   1  13
BRANCH   1  23
ATOM     23  N   UNL     1       2.704   5.036  17.551  0.00  0.00    +0.000 N 
ATOM     24  C   UNL     1       1.719   4.573  18.381  0.00  0.00    +0.000 A 
ATOM     25  C   UNL     1       1.605   3.239  18.065  0.00  0.00    +0.000 A 
ATOM     26  N   UNL     1       2.466   2.946  17.041  0.00  0.00    +0.000 NA
ATOM     27  N   UNL     1       3.127   4.051  16.726  0.00  0.00    +0.000 NA
BRANCH  25  28
ATOM     28  C   UNL     1       0.760   2.189  18.686  0.00  0.00    +0.000 C 
BRANCH  28  29
ATOM     29  C   UNL     1       1.347   1.730  20.032  0.00  0.00    +0.000 C 
BRANCH  29  30
ATOM     30  N   UNL     1       2.280   2.690  20.658  0.00  0.00    +0.000 NA
ATOM     31  C   UNL     1       1.927   2.964  22.054  0.00  0.00    +0.000 C 
ATOM     32  C   UNL     1       3.645   2.158  20.597  0.00  0.00    +0.000 C 
ENDBRANCH  29  30
ENDBRANCH  28  29
ENDBRANCH  25  28
ENDBRANCH   1  23
TORSDOF 9
ENDMDL
MODEL 8
REMARK VINA RESULT:      -7.4      5.106      7.931
REMARK  Name = 
REMARK  12 active torsions:
REMARK  status: ('A' for Active; 'I' for Inactive)
REMARK    1  A    between atoms: C_1  and  C_2
REMARK    2  A    between atoms: C_2  and  C_3
REMARK    3  A    between atoms: C_8  and  C_9
REMARK    4  A    between atoms: C_9  and  C_10
REMARK    5  A    between atoms: C_9  and  N_18
REMARK    6  A    between atoms: C_13  and  O_14
REMARK    7  A    between atoms: C_15  and  O_16
REMARK    8  A    between atoms: C_20  and  C_21
REMARK    9  A    between atoms: C_21  and  C_22
REMARK   10  A    between atoms: C_22  and  N_23
REMARK   11  A    between atoms: N_23  and  C_24
REMARK   12  A    between atoms: N_23  and  C_25
REMARK                            x       y       z     vdW  Elec       q    Type
REMARK                         _______ _______ _______ _____ _____    ______ ____
ROOT
ATOM      1  C   UNL     1       0.319  10.473  19.880  0.00  0.00    +0.000 C 
ENDROOT
BRANCH   1   7
ATOM      2  C   UNL     1      -3.623  10.354  15.375  0.00  0.00    +0.000 A 
ATOM      3  C   UNL     1      -4.431  11.190  16.165  0.00  0.00    +0.000 A 
ATOM      4  C   UNL     1      -4.030  11.602  17.444  0.00  0.00    +0.000 A 
ATOM      5  C   UNL     1      -2.787  11.169  17.930  0.00  0.00    +0.000 A 
ATOM      6  C   UNL     1      -2.032  11.387  19.111  0.00  0.00    +0.000 A 
ATOM      7  C   UNL     1      -0.864  10.660  18.977  0.00  0.00    +0.000 A 
ATOM      8  O   UNL     1      -0.866   9.996  17.781  0.00  0.00    +0.000 OA
ATOM      9  C   UNL     1      -2.024  10.321  17.140  0.00  0.00    +0.000 A 
ATOM     10  C   UNL     1      -2.393   9.888  15.869  0.00  0.00    +0.000 A 
BRANCH   2  12
ATOM     11  C   UNL     1      -2.856   9.571  13.131  0.00  0.00    +0.000 C 
ATOM     12  C   UNL     1      -4.049  10.017  13.967  0.00  0.00    +0.000 C 
ENDBRANCH   2  12
ENDBRANCH   1   7
BRANCH   1  13
ATOM     13  C   UNL     1       1.212   9.312  19.448  0.00  0.00    +0.000 A 
ATOM     14  C   UNL     1       1.832   9.257  18.183  0.00  0.00    +0.000 A 
ATOM     15  C   UNL     1       2.627   8.168  17.812  0.00  0.00    +0.000 A 
ATOM     16  C   UNL     1       2.789   7.115  18.700  0.00  0.00    +0.000 A 
ATOM     17  C   UNL     1       2.165   7.142  19.942  0.00  0.00    +0.000 A 
ATOM     18  C   UNL     1       1.383   8.223  20.323  0.00  0.00    +0.000 A 
BRANCH  16  19
ATOM     19  O   UNL     1       3.552   6.023  18.393  0.00  0.00    +0.000 OA
ATOM     20  H   UNL     1       4.487   6.281  18.461  0.00  0.00    +0.000 HD
ENDBRANCH  16  19
BRANCH  17  21
ATOM     21  O   UNL     1       2.316   6.095  20.805  0.00  0.00    +0.000 OA
ATOM     22  H   UNL     1       3.178   5.702  20.562  0.00  0.00    +0.000 HD
ENDBRANCH  17  21
ENDBRANCH   1  13
BRANCH   1  23
ATOM     23  N   UNL     1       1.070  11.720  20.087  0.00  0.00    +0.000 N 
ATOM     24  C   UNL     1       1.478  12.660  19.181  0.00  0.00    +0.000 A 
ATOM     25  C   UNL     1       2.252  13.529  19.915  0.00  0.00    +0.000 A 
ATOM     26  N   UNL     1       2.252  13.131  21.225  0.00  0.00    +0.000 NA
ATOM     27  N   UNL     1       1.520  12.031  21.325  0.00  0.00    +0.000 NA
BRANCH  25  28
ATOM     28  C   UNL     1       3.037  14.706  19.466  0.00  0.00    +0.000 C 
BRANCH  28  29
ATOM     29  C   UNL     1       3.711  14.438  18.109  0.00  0.00    +0.000 C 
BRANCH  29  30
ATOM     30  N   UNL     1       4.821  15.356  17.779  0.00  0.00    +0.000 NA
ATOM     31  C   UNL     1       4.866  16.508  18.683  0.00  0.00    +0.000 C 
ATOM     32  C   UNL     1       6.095  14.630  17.852  0.00  0.00    +0.000 C 
ENDBRANCH  29  30
ENDBRANCH  28  29
ENDBRANCH  25  28
ENDBRANCH   1  23
TORSDOF 9
ENDMDL
MODEL 9
REMARK VINA RESULT:      -7.3      5.016      8.280
REMARK  Name = 
REMARK  12 active torsions:
REMARK  status: ('A' for Active; 'I' for Inactive)
REMARK    1  A    between atoms: C_1  and  C_2
REMARK    2  A    between atoms: C_2  and  C_3
REMARK    3  A    between atoms: C_8  and  C_9
REMARK    4  A    between atoms: C_9  and  C_10
REMARK    5  A    between atoms: C_9  and  N_18
REMARK    6  A    between atoms: C_13  and  O_14
REMARK    7  A    between atoms: C_15  and  O_16
REMARK    8  A    between atoms: C_20  and  C_21
REMARK    9  A    between atoms: C_21  and  C_22
REMARK   10  A    between atoms: C_22  and  N_23
REMARK   11  A    between atoms: N_23  and  C_24
REMARK   12  A    between atoms: N_23  and  C_25
REMARK                            x       y       z     vdW  Elec       q    Type
REMARK                         _______ _______ _______ _____ _____    ______ ____
ROOT
ATOM      1  C   UNL     1       0.415  10.378  19.807  0.00  0.00    +0.000 C 
ENDROOT
BRANCH   1   7
ATOM      2  C   UNL     1      -4.868  11.780  17.362  0.00  0.00    +0.000 A 
ATOM      3  C   UNL     1      -4.458  11.035  16.243  0.00  0.00    +0.000 A 
ATOM      4  C   UNL     1      -3.204  10.410  16.197  0.00  0.00    +0.000 A 
ATOM      5  C   UNL     1      -2.352  10.532  17.305  0.00  0.00    +0.000 A 
ATOM      6  C   UNL     1      -1.069  10.037  17.654  0.00  0.00    +0.000 A 
ATOM      7  C   UNL     1      -0.779  10.530  18.912  0.00  0.00    +0.000 A 
ATOM      8  O   UNL     1      -1.811  11.314  19.351  0.00  0.00    +0.000 OA
ATOM      9  C   UNL     1      -2.771  11.298  18.385  0.00  0.00    +0.000 A 
ATOM     10  C   UNL     1      -4.006  11.936  18.461  0.00  0.00    +0.000 A 
BRANCH   2  12
ATOM     11  C   UNL     1      -7.088  11.683  18.500  0.00  0.00    +0.000 C 
ATOM     12  C   UNL     1      -6.263  12.352  17.409  0.00  0.00    +0.000 C 
ENDBRANCH   2  12
ENDBRANCH   1   7
BRANCH   1  13
ATOM     13  C   UNL     1       1.309   9.207  19.401  0.00  0.00    +0.000 A 
ATOM     14  C   UNL     1       1.939   9.130  18.143  0.00  0.00    +0.000 A 
ATOM     15  C   UNL     1       2.735   8.033  17.796  0.00  0.00    +0.000 A 
ATOM     16  C   UNL     1       2.887   6.995  18.702  0.00  0.00    +0.000 A 
ATOM     17  C   UNL     1       2.254   7.044  19.939  0.00  0.00    +0.000 A 
ATOM     18  C   UNL     1       1.471   8.133  20.296  0.00  0.00    +0.000 A 
BRANCH  16  19
ATOM     19  O   UNL     1       3.650   5.896  18.420  0.00  0.00    +0.000 OA
ATOM     20  H   UNL     1       4.485   5.976  18.912  0.00  0.00    +0.000 HD
ENDBRANCH  16  19
BRANCH  17  21
ATOM     21  O   UNL     1       2.395   6.011  20.820  0.00  0.00    +0.000 OA
ATOM     22  H   UNL     1       1.763   6.216  21.538  0.00  0.00    +0.000 HD
ENDBRANCH  17  21
ENDBRANCH   1  13
BRANCH   1  23
ATOM     23  N   UNL     1       1.162  11.633  19.965  0.00  0.00    +0.000 N 
ATOM     24  C   UNL     1       1.666  12.482  19.017  0.00  0.00    +0.000 A 
ATOM     25  C   UNL     1       2.381  13.411  19.736  0.00  0.00    +0.000 A 
ATOM     26  N   UNL     1       2.255  13.139  21.072  0.00  0.00    +0.000 NA
ATOM     27  N   UNL     1       1.501  12.057  21.205  0.00  0.00    +0.000 NA
BRANCH  25  28
ATOM     28  C   UNL     1       3.221  14.536  19.254  0.00  0.00    +0.000 C 
BRANCH  28  29
ATOM     29  C   UNL     1       2.876  15.841  19.993  0.00  0.00    +0.000 C 
BRANCH  29  30
ATOM     30  N   UNL     1       2.923  17.057  19.154  0.00  0.00    +0.000 NA
ATOM     31  C   UNL     1       2.757  16.746  17.732  0.00  0.00    +0.000 C 
ATOM     32  C   UNL     1       1.867  17.984  19.576  0.00  0.00    +0.000 C 
ENDBRANCH  29  30
ENDBRANCH  28  29
ENDBRANCH  25  28
ENDBRANCH   1  23
TORSDOF 9
ENDMDL
