MODEL 1
REMARK VINA RESULT:      -7.5      0.000      0.000
REMARK  Name = 
REMARK  4 active torsions:
REMARK  status: ('A' for Active; 'I' for Inactive)
REMARK    1  A    between atoms: C_1  and  O_2
REMARK    2  A    between atoms: O_2  and  C_3
REMARK    3  A    between atoms: C_7  and  C_8
REMARK    4  A    between atoms: C_14  and  C_15
REMARK                            x       y       z     vdW  Elec       q    Type
REMARK                         _______ _______ _______ _____ _____    ______ ____
ROOT
ATOM      1  C   UNL     1       2.214   7.271  19.327  0.00  0.00    +0.000 A 
ATOM      2  N   UNL     1       2.249   8.213  18.355  0.00  0.00    +0.000 NA
ATOM      3  C   UNL     1       1.653   9.400  18.564  0.00  0.00    +0.000 A 
ATOM      4  N   UNL     1       1.709  10.349  17.553  0.00  0.00    +0.000 N 
ATOM      5  C   UNL     1       1.041   9.648  19.800  0.00  0.00    +0.000 A 
ATOM      6  N   UNL     1       0.431  10.810  20.244  0.00  0.00    +0.000 NA
ATOM      7  C   UNL     1       0.026  10.638  21.486  0.00  0.00    +0.000 A 
ATOM      8  S   UNL     1       0.305   9.081  22.161  0.00  0.00    +0.000 S 
ATOM      9  C   UNL     1       1.073   8.609  20.712  0.00  0.00    +0.000 A 
ATOM     10  N   UNL     1       1.630   7.400  20.536  0.00  0.00    +0.000 NA
ATOM     11  H   UNL     1       2.472  10.182  16.909  0.00  0.00    +0.000 HD
ATOM     12  H   UNL     1       1.569  11.301  17.878  0.00  0.00    +0.000 HD
ENDROOT
BRANCH   1  17
ATOM     13  C   UNL     1       4.977   4.662  19.045  0.00  0.00    +0.000 A 
ATOM     14  C   UNL     1       4.289   3.603  18.458  0.00  0.00    +0.000 A 
ATOM     15  C   UNL     1       2.933   3.717  18.168  0.00  0.00    +0.000 A 
ATOM     16  C   UNL     1       2.258   4.904  18.460  0.00  0.00    +0.000 A 
ATOM     17  C   UNL     1       2.921   6.001  19.046  0.00  0.00    +0.000 A 
ATOM     18  C   UNL     1       4.292   5.847  19.338  0.00  0.00    +0.000 A 
BRANCH  13  20
ATOM     19  C   UNL     1       7.194   5.511  19.005  0.00  0.00    +0.000 C 
ATOM     20  O   UNL     1       6.305   4.433  19.278  0.00  0.00    +0.000 OA
ENDBRANCH  13  20
ENDBRANCH   1  17
BRANCH   7  21
ATOM     21  C   UNL     1      -0.572  11.717  22.223  0.00  0.00    +0.000 A 
ATOM     22  C   UNL     1      -1.747  11.676  22.960  0.00  0.00    +0.000 A 
ATOM     23  C   UNL     1      -1.986  12.978  23.455  0.00  0.00    +0.000 A 
ATOM     24  C   UNL     1      -0.937  13.743  23.010  0.00  0.00    +0.000 A 
ATOM     25  O   UNL     1      -0.076  12.996  22.274  0.00  0.00    +0.000 OA
ENDBRANCH   7  21
TORSDOF 3
ENDMDL
MODEL 2
REMARK VINA RESULT:      -7.4      1.362      1.854
REMARK  Name = 
REMARK  4 active torsions:
REMARK  status: ('A' for Active; 'I' for Inactive)
REMARK    1  A    between atoms: C_1  and  O_2
REMARK    2  A    between atoms: O_2  and  C_3
REMARK    3  A    between atoms: C_7  and  C_8
REMARK    4  A    between atoms: C_14  and  C_15
REMARK                            x       y       z     vdW  Elec       q    Type
REMARK                         _______ _______ _______ _____ _____    ______ ____
ROOT
ATOM      1  C   UNL     1       1.890   7.527  19.663  0.00  0.00    +0.000 A 
ATOM      2  N   UNL     1       1.919   8.461  18.683  0.00  0.00    +0.000 NA
ATOM      3  C   UNL     1       1.319   9.647  18.885  0.00  0.00    +0.000 A 
ATOM      4  N   UNL     1       1.368  10.589  17.865  0.00  0.00    +0.000 N 
ATOM      5  C   UNL     1       0.709   9.903  20.120  0.00  0.00    +0.000 A 
ATOM      6  N   UNL     1       0.095  11.066  20.557  0.00  0.00    +0.000 NA
ATOM      7  C   UNL     1      -0.306  10.902  21.801  0.00  0.00    +0.000 A 
ATOM      8  S   UNL     1      -0.019   9.352  22.487  0.00  0.00    +0.000 S 
ATOM      9  C   UNL     1       0.747   8.871  21.040  0.00  0.00    +0.000 A 
ATOM     10  N   UNL     1       1.309   7.664  20.872  0.00  0.00    +0.000 NA
ATOM     11  H   UNL     1       2.130  10.420  17.221  0.00  0.00    +0.000 HD
ATOM     12  H   UNL     1       1.225  11.542  18.183  0.00  0.00    +0.000 HD
ENDROOT
BRANCH   1  17
ATOM     13  C   UNL     1       3.127   3.938  19.992  0.00  0.00    +0.000 A 
ATOM     14  C   UNL     1       4.000   3.853  18.911  0.00  0.00    +0.000 A 
ATOM     15  C   UNL     1       4.180   4.941  18.062  0.00  0.00    +0.000 A 
ATOM     16  C   UNL     1       3.487   6.129  18.301  0.00  0.00    +0.000 A 
ATOM     17  C   UNL     1       2.601   6.258  19.390  0.00  0.00    +0.000 A 
ATOM     18  C   UNL     1       2.434   5.132  20.223  0.00  0.00    +0.000 A 
BRANCH  13  20
ATOM     19  C   UNL     1       1.882   2.681  21.576  0.00  0.00    +0.000 C 
ATOM     20  O   UNL     1       3.039   2.807  20.756  0.00  0.00    +0.000 OA
ENDBRANCH  13  20
ENDBRANCH   1  17
BRANCH   7  21
ATOM     21  C   UNL     1      -0.906  11.985  22.531  0.00  0.00    +0.000 A 
ATOM     22  C   UNL     1      -2.195  12.035  23.042  0.00  0.00    +0.000 A 
ATOM     23  C   UNL     1      -2.375  13.311  23.621  0.00  0.00    +0.000 A 
ATOM     24  C   UNL     1      -1.183  13.969  23.449  0.00  0.00    +0.000 A 
ATOM     25  O   UNL     1      -0.289  13.181  22.802  0.00  0.00    +0.000 OA
ENDBRANCH   7  21
TORSDOF 3
ENDMDL
MODEL 3
REMARK VINA RESULT:      -7.3      1.178      2.073
REMARK  Name = 
REMARK  4 active torsions:
REMARK  status: ('A' for Active; 'I' for Inactive)
REMARK    1  A    between atoms: C_1  and  O_2
REMARK    2  A    between atoms: O_2  and  C_3
REMARK    3  A    between atoms: C_7  and  C_8
REMARK    4  A    between atoms: C_14  and  C_15
REMARK                            x       y       z     vdW  Elec       q    Type
REMARK                         _______ _______ _______ _____ _____    ______ ____
ROOT
ATOM      1  C   UNL     1       2.207   7.123  19.546  0.00  0.00    +0.000 A 
ATOM      2  N   UNL     1       2.239   8.002  18.516  0.00  0.00    +0.000 NA
ATOM      3  C   UNL     1       1.658   9.206  18.658  0.00  0.00    +0.000 A 
ATOM      4  N   UNL     1       1.710  10.090  17.588  0.00  0.00    +0.000 N 
ATOM      5  C   UNL     1       1.065   9.538  19.883  0.00  0.00    +0.000 A 
ATOM      6  N   UNL     1       0.473  10.733  20.262  0.00  0.00    +0.000 NA
ATOM      7  C   UNL     1       0.084  10.643  21.517  0.00  0.00    +0.000 A 
ATOM      8  S   UNL     1       0.355   9.129  22.285  0.00  0.00    +0.000 S 
ATOM      9  C   UNL     1       1.098   8.558  20.858  0.00  0.00    +0.000 A 
ATOM     10  N   UNL     1       1.641   7.335  20.751  0.00  0.00    +0.000 NA
ATOM     11  H   UNL     1       2.463   9.874  16.946  0.00  0.00    +0.000 HD
ATOM     12  H   UNL     1       1.584  11.061  17.855  0.00  0.00    +0.000 HD
ENDROOT
BRANCH   1  17
ATOM     13  C   UNL     1       2.814   3.401  19.006  0.00  0.00    +0.000 A 
ATOM     14  C   UNL     1       4.205   3.353  18.994  0.00  0.00    +0.000 A 
ATOM     15  C   UNL     1       4.952   4.517  19.143  0.00  0.00    +0.000 A 
ATOM     16  C   UNL     1       4.303   5.742  19.311  0.00  0.00    +0.000 A 
ATOM     17  C   UNL     1       2.896   5.831  19.336  0.00  0.00    +0.000 A 
ATOM     18  C   UNL     1       2.171   4.632  19.171  0.00  0.00    +0.000 A 
BRANCH  13  20
ATOM     19  C   UNL     1       0.769   2.211  18.798  0.00  0.00    +0.000 C 
ATOM     20  O   UNL     1       2.191   2.192  18.857  0.00  0.00    +0.000 OA
ENDBRANCH  13  20
ENDBRANCH   1  17
BRANCH   7  21
ATOM     21  C   UNL     1      -0.492  11.773  22.192  0.00  0.00    +0.000 A 
ATOM     22  C   UNL     1      -1.654  11.790  22.951  0.00  0.00    +0.000 A 
ATOM     23  C   UNL     1      -1.875  13.123  23.364  0.00  0.00    +0.000 A 
ATOM     24  C   UNL     1      -0.829  13.850  22.852  0.00  0.00    +0.000 A 
ATOM     25  O   UNL     1       0.013  13.049  22.151  0.00  0.00    +0.000 OA
ENDBRANCH   7  21
TORSDOF 3
ENDMDL
MODEL 4
REMARK VINA RESULT:      -7.3      1.161      1.296
REMARK  Name = 
REMARK  4 active torsions:
REMARK  status: ('A' for Active; 'I' for Inactive)
REMARK    1  A    between atoms: C_1  and  O_2
REMARK    2  A    between atoms: O_2  and  C_3
REMARK    3  A    between atoms: C_7  and  C_8
REMARK    4  A    between atoms: C_14  and  C_15
REMARK                            x       y       z     vdW  Elec       q    Type
REMARK                         _______ _______ _______ _____ _____    ______ ____
ROOT
ATOM      1  C   UNL     1       1.821   7.562  19.972  0.00  0.00    +0.000 A 
ATOM      2  N   UNL     1       1.840   8.460  18.960  0.00  0.00    +0.000 NA
ATOM      3  C   UNL     1       1.233   9.649  19.120  0.00  0.00    +0.000 A 
ATOM      4  N   UNL     1       1.272  10.553  18.068  0.00  0.00    +0.000 N 
ATOM      5  C   UNL     1       0.626   9.945  20.348  0.00  0.00    +0.000 A 
ATOM      6  N   UNL     1       0.006  11.119  20.745  0.00  0.00    +0.000 NA
ATOM      7  C   UNL     1      -0.389  10.998  21.996  0.00  0.00    +0.000 A 
ATOM      8  S   UNL     1      -0.090   9.475  22.736  0.00  0.00    +0.000 S 
ATOM      9  C   UNL     1       0.674   8.947  21.304  0.00  0.00    +0.000 A 
ATOM     10  N   UNL     1       1.243   7.738  21.178  0.00  0.00    +0.000 NA
ATOM     11  H   UNL     1       2.034  10.366  17.427  0.00  0.00    +0.000 HD
ATOM     12  H   UNL     1       1.125  11.517  18.352  0.00  0.00    +0.000 HD
ENDROOT
BRANCH   1  17
ATOM     13  C   UNL     1       4.233   4.984  18.538  0.00  0.00    +0.000 A 
ATOM     14  C   UNL     1       3.873   3.848  19.257  0.00  0.00    +0.000 A 
ATOM     15  C   UNL     1       2.868   3.910  20.217  0.00  0.00    +0.000 A 
ATOM     16  C   UNL     1       2.210   5.118  20.456  0.00  0.00    +0.000 A 
ATOM     17  C   UNL     1       2.539   6.288  19.743  0.00  0.00    +0.000 A 
ATOM     18  C   UNL     1       3.571   6.192  18.786  0.00  0.00    +0.000 A 
BRANCH  13  20
ATOM     19  C   UNL     1       4.898   4.032  16.467  0.00  0.00    +0.000 C 
ATOM     20  O   UNL     1       5.230   4.798  17.620  0.00  0.00    +0.000 OA
ENDBRANCH  13  20
ENDBRANCH   1  17
BRANCH   7  21
ATOM     21  C   UNL     1      -0.994  12.102  22.688  0.00  0.00    +0.000 A 
ATOM     22  C   UNL     1      -2.324  12.225  23.066  0.00  0.00    +0.000 A 
ATOM     23  C   UNL     1      -2.484  13.498  23.657  0.00  0.00    +0.000 A 
ATOM     24  C   UNL     1      -1.242  14.081  23.625  0.00  0.00    +0.000 A 
ATOM     25  O   UNL     1      -0.336  13.250  23.052  0.00  0.00    +0.000 OA
ENDBRANCH   7  21
TORSDOF 3
ENDMDL
MODEL 5
REMARK VINA RESULT:      -7.2      0.833      1.011
REMARK  Name = 
REMARK  4 active torsions:
REMARK  status: ('A' for Active; 'I' for Inactive)
REMARK    1  A    between atoms: C_1  and  O_2
REMARK    2  A    between atoms: O_2  and  C_3
REMARK    3  A    between atoms: C_7  and  C_8
REMARK    4  A    between atoms: C_14  and  C_15
REMARK                            x       y       z     vdW  Elec       q    Type
REMARK                         _______ _______ _______ _____ _____    ______ ____
ROOT
ATOM      1  C   UNL     1       2.168   7.064  19.745  0.00  0.00    +0.000 A 
ATOM      2  N   UNL     1       2.217   7.875  18.662  0.00  0.00    +0.000 NA
ATOM      3  C   UNL     1       1.655   9.095  18.725  0.00  0.00    +0.000 A 
ATOM      4  N   UNL     1       1.725   9.908  17.602  0.00  0.00    +0.000 N 
ATOM      5  C   UNL     1       1.063   9.513  19.924  0.00  0.00    +0.000 A 
ATOM      6  N   UNL     1       0.489  10.739  20.223  0.00  0.00    +0.000 NA
ATOM      7  C   UNL     1       0.094  10.735  21.480  0.00  0.00    +0.000 A 
ATOM      8  S   UNL     1       0.338   9.267  22.343  0.00  0.00    +0.000 S 
ATOM      9  C   UNL     1       1.077   8.596  20.959  0.00  0.00    +0.000 A 
ATOM     10  N   UNL     1       1.600   7.360  20.932  0.00  0.00    +0.000 NA
ATOM     11  H   UNL     1       2.476   9.641  16.978  0.00  0.00    +0.000 HD
ATOM     12  H   UNL     1       1.614  10.897  17.806  0.00  0.00    +0.000 HD
ENDROOT
BRANCH   1  17
ATOM     13  C   UNL     1       4.857   4.418  19.213  0.00  0.00    +0.000 A 
ATOM     14  C   UNL     1       4.111   3.248  19.322  0.00  0.00    +0.000 A 
ATOM     15  C   UNL     1       2.745   3.305  19.584  0.00  0.00    +0.000 A 
ATOM     16  C   UNL     1       2.118   4.544  19.732  0.00  0.00    +0.000 A 
ATOM     17  C   UNL     1       2.837   5.750  19.620  0.00  0.00    +0.000 A 
ATOM     18  C   UNL     1       4.221   5.655  19.365  0.00  0.00    +0.000 A 
BRANCH  13  20
ATOM     19  C   UNL     1       6.651   4.680  17.679  0.00  0.00    +0.000 C 
ATOM     20  O   UNL     1       6.187   4.235  18.949  0.00  0.00    +0.000 OA
ENDBRANCH  13  20
ENDBRANCH   1  17
BRANCH   7  21
ATOM     21  C   UNL     1      -0.467  11.914  22.080  0.00  0.00    +0.000 A 
ATOM     22  C   UNL     1      -0.097  13.230  21.842  0.00  0.00    +0.000 A 
ATOM     23  C   UNL     1      -0.866  14.051  22.698  0.00  0.00    +0.000 A 
ATOM     24  C   UNL     1      -1.677  13.197  23.403  0.00  0.00    +0.000 A 
ATOM     25  O   UNL     1      -1.453  11.910  23.036  0.00  0.00    +0.000 OA
ENDBRANCH   7  21
TORSDOF 3
ENDMDL
MODEL 6
REMARK VINA RESULT:      -7.2      2.444      8.441
REMARK  Name = 
REMARK  4 active torsions:
REMARK  status: ('A' for Active; 'I' for Inactive)
REMARK    1  A    between atoms: C_1  and  O_2
REMARK    2  A    between atoms: O_2  and  C_3
REMARK    3  A    between atoms: C_7  and  C_8
REMARK    4  A    between atoms: C_14  and  C_15
REMARK                            x       y       z     vdW  Elec       q    Type
REMARK                         _______ _______ _______ _____ _____    ______ ____
ROOT
ATOM      1  C   UNL     1       1.289   8.142  20.449  0.00  0.00    +0.000 A 
ATOM      2  N   UNL     1       1.412   6.954  21.086  0.00  0.00    +0.000 NA
ATOM      3  C   UNL     1       2.137   5.973  20.518  0.00  0.00    +0.000 A 
ATOM      4  N   UNL     1       2.251   4.766  21.194  0.00  0.00    +0.000 N 
ATOM      5  C   UNL     1       2.779   6.218  19.297  0.00  0.00    +0.000 A 
ATOM      6  N   UNL     1       3.615   5.380  18.577  0.00  0.00    +0.000 NA
ATOM      7  C   UNL     1       4.046   6.015  17.506  0.00  0.00    +0.000 A 
ATOM      8  S   UNL     1       3.440   7.609  17.281  0.00  0.00    +0.000 S 
ATOM      9  C   UNL     1       2.579   7.471  18.747  0.00  0.00    +0.000 A 
ATOM     10  N   UNL     1       1.843   8.468  19.263  0.00  0.00    +0.000 NA
ATOM     11  H   UNL     1       2.068   4.861  22.186  0.00  0.00    +0.000 HD
ATOM     12  H   UNL     1       3.058   4.217  20.916  0.00  0.00    +0.000 HD
ENDROOT
BRANCH   1  17
ATOM     13  C   UNL     1      -0.633  11.361  21.130  0.00  0.00    +0.000 A 
ATOM     14  C   UNL     1      -0.927  11.219  22.483  0.00  0.00    +0.000 A 
ATOM     15  C   UNL     1      -0.524  10.081  23.177  0.00  0.00    +0.000 A 
ATOM     16  C   UNL     1       0.185   9.079  22.513  0.00  0.00    +0.000 A 
ATOM     17  C   UNL     1       0.510   9.189  21.146  0.00  0.00    +0.000 A 
ATOM     18  C   UNL     1       0.076  10.350  20.471  0.00  0.00    +0.000 A 
BRANCH  13  20
ATOM     19  C   UNL     1      -2.486  12.706  20.501  0.00  0.00    +0.000 C 
ATOM     20  O   UNL     1      -1.076  12.523  20.559  0.00  0.00    +0.000 OA
ENDBRANCH  13  20
ENDBRANCH   1  17
BRANCH   7  21
ATOM     21  C   UNL     1       4.997   5.404  16.619  0.00  0.00    +0.000 A 
ATOM     22  C   UNL     1       5.096   4.058  16.299  0.00  0.00    +0.000 A 
ATOM     23  C   UNL     1       6.213   3.902  15.447  0.00  0.00    +0.000 A 
ATOM     24  C   UNL     1       6.728   5.163  15.276  0.00  0.00    +0.000 A 
ATOM     25  O   UNL     1       6.002   6.076  15.969  0.00  0.00    +0.000 OA
ENDBRANCH   7  21
TORSDOF 3
ENDMDL
MODEL 7
REMARK VINA RESULT:      -7.2      2.768      3.575
REMARK  Name = 
REMARK  4 active torsions:
REMARK  status: ('A' for Active; 'I' for Inactive)
REMARK    1  A    between atoms: C_1  and  O_2
REMARK    2  A    between atoms: O_2  and  C_3
REMARK    3  A    between atoms: C_7  and  C_8
REMARK    4  A    between atoms: C_14  and  C_15
REMARK                            x       y       z     vdW  Elec       q    Type
REMARK                         _______ _______ _______ _____ _____    ______ ____
ROOT
ATOM      1  C   UNL     1       3.761   6.215  17.862  0.00  0.00    +0.000 A 
ATOM      2  N   UNL     1       3.409   5.664  19.047  0.00  0.00    +0.000 NA
ATOM      3  C   UNL     1       2.614   6.353  19.885  0.00  0.00    +0.000 A 
ATOM      4  N   UNL     1       2.264   5.762  21.092  0.00  0.00    +0.000 N 
ATOM      5  C   UNL     1       2.138   7.611  19.495  0.00  0.00    +0.000 A 
ATOM      6  N   UNL     1       1.268   8.454  20.169  0.00  0.00    +0.000 NA
ATOM      7  C   UNL     1       1.040   9.520  19.430  0.00  0.00    +0.000 A 
ATOM      8  S   UNL     1       1.884   9.595  17.934  0.00  0.00    +0.000 S 
ATOM      9  C   UNL     1       2.567   8.066  18.261  0.00  0.00    +0.000 A 
ATOM     10  N   UNL     1       3.381   7.427  17.406  0.00  0.00    +0.000 NA
ATOM     11  H   UNL     1       2.358   4.754  21.069  0.00  0.00    +0.000 HD
ATOM     12  H   UNL     1       1.419   6.145  21.504  0.00  0.00    +0.000 HD
ENDROOT
BRANCH   1  17
ATOM     13  C   UNL     1       6.490   5.181  15.412  0.00  0.00    +0.000 A 
ATOM     14  C   UNL     1       6.190   3.834  15.227  0.00  0.00    +0.000 A 
ATOM     15  C   UNL     1       5.122   3.250  15.902  0.00  0.00    +0.000 A 
ATOM     16  C   UNL     1       4.341   4.021  16.765  0.00  0.00    +0.000 A 
ATOM     17  C   UNL     1       4.608   5.389  16.972  0.00  0.00    +0.000 A 
ATOM     18  C   UNL     1       5.704   5.946  16.281  0.00  0.00    +0.000 A 
BRANCH  13  20
ATOM     19  C   UNL     1       7.695   5.139  13.366  0.00  0.00    +0.000 C 
ATOM     20  O   UNL     1       7.557   5.642  14.691  0.00  0.00    +0.000 OA
ENDBRANCH  13  20
ENDBRANCH   1  17
BRANCH   7  21
ATOM     21  C   UNL     1       0.106  10.526  19.856  0.00  0.00    +0.000 A 
ATOM     22  C   UNL     1       0.080  11.178  21.080  0.00  0.00    +0.000 A 
ATOM     23  C   UNL     1      -1.046  12.031  21.086  0.00  0.00    +0.000 A 
ATOM     24  C   UNL     1      -1.640  11.871  19.859  0.00  0.00    +0.000 A 
ATOM     25  O   UNL     1      -0.953  10.974  19.107  0.00  0.00    +0.000 OA
ENDBRANCH   7  21
TORSDOF 3
ENDMDL
MODEL 8
REMARK VINA RESULT:      -7.2      2.465      8.333
REMARK  Name = 
REMARK  4 active torsions:
REMARK  status: ('A' for Active; 'I' for Inactive)
REMARK    1  A    between atoms: C_1  and  O_2
REMARK    2  A    between atoms: O_2  and  C_3
REMARK    3  A    between atoms: C_7  and  C_8
REMARK    4  A    between atoms: C_14  and  C_15
REMARK                            x       y       z     vdW  Elec       q    Type
REMARK                         _______ _______ _______ _____ _____    ______ ____
ROOT
ATOM      1  C   UNL     1       1.301   8.205  20.530  0.00  0.00    +0.000 A 
ATOM      2  N   UNL     1       1.377   7.008  21.156  0.00  0.00    +0.000 NA
ATOM      3  C   UNL     1       2.046   5.999  20.570  0.00  0.00    +0.000 A 
ATOM      4  N   UNL     1       2.114   4.782  21.236  0.00  0.00    +0.000 N 
ATOM      5  C   UNL     1       2.680   6.222  19.341  0.00  0.00    +0.000 A 
ATOM      6  N   UNL     1       3.465   5.352  18.602  0.00  0.00    +0.000 NA
ATOM      7  C   UNL     1       3.909   5.974  17.529  0.00  0.00    +0.000 A 
ATOM      8  S   UNL     1       3.375   7.596  17.324  0.00  0.00    +0.000 S 
ATOM      9  C   UNL     1       2.531   7.488  18.803  0.00  0.00    +0.000 A 
ATOM     10  N   UNL     1       1.850   8.514  19.337  0.00  0.00    +0.000 NA
ATOM     11  H   UNL     1       1.951   4.878  22.231  0.00  0.00    +0.000 HD
ATOM     12  H   UNL     1       2.890   4.198  20.941  0.00  0.00    +0.000 HD
ENDROOT
BRANCH   1  17
ATOM     13  C   UNL     1      -0.093  11.634  21.434  0.00  0.00    +0.000 A 
ATOM     14  C   UNL     1      -0.738  11.355  22.636  0.00  0.00    +0.000 A 
ATOM     15  C   UNL     1      -0.741  10.062  23.151  0.00  0.00    +0.000 A 
ATOM     16  C   UNL     1      -0.089   9.039  22.461  0.00  0.00    +0.000 A 
ATOM     17  C   UNL     1       0.582   9.283  21.246  0.00  0.00    +0.000 A 
ATOM     18  C   UNL     1       0.556  10.602  20.747  0.00  0.00    +0.000 A 
BRANCH  13  20
ATOM     19  C   UNL     1       0.835  13.368  20.103  0.00  0.00    +0.000 C 
ATOM     20  O   UNL     1      -0.153  12.941  21.034  0.00  0.00    +0.000 OA
ENDBRANCH  13  20
ENDBRANCH   1  17
BRANCH   7  21
ATOM     21  C   UNL     1       4.816   5.326  16.623  0.00  0.00    +0.000 A 
ATOM     22  C   UNL     1       5.435   5.888  15.515  0.00  0.00    +0.000 A 
ATOM     23  C   UNL     1       6.183   4.870  14.882  0.00  0.00    +0.000 A 
ATOM     24  C   UNL     1       5.997   3.743  15.643  0.00  0.00    +0.000 A 
ATOM     25  O   UNL     1       5.183   4.005  16.697  0.00  0.00    +0.000 OA
ENDBRANCH   7  21
TORSDOF 3
ENDMDL
MODEL 9
REMARK VINA RESULT:      -7.2      1.463      1.938
REMARK  Name = 
REMARK  4 active torsions:
REMARK  status: ('A' for Active; 'I' for Inactive)
REMARK    1  A    between atoms: C_1  and  O_2
REMARK    2  A    between atoms: O_2  and  C_3
REMARK    3  A    between atoms: C_7  and  C_8
REMARK    4  A    between atoms: C_14  and  C_15
REMARK                            x       y       z     vdW  Elec       q    Type
REMARK                         _______ _______ _______ _____ _____    ______ ____
ROOT
ATOM      1  C   UNL     1       2.243   7.988  18.590  0.00  0.00    +0.000 A 
ATOM      2  N   UNL     1       2.488   9.122  17.892  0.00  0.00    +0.000 NA
ATOM      3  C   UNL     1       1.954  10.283  18.310  0.00  0.00    +0.000 A 
ATOM      4  N   UNL     1       2.226  11.431  17.578  0.00  0.00    +0.000 N 
ATOM      5  C   UNL     1       1.185  10.298  19.481  0.00  0.00    +0.000 A 
ATOM      6  N   UNL     1       0.600  11.382  20.117  0.00  0.00    +0.000 NA
ATOM      7  C   UNL     1       0.005  10.967  21.217  0.00  0.00    +0.000 A 
ATOM      8  S   UNL     1       0.070   9.275  21.517  0.00  0.00    +0.000 S 
ATOM      9  C   UNL     1       1.008   9.077  20.106  0.00  0.00    +0.000 A 
ATOM     10  N   UNL     1       1.497   7.892  19.710  0.00  0.00    +0.000 NA
ATOM     11  H   UNL     1       3.062  11.340  17.015  0.00  0.00    +0.000 HD
ATOM     12  H   UNL     1       2.107  12.290  18.108  0.00  0.00    +0.000 HD
ENDROOT
BRANCH   1  17
ATOM     13  C   UNL     1       2.903   4.314  17.828  0.00  0.00    +0.000 A 
ATOM     14  C   UNL     1       4.149   4.385  17.211  0.00  0.00    +0.000 A 
ATOM     15  C   UNL     1       4.773   5.615  17.022  0.00  0.00    +0.000 A 
ATOM     16  C   UNL     1       4.148   6.784  17.460  0.00  0.00    +0.000 A 
ATOM     17  C   UNL     1       2.891   6.753  18.097  0.00  0.00    +0.000 A 
ATOM     18  C   UNL     1       2.283   5.491  18.262  0.00  0.00    +0.000 A 
BRANCH  13  20
ATOM     19  C   UNL     1       3.338   1.986  18.005  0.00  0.00    +0.000 C 
ATOM     20  O   UNL     1       2.395   3.050  17.963  0.00  0.00    +0.000 OA
ENDBRANCH  13  20
ENDBRANCH   1  17
BRANCH   7  21
ATOM     21  C   UNL     1      -0.617  11.900  22.115  0.00  0.00    +0.000 A 
ATOM     22  C   UNL     1      -1.807  11.728  22.808  0.00  0.00    +0.000 A 
ATOM     23  C   UNL     1      -2.067  12.924  23.514  0.00  0.00    +0.000 A 
ATOM     24  C   UNL     1      -1.015  13.759  23.231  0.00  0.00    +0.000 A 
ATOM     25  O   UNL     1      -0.133  13.154  22.397  0.00  0.00    +0.000 OA
ENDBRANCH   7  21
TORSDOF 3
ENDMDL
