MODEL 1
REMARK VINA RESULT:      -8.1      0.000      0.000
REMARK  Name = 
REMARK  9 active torsions:
REMARK  status: ('A' for Active; 'I' for Inactive)
REMARK    1  A    between atoms: C_1  and  O_2
REMARK    2  A    between atoms: O_2  and  C_3
REMARK    3  A    between atoms: C_5  and  C_6
REMARK    4  A    between atoms: C_8  and  S_9
REMARK    5  A    between atoms: C_11  and  C_12
REMARK    6  A    between atoms: C_13  and  C_14
REMARK    7  A    between atoms: N_16  and  C_17
REMARK    8  A    between atoms: C_20  and  C_21
REMARK    9  A    between atoms: C_26  and  O_27
REMARK                            x       y       z     vdW  Elec       q    Type
REMARK                         _______ _______ _______ _____ _____    ______ ____
ROOT
ATOM      1  C   UNL     1       4.702   4.448  19.264  0.00  0.00    +0.000 C 
ATOM      2  N   UNL     1       5.185   3.217  19.872  0.00  0.00    +0.000 N 
ATOM      3  C   UNL     1       4.359   2.139  19.930  0.00  0.00    +0.000 C 
ATOM      4  N   UNL     1       3.084   2.147  19.744  0.00  0.00    +0.000 NA
ATOM      5  C   UNL     1       2.487   3.356  19.449  0.00  0.00    +0.000 C 
ATOM      6  C   UNL     1       0.981   3.260  19.416  0.00  0.00    +0.000 C 
ATOM      7  C   UNL     1       3.200   4.487  19.205  0.00  0.00    +0.000 C 
ATOM      8  H   UNL     1       6.163   3.018  19.712  0.00  0.00    +0.000 HD
ENDROOT
BRANCH   1  11
ATOM      9  C   UNL     1       6.921   5.872  16.463  0.00  0.00    +0.000 A 
ATOM     10  C   UNL     1       6.370   5.605  17.724  0.00  0.00    +0.000 A 
ATOM     11  C   UNL     1       5.395   4.608  17.915  0.00  0.00    +0.000 A 
ATOM     12  C   UNL     1       5.022   3.829  16.813  0.00  0.00    +0.000 A 
ATOM     13  C   UNL     1       5.592   4.057  15.558  0.00  0.00    +0.000 A 
ATOM     14  C   UNL     1       6.522   5.087  15.379  0.00  0.00    +0.000 A 
BRANCH   9  16
ATOM     15  C   UNL     1       7.739   7.827  17.575  0.00  0.00    +0.000 C 
ATOM     16  O   UNL     1       7.793   6.925  16.481  0.00  0.00    +0.000 OA
ENDBRANCH   9  16
BRANCH  14  17
ATOM     17  O   UNL     1       7.007   5.307  14.120  0.00  0.00    +0.000 OA
ATOM     18  H   UNL     1       6.378   5.849  13.617  0.00  0.00    +0.000 HD
ENDBRANCH  14  17
ENDBRANCH   1  11
BRANCH   7  19
ATOM     19  C   UNL     1       2.490   5.772  18.878  0.00  0.00    +0.000 C 
ATOM     20  O   UNL     1       1.978   5.932  17.772  0.00  0.00    +0.000 OA
ATOM     21  N   UNL     1       2.489   6.757  19.852  0.00  0.00    +0.000 N 
ATOM     22  H   UNL     1       3.063   6.650  20.669  0.00  0.00    +0.000 HD
BRANCH  21  23
ATOM     23  C   UNL     1       1.854   8.022  19.750  0.00  0.00    +0.000 A 
ATOM     24  C   UNL     1       1.875   8.806  18.597  0.00  0.00    +0.000 A 
ATOM     25  C   UNL     1       1.266  10.063  18.574  0.00  0.00    +0.000 A 
ATOM     26  C   UNL     1       0.615  10.556  19.707  0.00  0.00    +0.000 A 
ATOM     27  C   UNL     1      -0.002  11.922  19.700  0.00  0.00    +0.000 C 
ATOM     28  C   UNL     1       0.567   9.761  20.856  0.00  0.00    +0.000 A 
ATOM     29  C   UNL     1       1.168   8.497  20.872  0.00  0.00    +0.000 A 
ENDBRANCH  21  23
ENDBRANCH   7  19
BRANCH   3  30
ATOM     30  S   UNL     1       5.111   0.600  20.273  0.00  0.00    +0.000 S 
ATOM     31  H   UNL     1       5.256   0.754  21.591  0.00  0.00    +0.000 HD
ENDBRANCH   3  30
TORSDOF 6
ENDMDL
MODEL 2
REMARK VINA RESULT:      -7.3      0.842      1.815
REMARK  Name = 
REMARK  9 active torsions:
REMARK  status: ('A' for Active; 'I' for Inactive)
REMARK    1  A    between atoms: C_1  and  O_2
REMARK    2  A    between atoms: O_2  and  C_3
REMARK    3  A    between atoms: C_5  and  C_6
REMARK    4  A    between atoms: C_8  and  S_9
REMARK    5  A    between atoms: C_11  and  C_12
REMARK    6  A    between atoms: C_13  and  C_14
REMARK    7  A    between atoms: N_16  and  C_17
REMARK    8  A    between atoms: C_20  and  C_21
REMARK    9  A    between atoms: C_26  and  O_27
REMARK                            x       y       z     vdW  Elec       q    Type
REMARK                         _______ _______ _______ _____ _____    ______ ____
ROOT
ATOM      1  C   UNL     1       4.722   4.638  19.371  0.00  0.00    +0.000 C 
ATOM      2  N   UNL     1       5.123   3.308  19.807  0.00  0.00    +0.000 N 
ATOM      3  C   UNL     1       4.249   2.276  19.671  0.00  0.00    +0.000 C 
ATOM      4  N   UNL     1       2.986   2.375  19.439  0.00  0.00    +0.000 NA
ATOM      5  C   UNL     1       2.456   3.643  19.304  0.00  0.00    +0.000 C 
ATOM      6  C   UNL     1       0.951   3.627  19.198  0.00  0.00    +0.000 C 
ATOM      7  C   UNL     1       3.228   4.760  19.260  0.00  0.00    +0.000 C 
ATOM      8  H   UNL     1       6.098   3.086  19.659  0.00  0.00    +0.000 HD
ENDROOT
BRANCH   1  11
ATOM      9  C   UNL     1       6.145   4.327  15.811  0.00  0.00    +0.000 A 
ATOM     10  C   UNL     1       5.353   4.143  16.953  0.00  0.00    +0.000 A 
ATOM     11  C   UNL     1       5.484   4.960  18.090  0.00  0.00    +0.000 A 
ATOM     12  C   UNL     1       6.396   6.023  18.039  0.00  0.00    +0.000 A 
ATOM     13  C   UNL     1       7.163   6.243  16.893  0.00  0.00    +0.000 A 
ATOM     14  C   UNL     1       7.054   5.387  15.791  0.00  0.00    +0.000 A 
BRANCH   9  16
ATOM     15  C   UNL     1       5.540   3.817  13.552  0.00  0.00    +0.000 C 
ATOM     16  O   UNL     1       5.912   3.383  14.850  0.00  0.00    +0.000 OA
ENDBRANCH   9  16
BRANCH  14  17
ATOM     17  O   UNL     1       7.869   5.610  14.716  0.00  0.00    +0.000 OA
ATOM     18  H   UNL     1       7.942   4.799  14.189  0.00  0.00    +0.000 HD
ENDBRANCH  14  17
ENDBRANCH   1  11
BRANCH   7  19
ATOM     19  C   UNL     1       2.591   6.113  19.101  0.00  0.00    +0.000 C 
ATOM     20  O   UNL     1       2.393   6.575  17.979  0.00  0.00    +0.000 OA
ATOM     21  N   UNL     1       2.294   6.810  20.261  0.00  0.00    +0.000 N 
ATOM     22  H   UNL     1       2.627   6.471  21.145  0.00  0.00    +0.000 HD
BRANCH  21  23
ATOM     23  C   UNL     1       1.668   8.082  20.325  0.00  0.00    +0.000 A 
ATOM     24  C   UNL     1       1.506   8.919  19.221  0.00  0.00    +0.000 A 
ATOM     25  C   UNL     1       0.918  10.180  19.359  0.00  0.00    +0.000 A 
ATOM     26  C   UNL     1       0.474  10.623  20.606  0.00  0.00    +0.000 A 
ATOM     27  C   UNL     1      -0.117  11.991  20.765  0.00  0.00    +0.000 C 
ATOM     28  C   UNL     1       0.608   9.774  21.710  0.00  0.00    +0.000 A 
ATOM     29  C   UNL     1       1.186   8.508  21.567  0.00  0.00    +0.000 A 
ENDBRANCH  21  23
ENDBRANCH   7  19
BRANCH   3  30
ATOM     30  S   UNL     1       4.916   0.667  19.810  0.00  0.00    +0.000 S 
ATOM     31  H   UNL     1       5.227   0.483  18.525  0.00  0.00    +0.000 HD
ENDBRANCH   3  30
TORSDOF 6
ENDMDL
MODEL 3
REMARK VINA RESULT:      -6.7      5.061      9.406
REMARK  Name = 
REMARK  9 active torsions:
REMARK  status: ('A' for Active; 'I' for Inactive)
REMARK    1  A    between atoms: C_1  and  O_2
REMARK    2  A    between atoms: O_2  and  C_3
REMARK    3  A    between atoms: C_5  and  C_6
REMARK    4  A    between atoms: C_8  and  S_9
REMARK    5  A    between atoms: C_11  and  C_12
REMARK    6  A    between atoms: C_13  and  C_14
REMARK    7  A    between atoms: N_16  and  C_17
REMARK    8  A    between atoms: C_20  and  C_21
REMARK    9  A    between atoms: C_26  and  O_27
REMARK                            x       y       z     vdW  Elec       q    Type
REMARK                         _______ _______ _______ _____ _____    ______ ____
ROOT
ATOM      1  C   UNL     1      -1.233  10.833  19.322  0.00  0.00    +0.000 C 
ATOM      2  N   UNL     1      -1.860  11.870  20.128  0.00  0.00    +0.000 N 
ATOM      3  C   UNL     1      -1.230  13.066  20.274  0.00  0.00    +0.000 C 
ATOM      4  N   UNL     1       0.003  13.315  19.996  0.00  0.00    +0.000 NA
ATOM      5  C   UNL     1       0.768  12.281  19.494  0.00  0.00    +0.000 C 
ATOM      6  C   UNL     1       2.224  12.656  19.364  0.00  0.00    +0.000 C 
ATOM      7  C   UNL     1       0.241  11.077  19.148  0.00  0.00    +0.000 C 
ATOM      8  H   UNL     1      -2.868  11.904  20.070  0.00  0.00    +0.000 HD
ENDROOT
BRANCH   1  11
ATOM      9  C   UNL     1      -4.012  11.266  16.698  0.00  0.00    +0.000 A 
ATOM     10  C   UNL     1      -3.194  11.457  17.820  0.00  0.00    +0.000 A 
ATOM     11  C   UNL     1      -2.016  10.714  18.019  0.00  0.00    +0.000 A 
ATOM     12  C   UNL     1      -1.633   9.803  17.026  0.00  0.00    +0.000 A 
ATOM     13  C   UNL     1      -2.418   9.631  15.883  0.00  0.00    +0.000 A 
ATOM     14  C   UNL     1      -3.612  10.343  15.729  0.00  0.00    +0.000 A 
BRANCH   9  16
ATOM     15  C   UNL     1      -5.772  12.250  17.986  0.00  0.00    +0.000 C 
ATOM     16  O   UNL     1      -5.143  12.033  16.734  0.00  0.00    +0.000 OA
ENDBRANCH   9  16
BRANCH  14  17
ATOM     17  O   UNL     1      -4.373  10.096  14.620  0.00  0.00    +0.000 OA
ATOM     18  H   UNL     1      -4.772   9.213  14.689  0.00  0.00    +0.000 HD
ENDBRANCH  14  17
ENDBRANCH   1  11
BRANCH   7  19
ATOM     19  C   UNL     1       1.126   9.995  18.597  0.00  0.00    +0.000 C 
ATOM     20  O   UNL     1       1.562  10.077  17.450  0.00  0.00    +0.000 OA
ATOM     21  N   UNL     1       1.375   8.905  19.415  0.00  0.00    +0.000 N 
ATOM     22  H   UNL     1       0.863   8.799  20.272  0.00  0.00    +0.000 HD
BRANCH  21  23
ATOM     23  C   UNL     1       2.203   7.799  19.092  0.00  0.00    +0.000 A 
ATOM     24  C   UNL     1       3.008   7.744  17.954  0.00  0.00    +0.000 A 
ATOM     25  C   UNL     1       3.769   6.606  17.670  0.00  0.00    +0.000 A 
ATOM     26  C   UNL     1       3.744   5.504  18.528  0.00  0.00    +0.000 A 
ATOM     27  C   UNL     1       4.525   4.267  18.204  0.00  0.00    +0.000 C 
ATOM     28  C   UNL     1       2.961   5.568  19.685  0.00  0.00    +0.000 A 
ATOM     29  C   UNL     1       2.209   6.713  19.972  0.00  0.00    +0.000 A 
ENDBRANCH  21  23
ENDBRANCH   7  19
BRANCH   3  30
ATOM     30  S   UNL     1      -2.199  14.387  20.881  0.00  0.00    +0.000 S 
ATOM     31  H   UNL     1      -3.149  13.662  21.477  0.00  0.00    +0.000 HD
ENDBRANCH   3  30
TORSDOF 6
ENDMDL
MODEL 4
REMARK VINA RESULT:      -6.6      5.139      9.795
REMARK  Name = 
REMARK  9 active torsions:
REMARK  status: ('A' for Active; 'I' for Inactive)
REMARK    1  A    between atoms: C_1  and  O_2
REMARK    2  A    between atoms: O_2  and  C_3
REMARK    3  A    between atoms: C_5  and  C_6
REMARK    4  A    between atoms: C_8  and  S_9
REMARK    5  A    between atoms: C_11  and  C_12
REMARK    6  A    between atoms: C_13  and  C_14
REMARK    7  A    between atoms: N_16  and  C_17
REMARK    8  A    between atoms: C_20  and  C_21
REMARK    9  A    between atoms: C_26  and  O_27
REMARK                            x       y       z     vdW  Elec       q    Type
REMARK                         _______ _______ _______ _____ _____    ______ ____
ROOT
ATOM      1  C   UNL     1      -0.996  12.090  19.801  0.00  0.00    +0.000 C 
ATOM      2  N   UNL     1      -0.969  13.488  20.207  0.00  0.00    +0.000 N 
ATOM      3  C   UNL     1      -0.097  14.336  19.601  0.00  0.00    +0.000 C 
ATOM      4  N   UNL     1       0.914  13.998  18.877  0.00  0.00    +0.000 NA
ATOM      5  C   UNL     1       1.140  12.650  18.681  0.00  0.00    +0.000 C 
ATOM      6  C   UNL     1       2.437  12.385  17.957  0.00  0.00    +0.000 C 
ATOM      7  C   UNL     1       0.269  11.692  19.092  0.00  0.00    +0.000 C 
ATOM      8  H   UNL     1      -1.868  13.878  20.454  0.00  0.00    +0.000 HD
ENDROOT
BRANCH   1  11
ATOM      9  C   UNL     1      -3.367  11.466  16.837  0.00  0.00    +0.000 A 
ATOM     10  C   UNL     1      -2.215  11.542  17.632  0.00  0.00    +0.000 A 
ATOM     11  C   UNL     1      -2.274  11.860  19.001  0.00  0.00    +0.000 A 
ATOM     12  C   UNL     1      -3.534  12.042  19.584  0.00  0.00    +0.000 A 
ATOM     13  C   UNL     1      -4.694  11.929  18.813  0.00  0.00    +0.000 A 
ATOM     14  C   UNL     1      -4.611  11.663  17.442  0.00  0.00    +0.000 A 
BRANCH   9  16
ATOM     15  C   UNL     1      -2.906   9.873  15.111  0.00  0.00    +0.000 C 
ATOM     16  O   UNL     1      -3.085  11.219  15.522  0.00  0.00    +0.000 OA
ENDBRANCH   9  16
BRANCH  14  17
ATOM     17  O   UNL     1      -5.771  11.620  16.720  0.00  0.00    +0.000 OA
ATOM     18  H   UNL     1      -6.427  11.079  17.188  0.00  0.00    +0.000 HD
ENDBRANCH  14  17
ENDBRANCH   1  11
BRANCH   7  19
ATOM     19  C   UNL     1       0.568  10.240  18.841  0.00  0.00    +0.000 C 
ATOM     20  O   UNL     1       0.158   9.693  17.819  0.00  0.00    +0.000 OA
ATOM     21  N   UNL     1       1.270   9.561  19.823  0.00  0.00    +0.000 N 
ATOM     22  H   UNL     1       1.434  10.000  20.711  0.00  0.00    +0.000 HD
BRANCH  21  23
ATOM     23  C   UNL     1       1.673   8.202  19.763  0.00  0.00    +0.000 A 
ATOM     24  C   UNL     1       1.357   7.259  20.741  0.00  0.00    +0.000 A 
ATOM     25  C   UNL     1       1.821   5.944  20.645  0.00  0.00    +0.000 A 
ATOM     26  C   UNL     1       2.606   5.547  19.561  0.00  0.00    +0.000 A 
ATOM     27  C   UNL     1       3.142   4.150  19.477  0.00  0.00    +0.000 C 
ATOM     28  C   UNL     1       2.901   6.482  18.564  0.00  0.00    +0.000 A 
ATOM     29  C   UNL     1       2.425   7.795  18.657  0.00  0.00    +0.000 A 
ENDBRANCH  21  23
ENDBRANCH   7  19
BRANCH   3  30
ATOM     30  S   UNL     1      -0.393  16.044  19.818  0.00  0.00    +0.000 S 
ATOM     31  H   UNL     1      -1.507  15.948  20.548  0.00  0.00    +0.000 HD
ENDBRANCH   3  30
TORSDOF 6
ENDMDL
MODEL 5
REMARK VINA RESULT:      -6.6      1.139      2.114
REMARK  Name = 
REMARK  9 active torsions:
REMARK  status: ('A' for Active; 'I' for Inactive)
REMARK    1  A    between atoms: C_1  and  O_2
REMARK    2  A    between atoms: O_2  and  C_3
REMARK    3  A    between atoms: C_5  and  C_6
REMARK    4  A    between atoms: C_8  and  S_9
REMARK    5  A    between atoms: C_11  and  C_12
REMARK    6  A    between atoms: C_13  and  C_14
REMARK    7  A    between atoms: N_16  and  C_17
REMARK    8  A    between atoms: C_20  and  C_21
REMARK    9  A    between atoms: C_26  and  O_27
REMARK                            x       y       z     vdW  Elec       q    Type
REMARK                         _______ _______ _______ _____ _____    ______ ____
ROOT
ATOM      1  C   UNL     1       4.425   4.107  19.837  0.00  0.00    +0.000 C 
ATOM      2  N   UNL     1       4.818   2.705  19.832  0.00  0.00    +0.000 N 
ATOM      3  C   UNL     1       3.983   1.786  19.278  0.00  0.00    +0.000 C 
ATOM      4  N   UNL     1       2.742   1.966  18.982  0.00  0.00    +0.000 NA
ATOM      5  C   UNL     1       2.196   3.209  19.238  0.00  0.00    +0.000 C 
ATOM      6  C   UNL     1       0.706   3.241  18.999  0.00  0.00    +0.000 C 
ATOM      7  C   UNL     1       2.943   4.270  19.642  0.00  0.00    +0.000 C 
ATOM      8  H   UNL     1       5.806   2.540  19.704  0.00  0.00    +0.000 HD
ENDROOT
BRANCH   1  11
ATOM      9  C   UNL     1       5.828   5.315  16.465  0.00  0.00    +0.000 A 
ATOM     10  C   UNL     1       4.979   4.775  17.442  0.00  0.00    +0.000 A 
ATOM     11  C   UNL     1       5.286   4.838  18.813  0.00  0.00    +0.000 A 
ATOM     12  C   UNL     1       6.448   5.518  19.200  0.00  0.00    +0.000 A 
ATOM     13  C   UNL     1       7.283   6.096  18.240  0.00  0.00    +0.000 A 
ATOM     14  C   UNL     1       6.986   5.977  16.878  0.00  0.00    +0.000 A 
BRANCH   9  16
ATOM     15  C   UNL     1       6.004   4.052  14.440  0.00  0.00    +0.000 C 
ATOM     16  O   UNL     1       5.383   5.081  15.194  0.00  0.00    +0.000 OA
ENDBRANCH   9  16
BRANCH  14  17
ATOM     17  O   UNL     1       7.865   6.509  15.977  0.00  0.00    +0.000 OA
ATOM     18  H   UNL     1       8.543   7.023  16.445  0.00  0.00    +0.000 HD
ENDBRANCH  14  17
ENDBRANCH   1  11
BRANCH   7  19
ATOM     19  C   UNL     1       2.290   5.601  19.894  0.00  0.00    +0.000 C 
ATOM     20  O   UNL     1       1.534   5.747  20.852  0.00  0.00    +0.000 OA
ATOM     21  N   UNL     1       2.544   6.611  18.981  0.00  0.00    +0.000 N 
ATOM     22  H   UNL     1       3.027   6.400  18.126  0.00  0.00    +0.000 HD
BRANCH  21  23
ATOM     23  C   UNL     1       2.050   7.939  19.056  0.00  0.00    +0.000 A 
ATOM     24  C   UNL     1       1.482   8.487  20.206  0.00  0.00    +0.000 A 
ATOM     25  C   UNL     1       0.974   9.789  20.203  0.00  0.00    +0.000 A 
ATOM     26  C   UNL     1       1.033  10.571  19.047  0.00  0.00    +0.000 A 
ATOM     27  C   UNL     1       0.450  11.951  19.028  0.00  0.00    +0.000 C 
ATOM     28  C   UNL     1       1.628  10.034  17.901  0.00  0.00    +0.000 A 
ATOM     29  C   UNL     1       2.147   8.734  17.910  0.00  0.00    +0.000 A 
ENDBRANCH  21  23
ENDBRANCH   7  19
BRANCH   3  30
ATOM     30  S   UNL     1       4.673   0.221  18.924  0.00  0.00    +0.000 S 
ATOM     31  H   UNL     1       3.601  -0.523  19.208  0.00  0.00    +0.000 HD
ENDBRANCH   3  30
TORSDOF 6
ENDMDL
MODEL 6
REMARK VINA RESULT:      -6.5      4.971      9.556
REMARK  Name = 
REMARK  9 active torsions:
REMARK  status: ('A' for Active; 'I' for Inactive)
REMARK    1  A    between atoms: C_1  and  O_2
REMARK    2  A    between atoms: O_2  and  C_3
REMARK    3  A    between atoms: C_5  and  C_6
REMARK    4  A    between atoms: C_8  and  S_9
REMARK    5  A    between atoms: C_11  and  C_12
REMARK    6  A    between atoms: C_13  and  C_14
REMARK    7  A    between atoms: N_16  and  C_17
REMARK    8  A    between atoms: C_20  and  C_21
REMARK    9  A    between atoms: C_26  and  O_27
REMARK                            x       y       z     vdW  Elec       q    Type
REMARK                         _______ _______ _______ _____ _____    ______ ____
ROOT
ATOM      1  C   UNL     1      -0.780  11.735  20.003  0.00  0.00    +0.000 C 
ATOM      2  N   UNL     1      -0.782  13.100  20.510  0.00  0.00    +0.000 N 
ATOM      3  C   UNL     1       0.027  14.024  19.927  0.00  0.00    +0.000 C 
ATOM      4  N   UNL     1       1.010  13.780  19.132  0.00  0.00    +0.000 NA
ATOM      5  C   UNL     1       1.275  12.460  18.826  0.00  0.00    +0.000 C 
ATOM      6  C   UNL     1       2.542  12.300  18.021  0.00  0.00    +0.000 C 
ATOM      7  C   UNL     1       0.461  11.440  19.206  0.00  0.00    +0.000 C 
ATOM      8  H   UNL     1      -1.681  13.435  20.829  0.00  0.00    +0.000 HD
ENDROOT
BRANCH   1  11
ATOM      9  C   UNL     1      -3.282  10.552  17.332  0.00  0.00    +0.000 A 
ATOM     10  C   UNL     1      -2.134  10.666  18.129  0.00  0.00    +0.000 A 
ATOM     11  C   UNL     1      -2.087  11.513  19.251  0.00  0.00    +0.000 A 
ATOM     12  C   UNL     1      -3.251  12.210  19.603  0.00  0.00    +0.000 A 
ATOM     13  C   UNL     1      -4.414  12.075  18.840  0.00  0.00    +0.000 A 
ATOM     14  C   UNL     1      -4.424  11.267  17.699  0.00  0.00    +0.000 A 
BRANCH   9  16
ATOM     15  C   UNL     1      -2.925  10.332  14.975  0.00  0.00    +0.000 C 
ATOM     16  O   UNL     1      -3.094   9.736  16.251  0.00  0.00    +0.000 OA
ENDBRANCH   9  16
BRANCH  14  17
ATOM     17  O   UNL     1      -5.570  11.214  16.954  0.00  0.00    +0.000 OA
ATOM     18  H   UNL     1      -5.792  10.289  16.763  0.00  0.00    +0.000 HD
ENDBRANCH  14  17
ENDBRANCH   1  11
BRANCH   7  19
ATOM     19  C   UNL     1       0.799  10.023  18.832  0.00  0.00    +0.000 C 
ATOM     20  O   UNL     1       0.500   9.589  17.722  0.00  0.00    +0.000 OA
ATOM     21  N   UNL     1       1.406   9.243  19.802  0.00  0.00    +0.000 N 
ATOM     22  H   UNL     1       1.475   9.584  20.744  0.00  0.00    +0.000 HD
BRANCH  21  23
ATOM     23  C   UNL     1       1.827   7.898  19.639  0.00  0.00    +0.000 A 
ATOM     24  C   UNL     1       2.530   7.440  18.525  0.00  0.00    +0.000 A 
ATOM     25  C   UNL     1       2.880   6.092  18.404  0.00  0.00    +0.000 A 
ATOM     26  C   UNL     1       2.539   5.178  19.403  0.00  0.00    +0.000 A 
ATOM     27  C   UNL     1       2.875   3.725  19.257  0.00  0.00    +0.000 C 
ATOM     28  C   UNL     1       1.861   5.640  20.535  0.00  0.00    +0.000 A 
ATOM     29  C   UNL     1       1.522   6.992  20.659  0.00  0.00    +0.000 A 
ENDBRANCH  21  23
ENDBRANCH   7  19
BRANCH   3  30
ATOM     30  S   UNL     1      -0.320  15.698  20.286  0.00  0.00    +0.000 S 
ATOM     31  H   UNL     1       0.338  15.780  21.444  0.00  0.00    +0.000 HD
ENDBRANCH   3  30
TORSDOF 6
ENDMDL
MODEL 7
REMARK VINA RESULT:      -6.5      5.094      8.675
REMARK  Name = 
REMARK  9 active torsions:
REMARK  status: ('A' for Active; 'I' for Inactive)
REMARK    1  A    between atoms: C_1  and  O_2
REMARK    2  A    between atoms: O_2  and  C_3
REMARK    3  A    between atoms: C_5  and  C_6
REMARK    4  A    between atoms: C_8  and  S_9
REMARK    5  A    between atoms: C_11  and  C_12
REMARK    6  A    between atoms: C_13  and  C_14
REMARK    7  A    between atoms: N_16  and  C_17
REMARK    8  A    between atoms: C_20  and  C_21
REMARK    9  A    between atoms: C_26  and  O_27
REMARK                            x       y       z     vdW  Elec       q    Type
REMARK                         _______ _______ _______ _____ _____    ______ ____
ROOT
ATOM      1  C   UNL     1      -0.296  12.431  20.406  0.00  0.00    +0.000 C 
ATOM      2  N   UNL     1      -0.910  13.422  21.278  0.00  0.00    +0.000 N 
ATOM      3  C   UNL     1      -0.975  13.177  22.614  0.00  0.00    +0.000 C 
ATOM      4  N   UNL     1      -0.793  12.039  23.189  0.00  0.00    +0.000 NA
ATOM      5  C   UNL     1      -0.492  10.956  22.386  0.00  0.00    +0.000 C 
ATOM      6  C   UNL     1      -0.463   9.660  23.158  0.00  0.00    +0.000 C 
ATOM      7  C   UNL     1      -0.240  11.076  21.056  0.00  0.00    +0.000 C 
ATOM      8  H   UNL     1      -0.749  14.383  21.011  0.00  0.00    +0.000 HD
ENDROOT
BRANCH   1  11
ATOM      9  C   UNL     1       3.106  14.226  20.470  0.00  0.00    +0.000 A 
ATOM     10  C   UNL     1       1.925  13.589  20.875  0.00  0.00    +0.000 A 
ATOM     11  C   UNL     1       1.055  12.976  19.955  0.00  0.00    +0.000 A 
ATOM     12  C   UNL     1       1.426  12.959  18.604  0.00  0.00    +0.000 A 
ATOM     13  C   UNL     1       2.620  13.555  18.191  0.00  0.00    +0.000 A 
ATOM     14  C   UNL     1       3.446  14.204  19.116  0.00  0.00    +0.000 A 
BRANCH   9  16
ATOM     15  C   UNL     1       4.859  14.132  22.096  0.00  0.00    +0.000 C 
ATOM     16  O   UNL     1       3.767  14.820  21.509  0.00  0.00    +0.000 OA
ENDBRANCH   9  16
BRANCH  14  17
ATOM     17  O   UNL     1       4.574  14.822  18.652  0.00  0.00    +0.000 OA
ATOM     18  H   UNL     1       5.030  15.263  19.388  0.00  0.00    +0.000 HD
ENDBRANCH  14  17
ENDBRANCH   1  11
BRANCH   7  19
ATOM     19  C   UNL     1       0.091   9.859  20.237  0.00  0.00    +0.000 C 
ATOM     20  O   UNL     1      -0.664   9.495  19.338  0.00  0.00    +0.000 OA
ATOM     21  N   UNL     1       1.240   9.164  20.577  0.00  0.00    +0.000 N 
ATOM     22  H   UNL     1       1.731   9.397  21.422  0.00  0.00    +0.000 HD
BRANCH  21  23
ATOM     23  C   UNL     1       1.739   8.013  19.914  0.00  0.00    +0.000 A 
ATOM     24  C   UNL     1       2.288   8.040  18.632  0.00  0.00    +0.000 A 
ATOM     25  C   UNL     1       2.724   6.863  18.015  0.00  0.00    +0.000 A 
ATOM     26  C   UNL     1       2.625   5.637  18.677  0.00  0.00    +0.000 A 
ATOM     27  C   UNL     1       3.050   4.369  18.002  0.00  0.00    +0.000 C 
ATOM     28  C   UNL     1       2.101   5.611  19.973  0.00  0.00    +0.000 A 
ATOM     29  C   UNL     1       1.676   6.792  20.592  0.00  0.00    +0.000 A 
ENDBRANCH  21  23
ENDBRANCH   7  19
BRANCH   3  30
ATOM     30  S   UNL     1      -1.325  14.547  23.640  0.00  0.00    +0.000 S 
ATOM     31  H   UNL     1      -2.622  14.301  23.843  0.00  0.00    +0.000 HD
ENDBRANCH   3  30
TORSDOF 6
ENDMDL
MODEL 8
REMARK VINA RESULT:      -6.5      5.129      8.834
REMARK  Name = 
REMARK  9 active torsions:
REMARK  status: ('A' for Active; 'I' for Inactive)
REMARK    1  A    between atoms: C_1  and  O_2
REMARK    2  A    between atoms: O_2  and  C_3
REMARK    3  A    between atoms: C_5  and  C_6
REMARK    4  A    between atoms: C_8  and  S_9
REMARK    5  A    between atoms: C_11  and  C_12
REMARK    6  A    between atoms: C_13  and  C_14
REMARK    7  A    between atoms: N_16  and  C_17
REMARK    8  A    between atoms: C_20  and  C_21
REMARK    9  A    between atoms: C_26  and  O_27
REMARK                            x       y       z     vdW  Elec       q    Type
REMARK                         _______ _______ _______ _____ _____    ______ ____
ROOT
ATOM      1  C   UNL     1      -0.333  12.598  20.432  0.00  0.00    +0.000 C 
ATOM      2  N   UNL     1      -0.935  13.589  21.312  0.00  0.00    +0.000 N 
ATOM      3  C   UNL     1      -1.000  13.337  22.646  0.00  0.00    +0.000 C 
ATOM      4  N   UNL     1      -0.827  12.193  23.213  0.00  0.00    +0.000 NA
ATOM      5  C   UNL     1      -0.539  11.112  22.403  0.00  0.00    +0.000 C 
ATOM      6  C   UNL     1      -0.520   9.811  23.166  0.00  0.00    +0.000 C 
ATOM      7  C   UNL     1      -0.289  11.238  21.073  0.00  0.00    +0.000 C 
ATOM      8  H   UNL     1      -0.766  14.550  21.050  0.00  0.00    +0.000 HD
ENDROOT
BRANCH   1  11
ATOM      9  C   UNL     1       3.275  13.926  20.552  0.00  0.00    +0.000 A 
ATOM     10  C   UNL     1       2.069  13.305  20.905  0.00  0.00    +0.000 A 
ATOM     11  C   UNL     1       1.022  13.132  19.981  0.00  0.00    +0.000 A 
ATOM     12  C   UNL     1       1.232  13.545  18.659  0.00  0.00    +0.000 A 
ATOM     13  C   UNL     1       2.444  14.130  18.284  0.00  0.00    +0.000 A 
ATOM     14  C   UNL     1       3.454  14.339  19.230  0.00  0.00    +0.000 A 
BRANCH   9  16
ATOM     15  C   UNL     1       4.063  15.249  22.385  0.00  0.00    +0.000 C 
ATOM     16  O   UNL     1       4.127  14.060  21.613  0.00  0.00    +0.000 OA
ENDBRANCH   9  16
BRANCH  14  17
ATOM     17  O   UNL     1       4.599  14.967  18.826  0.00  0.00    +0.000 OA
ATOM     18  H   UNL     1       4.965  14.511  18.051  0.00  0.00    +0.000 HD
ENDBRANCH  14  17
ENDBRANCH   1  11
BRANCH   7  19
ATOM     19  C   UNL     1       0.029  10.023  20.245  0.00  0.00    +0.000 C 
ATOM     20  O   UNL     1      -0.770   9.625  19.400  0.00  0.00    +0.000 OA
ATOM     21  N   UNL     1       1.218   9.369  20.517  0.00  0.00    +0.000 N 
ATOM     22  H   UNL     1       1.755   9.627  21.326  0.00  0.00    +0.000 HD
BRANCH  21  23
ATOM     23  C   UNL     1       1.711   8.228  19.833  0.00  0.00    +0.000 A 
ATOM     24  C   UNL     1       1.779   6.956  20.403  0.00  0.00    +0.000 A 
ATOM     25  C   UNL     1       2.315   5.879  19.690  0.00  0.00    +0.000 A 
ATOM     26  C   UNL     1       2.786   6.056  18.387  0.00  0.00    +0.000 A 
ATOM     27  C   UNL     1       3.401   4.914  17.636  0.00  0.00    +0.000 C 
ATOM     28  C   UNL     1       2.693   7.323  17.803  0.00  0.00    +0.000 A 
ATOM     29  C   UNL     1       2.145   8.396  18.515  0.00  0.00    +0.000 A 
ENDBRANCH  21  23
ENDBRANCH   7  19
BRANCH   3  30
ATOM     30  S   UNL     1      -1.334  14.703  23.681  0.00  0.00    +0.000 S 
ATOM     31  H   UNL     1      -2.595  14.920  23.302  0.00  0.00    +0.000 HD
ENDBRANCH   3  30
TORSDOF 6
ENDMDL
MODEL 9
REMARK VINA RESULT:      -6.4      5.125      8.878
REMARK  Name = 
REMARK  9 active torsions:
REMARK  status: ('A' for Active; 'I' for Inactive)
REMARK    1  A    between atoms: C_1  and  O_2
REMARK    2  A    between atoms: O_2  and  C_3
REMARK    3  A    between atoms: C_5  and  C_6
REMARK    4  A    between atoms: C_8  and  S_9
REMARK    5  A    between atoms: C_11  and  C_12
REMARK    6  A    between atoms: C_13  and  C_14
REMARK    7  A    between atoms: N_16  and  C_17
REMARK    8  A    between atoms: C_20  and  C_21
REMARK    9  A    between atoms: C_26  and  O_27
REMARK                            x       y       z     vdW  Elec       q    Type
REMARK                         _______ _______ _______ _____ _____    ______ ____
ROOT
ATOM      1  C   UNL     1      -0.572  12.381  20.292  0.00  0.00    +0.000 C 
ATOM      2  N   UNL     1      -1.158  13.378  21.177  0.00  0.00    +0.000 N 
ATOM      3  C   UNL     1      -1.048  13.215  22.522  0.00  0.00    +0.000 C 
ATOM      4  N   UNL     1      -0.709  12.132  23.132  0.00  0.00    +0.000 NA
ATOM      5  C   UNL     1      -0.417  11.025  22.359  0.00  0.00    +0.000 C 
ATOM      6  C   UNL     1      -0.193   9.787  23.192  0.00  0.00    +0.000 C 
ATOM      7  C   UNL     1      -0.332  11.078  21.004  0.00  0.00    +0.000 C 
ATOM      8  H   UNL     1      -1.108  14.329  20.839  0.00  0.00    +0.000 HD
ENDROOT
BRANCH   1  11
ATOM      9  C   UNL     1       2.000  14.987  19.112  0.00  0.00    +0.000 A 
ATOM     10  C   UNL     1       0.951  14.364  19.802  0.00  0.00    +0.000 A 
ATOM     11  C   UNL     1       0.669  12.994  19.652  0.00  0.00    +0.000 A 
ATOM     12  C   UNL     1       1.510  12.232  18.831  0.00  0.00    +0.000 A 
ATOM     13  C   UNL     1       2.584  12.831  18.168  0.00  0.00    +0.000 A 
ATOM     14  C   UNL     1       2.816  14.205  18.290  0.00  0.00    +0.000 A 
BRANCH   9  16
ATOM     15  C   UNL     1       1.417  17.202  18.419  0.00  0.00    +0.000 C 
ATOM     16  O   UNL     1       2.055  16.334  19.341  0.00  0.00    +0.000 OA
ENDBRANCH   9  16
BRANCH  14  17
ATOM     17  O   UNL     1       3.844  14.754  17.576  0.00  0.00    +0.000 OA
ATOM     18  H   UNL     1       3.595  15.643  17.275  0.00  0.00    +0.000 HD
ENDBRANCH  14  17
ENDBRANCH   1  11
BRANCH   7  19
ATOM     19  C   UNL     1       0.000   9.839  20.219  0.00  0.00    +0.000 C 
ATOM     20  O   UNL     1      -0.779   9.421  19.365  0.00  0.00    +0.000 OA
ATOM     21  N   UNL     1       1.179   9.186  20.539  0.00  0.00    +0.000 N 
ATOM     22  H   UNL     1       1.696   9.464  21.354  0.00  0.00    +0.000 HD
BRANCH  21  23
ATOM     23  C   UNL     1       1.682   8.024  19.900  0.00  0.00    +0.000 A 
ATOM     24  C   UNL     1       2.238   8.026  18.621  0.00  0.00    +0.000 A 
ATOM     25  C   UNL     1       2.677   6.839  18.029  0.00  0.00    +0.000 A 
ATOM     26  C   UNL     1       2.576   5.626  18.713  0.00  0.00    +0.000 A 
ATOM     27  C   UNL     1       3.006   4.344  18.065  0.00  0.00    +0.000 C 
ATOM     28  C   UNL     1       2.046   5.624  20.007  0.00  0.00    +0.000 A 
ATOM     29  C   UNL     1       1.618   6.816  20.602  0.00  0.00    +0.000 A 
ENDBRANCH  21  23
ENDBRANCH   7  19
BRANCH   3  30
ATOM     30  S   UNL     1      -1.386  14.618  23.506  0.00  0.00    +0.000 S 
ATOM     31  H   UNL     1      -2.636  14.839  23.091  0.00  0.00    +0.000 HD
ENDBRANCH   3  30
TORSDOF 6
ENDMDL
