MODEL 1
REMARK VINA RESULT:      -7.0      0.000      0.000
REMARK  Name = 
REMARK  2 active torsions:
REMARK  status: ('A' for Active; 'I' for Inactive)
REMARK    1  A    between atoms: C_1  and  C_2
REMARK    2  A    between atoms: N_10  and  C_11
REMARK                            x       y       z     vdW  Elec       q    Type
REMARK                         _______ _______ _______ _____ _____    ______ ____
ROOT
ATOM      1  C   UNL     1       6.786   4.765  14.166  0.00  0.00    +0.000 C 
ATOM      2  C   UNL     1       5.872   5.006  15.302  0.00  0.00    +0.000 A 
ATOM      3  N   UNL     1       5.494   6.268  15.646  0.00  0.00    +0.000 NA
ATOM      4  C   UNL     1       4.698   6.091  16.675  0.00  0.00    +0.000 A 
ATOM      5  N   UNL     1       4.037   7.028  17.412  0.00  0.00    +0.000 NA
ATOM      6  C   UNL     1       3.310   6.570  18.385  0.00  0.00    +0.000 A 
ATOM      7  C   UNL     1       3.140   5.143  18.760  0.00  0.00    +0.000 A 
ATOM      8  C   UNL     1       2.283   4.723  19.896  0.00  0.00    +0.000 A 
ATOM      9  O   UNL     1       1.689   5.571  20.556  0.00  0.00    +0.000 OA
ATOM     10  N   UNL     1       2.220   3.350  20.129  0.00  0.00    +0.000 N 
ATOM     11  C   UNL     1       1.401   2.858  21.229  0.00  0.00    +0.000 C 
ATOM     12  C   UNL     1       2.911   2.436  19.351  0.00  0.00    +0.000 A 
ATOM     13  C   UNL     1       3.681   2.832  18.327  0.00  0.00    +0.000 A 
ATOM     14  C   UNL     1       3.808   4.243  18.010  0.00  0.00    +0.000 A 
ATOM     15  N   UNL     1       4.601   4.716  16.951  0.00  0.00    +0.000 N 
ATOM     16  N   UNL     1       5.364   4.026  16.057  0.00  0.00    +0.000 NA
ENDROOT
TORSDOF 0
ENDMDL
MODEL 2
REMARK VINA RESULT:      -6.9      1.930      2.568
REMARK  Name = 
REMARK  2 active torsions:
REMARK  status: ('A' for Active; 'I' for Inactive)
REMARK    1  A    between atoms: C_1  and  C_2
REMARK    2  A    between atoms: N_10  and  C_11
REMARK                            x       y       z     vdW  Elec       q    Type
REMARK                         _______ _______ _______ _____ _____    ______ ____
ROOT
ATOM      1  C   UNL     1       6.953   3.914  12.025  0.00  0.00    +0.000 C 
ATOM      2  C   UNL     1       6.704   4.275  13.437  0.00  0.00    +0.000 A 
ATOM      3  N   UNL     1       7.507   5.160  14.089  0.00  0.00    +0.000 NA
ATOM      4  C   UNL     1       6.988   5.230  15.293  0.00  0.00    +0.000 A 
ATOM      5  N   UNL     1       7.402   5.974  16.358  0.00  0.00    +0.000 NA
ATOM      6  C   UNL     1       6.697   5.850  17.441  0.00  0.00    +0.000 A 
ATOM      7  C   UNL     1       5.503   4.985  17.619  0.00  0.00    +0.000 A 
ATOM      8  C   UNL     1       4.766   4.914  18.905  0.00  0.00    +0.000 A 
ATOM      9  O   UNL     1       5.143   5.588  19.860  0.00  0.00    +0.000 OA
ATOM     10  N   UNL     1       3.666   4.058  18.924  0.00  0.00    +0.000 N 
ATOM     11  C   UNL     1       2.892   3.932  20.151  0.00  0.00    +0.000 C 
ATOM     12  C   UNL     1       3.285   3.322  17.815  0.00  0.00    +0.000 A 
ATOM     13  C   UNL     1       3.961   3.397  16.659  0.00  0.00    +0.000 A 
ATOM     14  C   UNL     1       5.122   4.263  16.546  0.00  0.00    +0.000 A 
ATOM     15  N   UNL     1       5.870   4.380  15.363  0.00  0.00    +0.000 N 
ATOM     16  N   UNL     1       5.697   3.769  14.157  0.00  0.00    +0.000 NA
ENDROOT
TORSDOF 0
ENDMDL
MODEL 3
REMARK VINA RESULT:      -6.6      1.693      1.916
REMARK  Name = 
REMARK  2 active torsions:
REMARK  status: ('A' for Active; 'I' for Inactive)
REMARK    1  A    between atoms: C_1  and  C_2
REMARK    2  A    between atoms: N_10  and  C_11
REMARK                            x       y       z     vdW  Elec       q    Type
REMARK                         _______ _______ _______ _____ _____    ______ ____
ROOT
ATOM      1  C   UNL     1       7.250   4.747  13.812  0.00  0.00    +0.000 C 
ATOM      2  C   UNL     1       6.620   4.615  15.143  0.00  0.00    +0.000 A 
ATOM      3  N   UNL     1       7.329   4.846  16.283  0.00  0.00    +0.000 NA
ATOM      4  C   UNL     1       6.459   4.637  17.243  0.00  0.00    +0.000 A 
ATOM      5  N   UNL     1       6.639   4.730  18.591  0.00  0.00    +0.000 NA
ATOM      6  C   UNL     1       5.597   4.466  19.319  0.00  0.00    +0.000 A 
ATOM      7  C   UNL     1       4.253   4.078  18.823  0.00  0.00    +0.000 A 
ATOM      8  C   UNL     1       3.124   3.795  19.743  0.00  0.00    +0.000 A 
ATOM      9  O   UNL     1       3.292   3.881  20.956  0.00  0.00    +0.000 OA
ATOM     10  N   UNL     1       1.921   3.442  19.133  0.00  0.00    +0.000 N 
ATOM     11  C   UNL     1       0.766   3.147  19.969  0.00  0.00    +0.000 C 
ATOM     12  C   UNL     1       1.788   3.361  17.757  0.00  0.00    +0.000 A 
ATOM     13  C   UNL     1       2.817   3.620  16.938  0.00  0.00    +0.000 A 
ATOM     14  C   UNL     1       4.110   3.995  17.484  0.00  0.00    +0.000 A 
ATOM     15  N   UNL     1       5.223   4.277  16.676  0.00  0.00    +0.000 N 
ATOM     16  N   UNL     1       5.342   4.266  15.318  0.00  0.00    +0.000 NA
ENDROOT
TORSDOF 0
ENDMDL
MODEL 4
REMARK VINA RESULT:      -6.6      1.985      5.083
REMARK  Name = 
REMARK  2 active torsions:
REMARK  status: ('A' for Active; 'I' for Inactive)
REMARK    1  A    between atoms: C_1  and  C_2
REMARK    2  A    between atoms: N_10  and  C_11
REMARK                            x       y       z     vdW  Elec       q    Type
REMARK                         _______ _______ _______ _____ _____    ______ ____
ROOT
ATOM      1  C   UNL     1       1.461   2.938  21.528  0.00  0.00    +0.000 C 
ATOM      2  C   UNL     1       2.104   3.768  20.487  0.00  0.00    +0.000 A 
ATOM      3  N   UNL     1       1.879   5.109  20.417  0.00  0.00    +0.000 NA
ATOM      4  C   UNL     1       2.603   5.498  19.393  0.00  0.00    +0.000 A 
ATOM      5  N   UNL     1       2.747   6.752  18.879  0.00  0.00    +0.000 NA
ATOM      6  C   UNL     1       3.534   6.853  17.851  0.00  0.00    +0.000 A 
ATOM      7  C   UNL     1       4.275   5.744  17.199  0.00  0.00    +0.000 A 
ATOM      8  C   UNL     1       5.152   5.967  16.022  0.00  0.00    +0.000 A 
ATOM      9  O   UNL     1       5.279   7.098  15.564  0.00  0.00    +0.000 OA
ATOM     10  N   UNL     1       5.783   4.832  15.516  0.00  0.00    +0.000 N 
ATOM     11  C   UNL     1       6.659   4.968  14.361  0.00  0.00    +0.000 C 
ATOM     12  C   UNL     1       5.605   3.577  16.075  0.00  0.00    +0.000 A 
ATOM     13  C   UNL     1       4.810   3.392  17.139  0.00  0.00    +0.000 A 
ATOM     14  C   UNL     1       4.110   4.517  17.733  0.00  0.00    +0.000 A 
ATOM     15  N   UNL     1       3.264   4.383  18.846  0.00  0.00    +0.000 N 
ATOM     16  N   UNL     1       2.932   3.272  19.562  0.00  0.00    +0.000 NA
ENDROOT
TORSDOF 0
ENDMDL
MODEL 5
REMARK VINA RESULT:      -6.4      2.122      2.962
REMARK  Name = 
REMARK  2 active torsions:
REMARK  status: ('A' for Active; 'I' for Inactive)
REMARK    1  A    between atoms: C_1  and  C_2
REMARK    2  A    between atoms: N_10  and  C_11
REMARK                            x       y       z     vdW  Elec       q    Type
REMARK                         _______ _______ _______ _____ _____    ______ ____
ROOT
ATOM      1  C   UNL     1       8.048   8.224  17.558  0.00  0.00    +0.000 C 
ATOM      2  C   UNL     1       7.105   7.091  17.447  0.00  0.00    +0.000 A 
ATOM      3  N   UNL     1       7.260   6.138  16.487  0.00  0.00    +0.000 NA
ATOM      4  C   UNL     1       6.259   5.314  16.695  0.00  0.00    +0.000 A 
ATOM      5  N   UNL     1       5.936   4.177  16.016  0.00  0.00    +0.000 NA
ATOM      6  C   UNL     1       4.882   3.547  16.439  0.00  0.00    +0.000 A 
ATOM      7  C   UNL     1       4.015   3.949  17.575  0.00  0.00    +0.000 A 
ATOM      8  C   UNL     1       2.828   3.156  17.979  0.00  0.00    +0.000 A 
ATOM      9  O   UNL     1       2.542   2.133  17.364  0.00  0.00    +0.000 OA
ATOM     10  N   UNL     1       2.108   3.656  19.063  0.00  0.00    +0.000 N 
ATOM     11  C   UNL     1       0.927   2.935  19.519  0.00  0.00    +0.000 C 
ATOM     12  C   UNL     1       2.477   4.818  19.721  0.00  0.00    +0.000 A 
ATOM     13  C   UNL     1       3.554   5.523  19.345  0.00  0.00    +0.000 A 
ATOM     14  C   UNL     1       4.364   5.078  18.224  0.00  0.00    +0.000 A 
ATOM     15  N   UNL     1       5.500   5.776  17.784  0.00  0.00    +0.000 N 
ATOM     16  N   UNL     1       6.057   6.926  18.261  0.00  0.00    +0.000 NA
ENDROOT
TORSDOF 0
ENDMDL
MODEL 6
REMARK VINA RESULT:      -6.3      1.494      2.962
REMARK  Name = 
REMARK  2 active torsions:
REMARK  status: ('A' for Active; 'I' for Inactive)
REMARK    1  A    between atoms: C_1  and  C_2
REMARK    2  A    between atoms: N_10  and  C_11
REMARK                            x       y       z     vdW  Elec       q    Type
REMARK                         _______ _______ _______ _____ _____    ______ ____
ROOT
ATOM      1  C   UNL     1       6.670   4.710  14.083  0.00  0.00    +0.000 C 
ATOM      2  C   UNL     1       5.849   4.731  15.312  0.00  0.00    +0.000 A 
ATOM      3  N   UNL     1       5.706   3.617  16.082  0.00  0.00    +0.000 NA
ATOM      4  C   UNL     1       4.928   4.008  17.064  0.00  0.00    +0.000 A 
ATOM      5  N   UNL     1       4.465   3.287  18.123  0.00  0.00    +0.000 NA
ATOM      6  C   UNL     1       3.703   3.931  18.954  0.00  0.00    +0.000 A 
ATOM      7  C   UNL     1       3.299   5.356  18.853  0.00  0.00    +0.000 A 
ATOM      8  C   UNL     1       2.419   6.000  19.861  0.00  0.00    +0.000 A 
ATOM      9  O   UNL     1       2.006   5.346  20.813  0.00  0.00    +0.000 OA
ATOM     10  N   UNL     1       2.124   7.343  19.634  0.00  0.00    +0.000 N 
ATOM     11  C   UNL     1       1.265   8.045  20.577  0.00  0.00    +0.000 C 
ATOM     12  C   UNL     1       2.619   8.034  18.540  0.00  0.00    +0.000 A 
ATOM     13  C   UNL     1       3.414   7.438  17.639  0.00  0.00    +0.000 A 
ATOM     14  C   UNL     1       3.775   6.040  17.793  0.00  0.00    +0.000 A 
ATOM     15  N   UNL     1       4.601   5.364  16.880  0.00  0.00    +0.000 N 
ATOM     16  N   UNL     1       5.202   5.818  15.744  0.00  0.00    +0.000 NA
ENDROOT
TORSDOF 0
ENDMDL
MODEL 7
REMARK VINA RESULT:      -6.2      2.091      3.782
REMARK  Name = 
REMARK  2 active torsions:
REMARK  status: ('A' for Active; 'I' for Inactive)
REMARK    1  A    between atoms: C_1  and  C_2
REMARK    2  A    between atoms: N_10  and  C_11
REMARK                            x       y       z     vdW  Elec       q    Type
REMARK                         _______ _______ _______ _____ _____    ______ ____
ROOT
ATOM      1  C   UNL     1       5.954   3.891  15.577  0.00  0.00    +0.000 C 
ATOM      2  C   UNL     1       5.108   4.463  16.646  0.00  0.00    +0.000 A 
ATOM      3  N   UNL     1       4.839   3.763  17.782  0.00  0.00    +0.000 NA
ATOM      4  C   UNL     1       4.077   4.573  18.480  0.00  0.00    +0.000 A 
ATOM      5  N   UNL     1       3.520   4.373  19.707  0.00  0.00    +0.000 NA
ATOM      6  C   UNL     1       2.803   5.352  20.168  0.00  0.00    +0.000 A 
ATOM      7  C   UNL     1       2.541   6.646  19.489  0.00  0.00    +0.000 A 
ATOM      8  C   UNL     1       1.703   7.704  20.104  0.00  0.00    +0.000 A 
ATOM      9  O   UNL     1       1.204   7.519  21.210  0.00  0.00    +0.000 OA
ATOM     10  N   UNL     1       1.544   8.865  19.348  0.00  0.00    +0.000 N 
ATOM     11  C   UNL     1       0.733   9.950  19.884  0.00  0.00    +0.000 C 
ATOM     12  C   UNL     1       2.132   9.021  18.104  0.00  0.00    +0.000 A 
ATOM     13  C   UNL     1       2.888   8.056  17.561  0.00  0.00    +0.000 A 
ATOM     14  C   UNL     1       3.108   6.811  18.276  0.00  0.00    +0.000 A 
ATOM     15  N   UNL     1       3.888   5.765  17.757  0.00  0.00    +0.000 N 
ATOM     16  N   UNL     1       4.559   5.680  16.573  0.00  0.00    +0.000 NA
ENDROOT
TORSDOF 0
ENDMDL
MODEL 8
REMARK VINA RESULT:      -6.1      2.456      5.333
REMARK  Name = 
REMARK  2 active torsions:
REMARK  status: ('A' for Active; 'I' for Inactive)
REMARK    1  A    between atoms: C_1  and  C_2
REMARK    2  A    between atoms: N_10  and  C_11
REMARK                            x       y       z     vdW  Elec       q    Type
REMARK                         _______ _______ _______ _____ _____    ______ ____
ROOT
ATOM      1  C   UNL     1       0.861   2.508  18.884  0.00  0.00    +0.000 C 
ATOM      2  C   UNL     1       2.091   3.242  18.519  0.00  0.00    +0.000 A 
ATOM      3  N   UNL     1       2.704   4.074  19.407  0.00  0.00    +0.000 NA
ATOM      4  C   UNL     1       3.738   4.536  18.745  0.00  0.00    +0.000 A 
ATOM      5  N   UNL     1       4.696   5.412  19.163  0.00  0.00    +0.000 NA
ATOM      6  C   UNL     1       5.615   5.700  18.293  0.00  0.00    +0.000 A 
ATOM      7  C   UNL     1       5.714   5.171  16.909  0.00  0.00    +0.000 A 
ATOM      8  C   UNL     1       6.809   5.566  15.990  0.00  0.00    +0.000 A 
ATOM      9  O   UNL     1       7.669   6.355  16.372  0.00  0.00    +0.000 OA
ATOM     10  N   UNL     1       6.771   4.989  14.721  0.00  0.00    +0.000 N 
ATOM     11  C   UNL     1       7.811   5.329  13.760  0.00  0.00    +0.000 C 
ATOM     12  C   UNL     1       5.776   4.103  14.343  0.00  0.00    +0.000 A 
ATOM     13  C   UNL     1       4.793   3.754  15.186  0.00  0.00    +0.000 A 
ATOM     14  C   UNL     1       4.751   4.307  16.529  0.00  0.00    +0.000 A 
ATOM     15  N   UNL     1       3.745   3.980  17.453  0.00  0.00    +0.000 N 
ATOM     16  N   UNL     1       2.675   3.146  17.320  0.00  0.00    +0.000 NA
ENDROOT
TORSDOF 0
ENDMDL
MODEL 9
REMARK VINA RESULT:      -6.0      2.364      5.532
REMARK  Name = 
REMARK  2 active torsions:
REMARK  status: ('A' for Active; 'I' for Inactive)
REMARK    1  A    between atoms: C_1  and  C_2
REMARK    2  A    between atoms: N_10  and  C_11
REMARK                            x       y       z     vdW  Elec       q    Type
REMARK                         _______ _______ _______ _____ _____    ______ ____
ROOT
ATOM      1  C   UNL     1       1.161   2.505  22.162  0.00  0.00    +0.000 C 
ATOM      2  C   UNL     1       1.823   2.812  20.877  0.00  0.00    +0.000 A 
ATOM      3  N   UNL     1       1.320   2.351  19.698  0.00  0.00    +0.000 NA
ATOM      4  C   UNL     1       2.153   2.815  18.796  0.00  0.00    +0.000 A 
ATOM      5  N   UNL     1       2.122   2.653  17.443  0.00  0.00    +0.000 NA
ATOM      6  C   UNL     1       3.081   3.227  16.783  0.00  0.00    +0.000 A 
ATOM      7  C   UNL     1       4.189   4.028  17.361  0.00  0.00    +0.000 A 
ATOM      8  C   UNL     1       5.242   4.643  16.515  0.00  0.00    +0.000 A 
ATOM      9  O   UNL     1       5.207   4.495  15.297  0.00  0.00    +0.000 OA
ATOM     10  N   UNL     1       6.218   5.367  17.198  0.00  0.00    +0.000 N 
ATOM     11  C   UNL     1       7.287   6.000  16.437  0.00  0.00    +0.000 C 
ATOM     12  C   UNL     1       6.208   5.504  18.576  0.00  0.00    +0.000 A 
ATOM     13  C   UNL     1       5.249   4.942  19.327  0.00  0.00    +0.000 A 
ATOM     14  C   UNL     1       4.190   4.169  18.702  0.00  0.00    +0.000 A 
ATOM     15  N   UNL     1       3.162   3.557  19.437  0.00  0.00    +0.000 N 
ATOM     16  N   UNL     1       2.937   3.546  20.782  0.00  0.00    +0.000 NA
ENDROOT
TORSDOF 0
ENDMDL
