MODEL 1
REMARK VINA RESULT:      -8.3      0.000      0.000
REMARK  Name = 
REMARK  8 active torsions:
REMARK  status: ('A' for Active; 'I' for Inactive)
REMARK    1  A    between atoms: O_1  and  C_2
REMARK    2  A    between atoms: C_2  and  C_3
REMARK    3  A    between atoms: C_3  and  C_4
REMARK    4  A    between atoms: C_4  and  N_5
REMARK    5  A    between atoms: N_5  and  C_6
REMARK    6  A    between atoms: C_8  and  C_9
REMARK    7  A    between atoms: N_20  and  C_21
REMARK    8  A    between atoms: C_21  and  C_22
REMARK                            x       y       z     vdW  Elec       q    Type
REMARK                         _______ _______ _______ _____ _____    ______ ____
ROOT
ATOM      1  C   UNL     1       7.489   6.249  17.662  0.00  0.00    +0.000 A 
ATOM      2  N   UNL     1       7.497   5.981  16.326  0.00  0.00    +0.000 NA
ATOM      3  C   UNL     1       6.685   5.023  15.819  0.00  0.00    +0.000 A 
ATOM      4  N   UNL     1       5.813   4.256  16.507  0.00  0.00    +0.000 NA
ATOM      5  C   UNL     1       5.856   4.530  17.821  0.00  0.00    +0.000 A 
ATOM      6  C   UNL     1       6.637   5.472  18.463  0.00  0.00    +0.000 A 
ATOM      7  N   UNL     1       6.391   5.417  19.813  0.00  0.00    +0.000 NA
ATOM      8  N   UNL     1       5.517   4.436  20.036  0.00  0.00    +0.000 NA
ATOM      9  N   UNL     1       5.189   3.901  18.834  0.00  0.00    +0.000 N 
ENDROOT
BRANCH   3  10
ATOM     10  C   UNL     1       6.798   4.758  14.378  0.00  0.00    +0.000 A 
ATOM     11  C   UNL     1       7.716   5.468  13.584  0.00  0.00    +0.000 A 
ATOM     12  C   UNL     1       7.854   5.200  12.221  0.00  0.00    +0.000 A 
ATOM     13  C   UNL     1       7.061   4.225  11.621  0.00  0.00    +0.000 A 
ATOM     14  C   UNL     1       6.135   3.518  12.384  0.00  0.00    +0.000 A 
ATOM     15  C   UNL     1       6.008   3.778  13.751  0.00  0.00    +0.000 A 
ENDBRANCH   3  10
BRANCH   1  16
ATOM     16  N   UNL     1       8.337   7.241  18.174  0.00  0.00    +0.000 N 
ATOM     17  H   UNL     1       8.545   7.077  19.157  0.00  0.00    +0.000 HD
BRANCH  16  18
ATOM     18  C   UNL     1       7.935   8.600  17.829  0.00  0.00    +0.000 C 
BRANCH  18  19
ATOM     19  C   UNL     1       8.723   9.617  18.648  0.00  0.00    +0.000 C 
BRANCH  19  20
ATOM     20  C   UNL     1       8.810  10.946  17.910  0.00  0.00    +0.000 C 
BRANCH  20  21
ATOM     21  O   UNL     1      10.175  11.274  17.692  0.00  0.00    +0.000 OA
ATOM     22  H   UNL     1      10.204  11.904  16.951  0.00  0.00    +0.000 HD
ENDBRANCH  20  21
ENDBRANCH  19  20
ENDBRANCH  18  19
ENDBRANCH  16  18
ENDBRANCH   1  16
BRANCH   9  23
ATOM     23  C   UNL     1       4.488   2.638  18.742  0.00  0.00    +0.000 C 
BRANCH  23  24
ATOM     24  C   UNL     1       3.066   2.690  19.236  0.00  0.00    +0.000 A 
ATOM     25  C   UNL     1       2.781   2.665  20.609  0.00  0.00    +0.000 A 
ATOM     26  C   UNL     1       1.473   2.851  21.064  0.00  0.00    +0.000 A 
ATOM     27  C   UNL     1       0.437   3.051  20.153  0.00  0.00    +0.000 A 
ATOM     28  C   UNL     1       0.703   3.036  18.785  0.00  0.00    +0.000 A 
ATOM     29  C   UNL     1       2.009   2.847  18.328  0.00  0.00    +0.000 A 
ENDBRANCH  23  24
ENDBRANCH   9  23
TORSDOF 8
ENDMDL
MODEL 2
REMARK VINA RESULT:      -8.2      5.453      7.088
REMARK  Name = 
REMARK  8 active torsions:
REMARK  status: ('A' for Active; 'I' for Inactive)
REMARK    1  A    between atoms: O_1  and  C_2
REMARK    2  A    between atoms: C_2  and  C_3
REMARK    3  A    between atoms: C_3  and  C_4
REMARK    4  A    between atoms: C_4  and  N_5
REMARK    5  A    between atoms: N_5  and  C_6
REMARK    6  A    between atoms: C_8  and  C_9
REMARK    7  A    between atoms: N_20  and  C_21
REMARK    8  A    between atoms: C_21  and  C_22
REMARK                            x       y       z     vdW  Elec       q    Type
REMARK                         _______ _______ _______ _____ _____    ______ ____
ROOT
ATOM      1  C   UNL     1       2.665   5.605  20.211  0.00  0.00    +0.000 A 
ATOM      2  N   UNL     1       3.442   5.192  19.171  0.00  0.00    +0.000 NA
ATOM      3  C   UNL     1       3.667   6.016  18.119  0.00  0.00    +0.000 A 
ATOM      4  N   UNL     1       3.194   7.270  17.961  0.00  0.00    +0.000 NA
ATOM      5  C   UNL     1       2.411   7.629  18.992  0.00  0.00    +0.000 A 
ATOM      6  C   UNL     1       2.100   6.887  20.116  0.00  0.00    +0.000 A 
ATOM      7  N   UNL     1       1.254   7.614  20.916  0.00  0.00    +0.000 NA
ATOM      8  N   UNL     1       0.990   8.767  20.301  0.00  0.00    +0.000 NA
ATOM      9  N   UNL     1       1.691   8.780  19.141  0.00  0.00    +0.000 N 
ENDROOT
BRANCH   3  10
ATOM     10  C   UNL     1       4.467   5.471  17.014  0.00  0.00    +0.000 A 
ATOM     11  C   UNL     1       5.014   6.318  16.034  0.00  0.00    +0.000 A 
ATOM     12  C   UNL     1       5.803   5.812  14.999  0.00  0.00    +0.000 A 
ATOM     13  C   UNL     1       6.047   4.444  14.916  0.00  0.00    +0.000 A 
ATOM     14  C   UNL     1       5.506   3.584  15.868  0.00  0.00    +0.000 A 
ATOM     15  C   UNL     1       4.728   4.093  16.911  0.00  0.00    +0.000 A 
ENDBRANCH   3  10
BRANCH   1  16
ATOM     16  N   UNL     1       2.439   4.741  21.292  0.00  0.00    +0.000 N 
ATOM     17  H   UNL     1       3.148   4.860  22.013  0.00  0.00    +0.000 HD
BRANCH  16  18
ATOM     18  C   UNL     1       2.154   3.365  20.902  0.00  0.00    +0.000 C 
BRANCH  18  19
ATOM     19  C   UNL     1       0.809   3.275  20.191  0.00  0.00    +0.000 C 
BRANCH  19  20
ATOM     20  C   UNL     1       0.945   2.507  18.883  0.00  0.00    +0.000 C 
BRANCH  20  21
ATOM     21  O   UNL     1       1.207   3.421  17.827  0.00  0.00    +0.000 OA
ATOM     22  H   UNL     1       1.529   4.245  18.233  0.00  0.00    +0.000 HD
ENDBRANCH  20  21
ENDBRANCH  19  20
ENDBRANCH  18  19
ENDBRANCH  16  18
ENDBRANCH   1  16
BRANCH   9  23
ATOM     23  C   UNL     1       1.410   9.753  18.107  0.00  0.00    +0.000 C 
BRANCH  23  24
ATOM     24  C   UNL     1       0.051  10.392  18.219  0.00  0.00    +0.000 A 
ATOM     25  C   UNL     1      -1.072   9.803  17.618  0.00  0.00    +0.000 A 
ATOM     26  C   UNL     1      -2.349  10.324  17.841  0.00  0.00    +0.000 A 
ATOM     27  C   UNL     1      -2.515  11.444  18.653  0.00  0.00    +0.000 A 
ATOM     28  C   UNL     1      -1.403  12.062  19.221  0.00  0.00    +0.000 A 
ATOM     29  C   UNL     1      -0.125  11.545  18.998  0.00  0.00    +0.000 A 
ENDBRANCH  23  24
ENDBRANCH   9  23
TORSDOF 8
ENDMDL
MODEL 3
REMARK VINA RESULT:      -8.1      0.587      1.095
REMARK  Name = 
REMARK  8 active torsions:
REMARK  status: ('A' for Active; 'I' for Inactive)
REMARK    1  A    between atoms: O_1  and  C_2
REMARK    2  A    between atoms: C_2  and  C_3
REMARK    3  A    between atoms: C_3  and  C_4
REMARK    4  A    between atoms: C_4  and  N_5
REMARK    5  A    between atoms: N_5  and  C_6
REMARK    6  A    between atoms: C_8  and  C_9
REMARK    7  A    between atoms: N_20  and  C_21
REMARK    8  A    between atoms: C_21  and  C_22
REMARK                            x       y       z     vdW  Elec       q    Type
REMARK                         _______ _______ _______ _____ _____    ______ ____
ROOT
ATOM      1  C   UNL     1       7.468   6.413  17.498  0.00  0.00    +0.000 A 
ATOM      2  N   UNL     1       7.441   6.064  16.182  0.00  0.00    +0.000 NA
ATOM      3  C   UNL     1       6.645   5.052  15.762  0.00  0.00    +0.000 A 
ATOM      4  N   UNL     1       5.824   4.301  16.525  0.00  0.00    +0.000 NA
ATOM      5  C   UNL     1       5.900   4.657  17.818  0.00  0.00    +0.000 A 
ATOM      6  C   UNL     1       6.669   5.661  18.374  0.00  0.00    +0.000 A 
ATOM      7  N   UNL     1       6.469   5.681  19.733  0.00  0.00    +0.000 NA
ATOM      8  N   UNL     1       5.636   4.688  20.044  0.00  0.00    +0.000 NA
ATOM      9  N   UNL     1       5.288   4.071  18.889  0.00  0.00    +0.000 N 
ENDROOT
BRANCH   3  10
ATOM     10  C   UNL     1       6.721   4.703  14.336  0.00  0.00    +0.000 A 
ATOM     11  C   UNL     1       7.630   5.351  13.482  0.00  0.00    +0.000 A 
ATOM     12  C   UNL     1       7.731   5.003  12.134  0.00  0.00    +0.000 A 
ATOM     13  C   UNL     1       6.911   4.008  11.610  0.00  0.00    +0.000 A 
ATOM     14  C   UNL     1       5.993   3.360  12.433  0.00  0.00    +0.000 A 
ATOM     15  C   UNL     1       5.903   3.700  13.786  0.00  0.00    +0.000 A 
ENDBRANCH   3  10
BRANCH   1  16
ATOM     16  N   UNL     1       8.298   7.462  17.920  0.00  0.00    +0.000 N 
ATOM     17  H   UNL     1       8.724   7.255  18.822  0.00  0.00    +0.000 HD
BRANCH  16  18
ATOM     18  C   UNL     1       7.695   8.783  17.792  0.00  0.00    +0.000 C 
BRANCH  18  19
ATOM     19  C   UNL     1       8.747   9.873  17.968  0.00  0.00    +0.000 C 
BRANCH  19  20
ATOM     20  C   UNL     1       9.158   9.990  19.429  0.00  0.00    +0.000 C 
BRANCH  20  21
ATOM     21  O   UNL     1       9.271  11.364  19.776  0.00  0.00    +0.000 OA
ATOM     22  H   UNL     1      10.148  11.664  19.479  0.00  0.00    +0.000 HD
ENDBRANCH  20  21
ENDBRANCH  19  20
ENDBRANCH  18  19
ENDBRANCH  16  18
ENDBRANCH   1  16
BRANCH   9  23
ATOM     23  C   UNL     1       4.627   2.782  18.897  0.00  0.00    +0.000 C 
BRANCH  23  24
ATOM     24  C   UNL     1       3.156   2.851  19.213  0.00  0.00    +0.000 A 
ATOM     25  C   UNL     1       2.201   2.401  18.289  0.00  0.00    +0.000 A 
ATOM     26  C   UNL     1       0.850   2.340  18.641  0.00  0.00    +0.000 A 
ATOM     27  C   UNL     1       0.439   2.737  19.912  0.00  0.00    +0.000 A 
ATOM     28  C   UNL     1       1.374   3.225  20.823  0.00  0.00    +0.000 A 
ATOM     29  C   UNL     1       2.724   3.290  20.473  0.00  0.00    +0.000 A 
ENDBRANCH  23  24
ENDBRANCH   9  23
TORSDOF 8
ENDMDL
MODEL 4
REMARK VINA RESULT:      -8.1      4.202      7.770
REMARK  Name = 
REMARK  8 active torsions:
REMARK  status: ('A' for Active; 'I' for Inactive)
REMARK    1  A    between atoms: O_1  and  C_2
REMARK    2  A    between atoms: C_2  and  C_3
REMARK    3  A    between atoms: C_3  and  C_4
REMARK    4  A    between atoms: C_4  and  N_5
REMARK    5  A    between atoms: N_5  and  C_6
REMARK    6  A    between atoms: C_8  and  C_9
REMARK    7  A    between atoms: N_20  and  C_21
REMARK    8  A    between atoms: C_21  and  C_22
REMARK                            x       y       z     vdW  Elec       q    Type
REMARK                         _______ _______ _______ _____ _____    ______ ____
ROOT
ATOM      1  C   UNL     1       2.698   4.670  20.575  0.00  0.00    +0.000 A 
ATOM      2  N   UNL     1       2.103   5.877  20.365  0.00  0.00    +0.000 NA
ATOM      3  C   UNL     1       2.571   6.710  19.406  0.00  0.00    +0.000 A 
ATOM      4  N   UNL     1       3.614   6.483  18.579  0.00  0.00    +0.000 NA
ATOM      5  C   UNL     1       4.190   5.298  18.836  0.00  0.00    +0.000 A 
ATOM      6  C   UNL     1       3.816   4.363  19.782  0.00  0.00    +0.000 A 
ATOM      7  N   UNL     1       4.681   3.298  19.731  0.00  0.00    +0.000 NA
ATOM      8  N   UNL     1       5.611   3.563  18.814  0.00  0.00    +0.000 NA
ATOM      9  N   UNL     1       5.315   4.768  18.270  0.00  0.00    +0.000 N 
ENDROOT
BRANCH   3  10
ATOM     10  C   UNL     1       1.908   8.015  19.285  0.00  0.00    +0.000 A 
ATOM     11  C   UNL     1       1.266   8.603  20.389  0.00  0.00    +0.000 A 
ATOM     12  C   UNL     1       0.662   9.858  20.292  0.00  0.00    +0.000 A 
ATOM     13  C   UNL     1       0.675  10.543  19.080  0.00  0.00    +0.000 A 
ATOM     14  C   UNL     1       1.293   9.976  17.969  0.00  0.00    +0.000 A 
ATOM     15  C   UNL     1       1.909   8.726  18.071  0.00  0.00    +0.000 A 
ENDBRANCH   3  10
BRANCH   1  16
ATOM     16  N   UNL     1       2.204   3.818  21.573  0.00  0.00    +0.000 N 
ATOM     17  H   UNL     1       2.908   3.638  22.286  0.00  0.00    +0.000 HD
BRANCH  16  18
ATOM     18  C   UNL     1       1.508   2.644  21.059  0.00  0.00    +0.000 C 
BRANCH  18  19
ATOM     19  C   UNL     1       0.580   3.028  19.912  0.00  0.00    +0.000 C 
BRANCH  19  20
ATOM     20  C   UNL     1       0.916   2.230  18.660  0.00  0.00    +0.000 C 
BRANCH  20  21
ATOM     21  O   UNL     1       2.141   1.538  18.859  0.00  0.00    +0.000 OA
ATOM     22  H   UNL     1       2.034   0.988  19.655  0.00  0.00    +0.000 HD
ENDBRANCH  20  21
ENDBRANCH  19  20
ENDBRANCH  18  19
ENDBRANCH  16  18
ENDBRANCH   1  16
BRANCH   9  23
ATOM     23  C   UNL     1       6.277   5.479  17.452  0.00  0.00    +0.000 C 
BRANCH  23  24
ATOM     24  C   UNL     1       6.267   5.072  16.002  0.00  0.00    +0.000 A 
ATOM     25  C   UNL     1       7.405   5.243  15.200  0.00  0.00    +0.000 A 
ATOM     26  C   UNL     1       7.434   4.739  13.897  0.00  0.00    +0.000 A 
ATOM     27  C   UNL     1       6.325   4.071  13.380  0.00  0.00    +0.000 A 
ATOM     28  C   UNL     1       5.175   3.933  14.153  0.00  0.00    +0.000 A 
ATOM     29  C   UNL     1       5.142   4.437  15.455  0.00  0.00    +0.000 A 
ENDBRANCH  23  24
ENDBRANCH   9  23
TORSDOF 8
ENDMDL
MODEL 5
REMARK VINA RESULT:      -8.1      5.516      7.166
REMARK  Name = 
REMARK  8 active torsions:
REMARK  status: ('A' for Active; 'I' for Inactive)
REMARK    1  A    between atoms: O_1  and  C_2
REMARK    2  A    between atoms: C_2  and  C_3
REMARK    3  A    between atoms: C_3  and  C_4
REMARK    4  A    between atoms: C_4  and  N_5
REMARK    5  A    between atoms: N_5  and  C_6
REMARK    6  A    between atoms: C_8  and  C_9
REMARK    7  A    between atoms: N_20  and  C_21
REMARK    8  A    between atoms: C_21  and  C_22
REMARK                            x       y       z     vdW  Elec       q    Type
REMARK                         _______ _______ _______ _____ _____    ______ ____
ROOT
ATOM      1  C   UNL     1       2.623   5.695  20.274  0.00  0.00    +0.000 A 
ATOM      2  N   UNL     1       3.401   5.292  19.232  0.00  0.00    +0.000 NA
ATOM      3  C   UNL     1       3.614   6.119  18.181  0.00  0.00    +0.000 A 
ATOM      4  N   UNL     1       3.128   7.368  18.025  0.00  0.00    +0.000 NA
ATOM      5  C   UNL     1       2.343   7.717  19.058  0.00  0.00    +0.000 A 
ATOM      6  C   UNL     1       2.043   6.970  20.182  0.00  0.00    +0.000 A 
ATOM      7  N   UNL     1       1.191   7.687  20.985  0.00  0.00    +0.000 NA
ATOM      8  N   UNL     1       0.913   8.838  20.372  0.00  0.00    +0.000 NA
ATOM      9  N   UNL     1       1.610   8.860  19.211  0.00  0.00    +0.000 N 
ENDROOT
BRANCH   3  10
ATOM     10  C   UNL     1       4.418   5.584  17.073  0.00  0.00    +0.000 A 
ATOM     11  C   UNL     1       4.634   4.201  16.942  0.00  0.00    +0.000 A 
ATOM     12  C   UNL     1       5.369   3.681  15.874  0.00  0.00    +0.000 A 
ATOM     13  C   UNL     1       5.916   4.540  14.924  0.00  0.00    +0.000 A 
ATOM     14  C   UNL     1       5.727   5.914  15.041  0.00  0.00    +0.000 A 
ATOM     15  C   UNL     1       4.979   6.432  16.102  0.00  0.00    +0.000 A 
ENDBRANCH   3  10
BRANCH   1  16
ATOM     16  N   UNL     1       2.409   4.828  21.355  0.00  0.00    +0.000 N 
ATOM     17  H   UNL     1       3.065   5.013  22.112  0.00  0.00    +0.000 HD
BRANCH  16  18
ATOM     18  C   UNL     1       2.260   3.428  20.973  0.00  0.00    +0.000 C 
BRANCH  18  19
ATOM     19  C   UNL     1       0.865   3.169  20.414  0.00  0.00    +0.000 C 
BRANCH  19  20
ATOM     20  C   UNL     1       0.951   2.574  19.014  0.00  0.00    +0.000 C 
BRANCH  20  21
ATOM     21  O   UNL     1       2.315   2.377  18.671  0.00  0.00    +0.000 OA
ATOM     22  H   UNL     1       2.823   2.374  19.501  0.00  0.00    +0.000 HD
ENDBRANCH  20  21
ENDBRANCH  19  20
ENDBRANCH  18  19
ENDBRANCH  16  18
ENDBRANCH   1  16
BRANCH   9  23
ATOM     23  C   UNL     1       1.317   9.831  18.178  0.00  0.00    +0.000 C 
BRANCH  23  24
ATOM     24  C   UNL     1      -0.082  10.386  18.239  0.00  0.00    +0.000 A 
ATOM     25  C   UNL     1      -0.337  11.627  18.842  0.00  0.00    +0.000 A 
ATOM     26  C   UNL     1      -1.610  12.199  18.774  0.00  0.00    +0.000 A 
ATOM     27  C   UNL     1      -2.642  11.533  18.115  0.00  0.00    +0.000 A 
ATOM     28  C   UNL     1      -2.410  10.281  17.549  0.00  0.00    +0.000 A 
ATOM     29  C   UNL     1      -1.139   9.706  17.617  0.00  0.00    +0.000 A 
ENDBRANCH  23  24
ENDBRANCH   9  23
TORSDOF 8
ENDMDL
MODEL 6
REMARK VINA RESULT:      -7.9      0.644      1.466
REMARK  Name = 
REMARK  8 active torsions:
REMARK  status: ('A' for Active; 'I' for Inactive)
REMARK    1  A    between atoms: O_1  and  C_2
REMARK    2  A    between atoms: C_2  and  C_3
REMARK    3  A    between atoms: C_3  and  C_4
REMARK    4  A    between atoms: C_4  and  N_5
REMARK    5  A    between atoms: N_5  and  C_6
REMARK    6  A    between atoms: C_8  and  C_9
REMARK    7  A    between atoms: N_20  and  C_21
REMARK    8  A    between atoms: C_21  and  C_22
REMARK                            x       y       z     vdW  Elec       q    Type
REMARK                         _______ _______ _______ _____ _____    ______ ____
ROOT
ATOM      1  C   UNL     1       7.363   6.325  16.921  0.00  0.00    +0.000 A 
ATOM      2  N   UNL     1       7.150   5.838  15.667  0.00  0.00    +0.000 NA
ATOM      3  C   UNL     1       6.304   4.798  15.474  0.00  0.00    +0.000 A 
ATOM      4  N   UNL     1       5.598   4.146  16.422  0.00  0.00    +0.000 NA
ATOM      5  C   UNL     1       5.856   4.636  17.645  0.00  0.00    +0.000 A 
ATOM      6  C   UNL     1       6.696   5.683  17.976  0.00  0.00    +0.000 A 
ATOM      7  N   UNL     1       6.689   5.851  19.340  0.00  0.00    +0.000 NA
ATOM      8  N   UNL     1       5.909   4.910  19.870  0.00  0.00    +0.000 NA
ATOM      9  N   UNL     1       5.402   4.177  18.849  0.00  0.00    +0.000 N 
ENDROOT
BRANCH   3  10
ATOM     10  C   UNL     1       6.178   4.297  14.099  0.00  0.00    +0.000 A 
ATOM     11  C   UNL     1       4.968   3.746  13.640  0.00  0.00    +0.000 A 
ATOM     12  C   UNL     1       4.829   3.298  12.325  0.00  0.00    +0.000 A 
ATOM     13  C   UNL     1       5.906   3.378  11.446  0.00  0.00    +0.000 A 
ATOM     14  C   UNL     1       7.118   3.909  11.881  0.00  0.00    +0.000 A 
ATOM     15  C   UNL     1       7.251   4.370  13.194  0.00  0.00    +0.000 A 
ENDBRANCH   3  10
BRANCH   1  16
ATOM     16  N   UNL     1       8.243   7.400  17.107  0.00  0.00    +0.000 N 
ATOM     17  H   UNL     1       9.109   7.096  17.547  0.00  0.00    +0.000 HD
BRANCH  16  18
ATOM     18  C   UNL     1       7.619   8.584  17.686  0.00  0.00    +0.000 C 
BRANCH  18  19
ATOM     19  C   UNL     1       8.621   9.359  18.535  0.00  0.00    +0.000 C 
BRANCH  19  20
ATOM     20  C   UNL     1       8.747  10.794  18.040  0.00  0.00    +0.000 C 
BRANCH  20  21
ATOM     21  O   UNL     1      10.119  11.103  17.838  0.00  0.00    +0.000 OA
ATOM     22  H   UNL     1      10.602  10.789  18.622  0.00  0.00    +0.000 HD
ENDBRANCH  20  21
ENDBRANCH  19  20
ENDBRANCH  18  19
ENDBRANCH  16  18
ENDBRANCH   1  16
BRANCH   9  23
ATOM     23  C   UNL     1       4.749   2.907  19.089  0.00  0.00    +0.000 C 
BRANCH  23  24
ATOM     24  C   UNL     1       3.278   3.022  19.387  0.00  0.00    +0.000 A 
ATOM     25  C   UNL     1       2.336   3.083  18.349  0.00  0.00    +0.000 A 
ATOM     26  C   UNL     1       0.968   3.050  18.631  0.00  0.00    +0.000 A 
ATOM     27  C   UNL     1       0.528   2.969  19.951  0.00  0.00    +0.000 A 
ATOM     28  C   UNL     1       1.453   2.949  20.992  0.00  0.00    +0.000 A 
ATOM     29  C   UNL     1       2.821   2.984  20.713  0.00  0.00    +0.000 A 
ENDBRANCH  23  24
ENDBRANCH   9  23
TORSDOF 8
ENDMDL
MODEL 7
REMARK VINA RESULT:      -7.9      4.115      7.703
REMARK  Name = 
REMARK  8 active torsions:
REMARK  status: ('A' for Active; 'I' for Inactive)
REMARK    1  A    between atoms: O_1  and  C_2
REMARK    2  A    between atoms: C_2  and  C_3
REMARK    3  A    between atoms: C_3  and  C_4
REMARK    4  A    between atoms: C_4  and  N_5
REMARK    5  A    between atoms: N_5  and  C_6
REMARK    6  A    between atoms: C_8  and  C_9
REMARK    7  A    between atoms: N_20  and  C_21
REMARK    8  A    between atoms: C_21  and  C_22
REMARK                            x       y       z     vdW  Elec       q    Type
REMARK                         _______ _______ _______ _____ _____    ______ ____
ROOT
ATOM      1  C   UNL     1       2.843   4.723  20.480  0.00  0.00    +0.000 A 
ATOM      2  N   UNL     1       2.213   5.916  20.290  0.00  0.00    +0.000 NA
ATOM      3  C   UNL     1       2.627   6.757  19.313  0.00  0.00    +0.000 A 
ATOM      4  N   UNL     1       3.642   6.551  18.448  0.00  0.00    +0.000 NA
ATOM      5  C   UNL     1       4.255   5.380  18.686  0.00  0.00    +0.000 A 
ATOM      6  C   UNL     1       3.937   4.440  19.647  0.00  0.00    +0.000 A 
ATOM      7  N   UNL     1       4.823   3.394  19.565  0.00  0.00    +0.000 NA
ATOM      8  N   UNL     1       5.713   3.678  18.614  0.00  0.00    +0.000 NA
ATOM      9  N   UNL     1       5.370   4.875  18.079  0.00  0.00    +0.000 N 
ENDROOT
BRANCH   3  10
ATOM     10  C   UNL     1       1.930   8.047  19.214  0.00  0.00    +0.000 A 
ATOM     11  C   UNL     1       1.906   8.762  18.004  0.00  0.00    +0.000 A 
ATOM     12  C   UNL     1       1.218   9.973  17.893  0.00  0.00    +0.000 A 
ATOM     13  C   UNL     1       0.554  10.499  18.998  0.00  0.00    +0.000 A 
ATOM     14  C   UNL     1       0.575   9.814  20.210  0.00  0.00    +0.000 A 
ATOM     15  C   UNL     1       1.252   8.596  20.316  0.00  0.00    +0.000 A 
ENDBRANCH   3  10
BRANCH   1  16
ATOM     16  N   UNL     1       2.406   3.863  21.497  0.00  0.00    +0.000 N 
ATOM     17  H   UNL     1       3.134   3.716  22.194  0.00  0.00    +0.000 HD
BRANCH  16  18
ATOM     18  C   UNL     1       1.740   2.659  21.011  0.00  0.00    +0.000 C 
BRANCH  18  19
ATOM     19  C   UNL     1       0.629   3.018  20.032  0.00  0.00    +0.000 C 
BRANCH  19  20
ATOM     20  C   UNL     1       0.893   2.393  18.669  0.00  0.00    +0.000 C 
BRANCH  20  21
ATOM     21  O   UNL     1       1.196   3.418  17.733  0.00  0.00    +0.000 OA
ATOM     22  H   UNL     1       2.071   3.216  17.359  0.00  0.00    +0.000 HD
ENDBRANCH  20  21
ENDBRANCH  19  20
ENDBRANCH  18  19
ENDBRANCH  16  18
ENDBRANCH   1  16
BRANCH   9  23
ATOM     23  C   UNL     1       6.284   5.604  17.225  0.00  0.00    +0.000 C 
BRANCH  23  24
ATOM     24  C   UNL     1       6.286   5.141  15.792  0.00  0.00    +0.000 A 
ATOM     25  C   UNL     1       7.409   5.337  14.975  0.00  0.00    +0.000 A 
ATOM     26  C   UNL     1       7.456   4.784  13.692  0.00  0.00    +0.000 A 
ATOM     27  C   UNL     1       6.379   4.041  13.211  0.00  0.00    +0.000 A 
ATOM     28  C   UNL     1       5.242   3.875  13.998  0.00  0.00    +0.000 A 
ATOM     29  C   UNL     1       5.191   4.429  15.279  0.00  0.00    +0.000 A 
ENDBRANCH  23  24
ENDBRANCH   9  23
TORSDOF 8
ENDMDL
MODEL 8
REMARK VINA RESULT:      -7.8      3.130      4.923
REMARK  Name = 
REMARK  8 active torsions:
REMARK  status: ('A' for Active; 'I' for Inactive)
REMARK    1  A    between atoms: O_1  and  C_2
REMARK    2  A    between atoms: C_2  and  C_3
REMARK    3  A    between atoms: C_3  and  C_4
REMARK    4  A    between atoms: C_4  and  N_5
REMARK    5  A    between atoms: N_5  and  C_6
REMARK    6  A    between atoms: C_8  and  C_9
REMARK    7  A    between atoms: N_20  and  C_21
REMARK    8  A    between atoms: C_21  and  C_22
REMARK                            x       y       z     vdW  Elec       q    Type
REMARK                         _______ _______ _______ _____ _____    ______ ____
ROOT
ATOM      1  C   UNL     1       5.561   6.811  17.146  0.00  0.00    +0.000 A 
ATOM      2  N   UNL     1       4.578   7.597  17.667  0.00  0.00    +0.000 NA
ATOM      3  C   UNL     1       3.449   7.037  18.162  0.00  0.00    +0.000 A 
ATOM      4  N   UNL     1       3.156   5.720  18.213  0.00  0.00    +0.000 NA
ATOM      5  C   UNL     1       4.136   4.982  17.665  0.00  0.00    +0.000 A 
ATOM      6  C   UNL     1       5.327   5.427  17.124  0.00  0.00    +0.000 A 
ATOM      7  N   UNL     1       6.039   4.350  16.655  0.00  0.00    +0.000 NA
ATOM      8  N   UNL     1       5.304   3.254  16.843  0.00  0.00    +0.000 NA
ATOM      9  N   UNL     1       4.156   3.632  17.456  0.00  0.00    +0.000 N 
ENDROOT
BRANCH   3  10
ATOM     10  C   UNL     1       2.415   7.959  18.651  0.00  0.00    +0.000 A 
ATOM     11  C   UNL     1       1.840   8.916  17.796  0.00  0.00    +0.000 A 
ATOM     12  C   UNL     1       0.834   9.775  18.243  0.00  0.00    +0.000 A 
ATOM     13  C   UNL     1       0.395   9.703  19.563  0.00  0.00    +0.000 A 
ATOM     14  C   UNL     1       0.959   8.772  20.432  0.00  0.00    +0.000 A 
ATOM     15  C   UNL     1       1.956   7.904  19.979  0.00  0.00    +0.000 A 
ENDBRANCH   3  10
BRANCH   1  16
ATOM     16  N   UNL     1       6.724   7.404  16.634  0.00  0.00    +0.000 N 
ATOM     17  H   UNL     1       7.053   6.915  15.804  0.00  0.00    +0.000 HD
BRANCH  16  18
ATOM     18  C   UNL     1       7.737   7.691  17.643  0.00  0.00    +0.000 C 
BRANCH  18  19
ATOM     19  C   UNL     1       8.016   9.188  17.715  0.00  0.00    +0.000 C 
BRANCH  19  20
ATOM     20  C   UNL     1       8.896   9.512  18.914  0.00  0.00    +0.000 C 
BRANCH  20  21
ATOM     21  O   UNL     1       9.515  10.776  18.715  0.00  0.00    +0.000 OA
ATOM     22  H   UNL     1      10.361  10.613  18.264  0.00  0.00    +0.000 HD
ENDBRANCH  20  21
ENDBRANCH  19  20
ENDBRANCH  18  19
ENDBRANCH  16  18
ENDBRANCH   1  16
BRANCH   9  23
ATOM     23  C   UNL     1       3.023   2.736  17.546  0.00  0.00    +0.000 C 
BRANCH  23  24
ATOM     24  C   UNL     1       2.403   2.667  18.917  0.00  0.00    +0.000 A 
ATOM     25  C   UNL     1       3.194   2.439  20.053  0.00  0.00    +0.000 A 
ATOM     26  C   UNL     1       2.635   2.514  21.331  0.00  0.00    +0.000 A 
ATOM     27  C   UNL     1       1.281   2.803  21.487  0.00  0.00    +0.000 A 
ATOM     28  C   UNL     1       0.477   2.990  20.364  0.00  0.00    +0.000 A 
ATOM     29  C   UNL     1       1.033   2.914  19.085  0.00  0.00    +0.000 A 
ENDBRANCH  23  24
ENDBRANCH   9  23
TORSDOF 8
ENDMDL
MODEL 9
REMARK VINA RESULT:      -7.8      4.275      7.873
REMARK  Name = 
REMARK  8 active torsions:
REMARK  status: ('A' for Active; 'I' for Inactive)
REMARK    1  A    between atoms: O_1  and  C_2
REMARK    2  A    between atoms: C_2  and  C_3
REMARK    3  A    between atoms: C_3  and  C_4
REMARK    4  A    between atoms: C_4  and  N_5
REMARK    5  A    between atoms: N_5  and  C_6
REMARK    6  A    between atoms: C_8  and  C_9
REMARK    7  A    between atoms: N_20  and  C_21
REMARK    8  A    between atoms: C_21  and  C_22
REMARK                            x       y       z     vdW  Elec       q    Type
REMARK                         _______ _______ _______ _____ _____    ______ ____
ROOT
ATOM      1  C   UNL     1       2.813   4.904  20.322  0.00  0.00    +0.000 A 
ATOM      2  N   UNL     1       2.178   6.105  20.226  0.00  0.00    +0.000 NA
ATOM      3  C   UNL     1       2.492   6.964  19.227  0.00  0.00    +0.000 A 
ATOM      4  N   UNL     1       3.406   6.771  18.254  0.00  0.00    +0.000 NA
ATOM      5  C   UNL     1       4.029   5.590  18.399  0.00  0.00    +0.000 A 
ATOM      6  C   UNL     1       3.808   4.631  19.369  0.00  0.00    +0.000 A 
ATOM      7  N   UNL     1       4.671   3.581  19.170  0.00  0.00    +0.000 NA
ATOM      8  N   UNL     1       5.455   3.880  18.135  0.00  0.00    +0.000 NA
ATOM      9  N   UNL     1       5.068   5.090  17.665  0.00  0.00    +0.000 N 
ENDROOT
BRANCH   3  10
ATOM     10  C   UNL     1       1.801   8.261  19.232  0.00  0.00    +0.000 A 
ATOM     11  C   UNL     1       1.779   9.071  18.083  0.00  0.00    +0.000 A 
ATOM     12  C   UNL     1       1.098  10.289  18.068  0.00  0.00    +0.000 A 
ATOM     13  C   UNL     1       0.436  10.729  19.212  0.00  0.00    +0.000 A 
ATOM     14  C   UNL     1       0.454   9.950  20.366  0.00  0.00    +0.000 A 
ATOM     15  C   UNL     1       1.125   8.725  20.375  0.00  0.00    +0.000 A 
ENDBRANCH   3  10
BRANCH   1  16
ATOM     16  N   UNL     1       2.480   4.025  21.361  0.00  0.00    +0.000 N 
ATOM     17  H   UNL     1       3.232   3.960  22.045  0.00  0.00    +0.000 HD
BRANCH  16  18
ATOM     18  C   UNL     1       1.923   2.755  20.909  0.00  0.00    +0.000 C 
BRANCH  18  19
ATOM     19  C   UNL     1       0.723   2.988  19.999  0.00  0.00    +0.000 C 
BRANCH  19  20
ATOM     20  C   UNL     1       0.915   2.278  18.666  0.00  0.00    +0.000 C 
BRANCH  20  21
ATOM     21  O   UNL     1       2.184   1.640  18.653  0.00  0.00    +0.000 OA
ATOM     22  H   UNL     1       2.306   1.225  19.525  0.00  0.00    +0.000 HD
ENDBRANCH  20  21
ENDBRANCH  19  20
ENDBRANCH  18  19
ENDBRANCH  16  18
ENDBRANCH   1  16
BRANCH   9  23
ATOM     23  C   UNL     1       5.891   5.832  16.733  0.00  0.00    +0.000 C 
BRANCH  23  24
ATOM     24  C   UNL     1       6.132   5.120  15.428  0.00  0.00    +0.000 A 
ATOM     25  C   UNL     1       5.131   4.329  14.845  0.00  0.00    +0.000 A 
ATOM     26  C   UNL     1       5.312   3.784  13.571  0.00  0.00    +0.000 A 
ATOM     27  C   UNL     1       6.497   4.014  12.873  0.00  0.00    +0.000 A 
ATOM     28  C   UNL     1       7.514   4.763  13.461  0.00  0.00    +0.000 A 
ATOM     29  C   UNL     1       7.337   5.307  14.735  0.00  0.00    +0.000 A 
ENDBRANCH  23  24
ENDBRANCH   9  23
TORSDOF 8
ENDMDL
