MODEL 1
REMARK VINA RESULT:      -8.9      0.000      0.000
REMARK  Name = 
REMARK  4 active torsions:
REMARK  status: ('A' for Active; 'I' for Inactive)
REMARK    1  A    between atoms: C_5  and  C_6
REMARK    2  A    between atoms: C_6  and  N_7
REMARK    3  A    between atoms: C_9  and  C_10
REMARK    4  A    between atoms: C_12  and  C_13
REMARK                            x       y       z     vdW  Elec       q    Type
REMARK                         _______ _______ _______ _____ _____    ______ ____
ROOT
ATOM      1  N   UNL     1       2.606   5.619  19.828  0.00  0.00    +0.000 N 
ATOM      2  C   UNL     1       3.885   5.893  19.419  0.00  0.00    +0.000 A 
ATOM      3  C   UNL     1       4.346   4.840  18.655  0.00  0.00    +0.000 A 
ATOM      4  C   UNL     1       3.290   3.875  18.608  0.00  0.00    +0.000 A 
ATOM      5  C   UNL     1       3.162   2.599  18.018  0.00  0.00    +0.000 A 
ATOM      6  C   UNL     1       1.976   1.875  18.178  0.00  0.00    +0.000 A 
ATOM      7  C   UNL     1       0.915   2.411  18.899  0.00  0.00    +0.000 A 
ATOM      8  C   UNL     1       1.009   3.677  19.485  0.00  0.00    +0.000 A 
ATOM      9  C   UNL     1       2.212   4.390  19.336  0.00  0.00    +0.000 A 
ENDROOT
BRANCH   3  10
ATOM     10  C   UNL     1       5.697   4.730  18.012  0.00  0.00    +0.000 C 
ATOM     11  C   UNL     1       5.655   3.968  16.706  0.00  0.00    +0.000 C 
ATOM     12  C   UNL     1       6.301   4.957  15.805  0.00  0.00    +0.000 C 
ATOM     13  N   UNL     1       6.632   6.080  16.355  0.00  0.00    +0.000 NA
ATOM     14  O   UNL     1       6.251   6.027  17.714  0.00  0.00    +0.000 OA
BRANCH  12  15
ATOM     15  C   UNL     1       6.551   4.661  14.377  0.00  0.00    +0.000 A 
ATOM     16  C   UNL     1       5.767   3.745  13.675  0.00  0.00    +0.000 A 
ATOM     17  C   UNL     1       6.082   3.504  12.350  0.00  0.00    +0.000 A 
ATOM     18  N   UNL     1       7.099   4.106  11.698  0.00  0.00    +0.000 NA
ATOM     19  C   UNL     1       7.836   4.995  12.398  0.00  0.00    +0.000 A 
ATOM     20  C   UNL     1       7.604   5.304  13.726  0.00  0.00    +0.000 A 
ENDBRANCH  12  15
ENDBRANCH   3  10
BRANCH   1  21
ATOM     21  C   UNL     1       1.872   6.435  20.791  0.00  0.00    +0.000 C 
BRANCH  21  26
ATOM     22 CL   UNL     1       0.504  11.946  18.746  0.00  0.00    +0.000 Cl
ATOM     23  C   UNL     1       0.945  10.396  19.349  0.00  0.00    +0.000 A 
ATOM     24  C   UNL     1       1.512   9.456  18.492  0.00  0.00    +0.000 A 
ATOM     25  C   UNL     1       1.843   8.186  18.973  0.00  0.00    +0.000 A 
ATOM     26  C   UNL     1       1.609   7.845  20.315  0.00  0.00    +0.000 A 
ATOM     27  C   UNL     1       1.047   8.810  21.166  0.00  0.00    +0.000 A 
ATOM     28  C   UNL     1       0.718  10.081  20.685  0.00  0.00    +0.000 A 
ENDBRANCH  21  26
ENDBRANCH   1  21
TORSDOF 4
ENDMDL
MODEL 2
REMARK VINA RESULT:      -8.9      0.253      1.295
REMARK  Name = 
REMARK  4 active torsions:
REMARK  status: ('A' for Active; 'I' for Inactive)
REMARK    1  A    between atoms: C_5  and  C_6
REMARK    2  A    between atoms: C_6  and  N_7
REMARK    3  A    between atoms: C_9  and  C_10
REMARK    4  A    between atoms: C_12  and  C_13
REMARK                            x       y       z     vdW  Elec       q    Type
REMARK                         _______ _______ _______ _____ _____    ______ ____
ROOT
ATOM      1  N   UNL     1       2.885   5.650  19.754  0.00  0.00    +0.000 N 
ATOM      2  C   UNL     1       4.172   5.889  19.348  0.00  0.00    +0.000 A 
ATOM      3  C   UNL     1       4.589   4.849  18.543  0.00  0.00    +0.000 A 
ATOM      4  C   UNL     1       3.495   3.928  18.465  0.00  0.00    +0.000 A 
ATOM      5  C   UNL     1       3.315   2.680  17.830  0.00  0.00    +0.000 A 
ATOM      6  C   UNL     1       2.102   1.997  17.969  0.00  0.00    +0.000 A 
ATOM      7  C   UNL     1       1.066   2.547  18.716  0.00  0.00    +0.000 A 
ATOM      8  C   UNL     1       1.212   3.785  19.348  0.00  0.00    +0.000 A 
ATOM      9  C   UNL     1       2.441   4.457  19.218  0.00  0.00    +0.000 A 
ENDROOT
BRANCH   3  10
ATOM     10  C   UNL     1       5.931   4.710  17.888  0.00  0.00    +0.000 C 
ATOM     11  C   UNL     1       5.860   3.964  16.574  0.00  0.00    +0.000 C 
ATOM     12  C   UNL     1       6.525   4.946  15.679  0.00  0.00    +0.000 C 
ATOM     13  N   UNL     1       6.890   6.054  16.238  0.00  0.00    +0.000 NA
ATOM     14  O   UNL     1       6.517   5.995  17.600  0.00  0.00    +0.000 OA
BRANCH  12  15
ATOM     15  C   UNL     1       6.757   4.659  14.246  0.00  0.00    +0.000 A 
ATOM     16  C   UNL     1       7.727   5.343  13.514  0.00  0.00    +0.000 A 
ATOM     17  C   UNL     1       7.864   5.035  12.172  0.00  0.00    +0.000 A 
ATOM     18  N   UNL     1       7.116   4.110  11.534  0.00  0.00    +0.000 NA
ATOM     19  C   UNL     1       6.190   3.457  12.269  0.00  0.00    +0.000 A 
ATOM     20  C   UNL     1       5.975   3.693  13.614  0.00  0.00    +0.000 A 
ENDBRANCH  12  15
ENDBRANCH   3  10
BRANCH   1  21
ATOM     21  C   UNL     1       2.187   6.458  20.750  0.00  0.00    +0.000 C 
BRANCH  21  26
ATOM     22 CL   UNL     1       0.280  11.819  18.739  0.00  0.00    +0.000 Cl
ATOM     23  C   UNL     1       0.778  10.265  19.286  0.00  0.00    +0.000 A 
ATOM     24  C   UNL     1       0.447   9.846  20.572  0.00  0.00    +0.000 A 
ATOM     25  C   UNL     1       0.875   8.596  21.028  0.00  0.00    +0.000 A 
ATOM     26  C   UNL     1       1.641   7.756  20.203  0.00  0.00    +0.000 A 
ATOM     27  C   UNL     1       1.955   8.192  18.906  0.00  0.00    +0.000 A 
ATOM     28  C   UNL     1       1.524   9.442  18.449  0.00  0.00    +0.000 A 
ENDBRANCH  21  26
ENDBRANCH   1  21
TORSDOF 4
ENDMDL
MODEL 3
REMARK VINA RESULT:      -8.8      3.962      6.861
REMARK  Name = 
REMARK  4 active torsions:
REMARK  status: ('A' for Active; 'I' for Inactive)
REMARK    1  A    between atoms: C_5  and  C_6
REMARK    2  A    between atoms: C_6  and  N_7
REMARK    3  A    between atoms: C_9  and  C_10
REMARK    4  A    between atoms: C_12  and  C_13
REMARK                            x       y       z     vdW  Elec       q    Type
REMARK                         _______ _______ _______ _____ _____    ______ ____
ROOT
ATOM      1  N   UNL     1      -0.281  10.820  19.423  0.00  0.00    +0.000 N 
ATOM      2  C   UNL     1       0.656  10.031  18.808  0.00  0.00    +0.000 A 
ATOM      3  C   UNL     1       1.231   9.201  19.749  0.00  0.00    +0.000 A 
ATOM      4  C   UNL     1       0.612   9.513  21.002  0.00  0.00    +0.000 A 
ATOM      5  C   UNL     1       0.786   9.037  22.320  0.00  0.00    +0.000 A 
ATOM      6  C   UNL     1       0.022   9.577  23.361  0.00  0.00    +0.000 A 
ATOM      7  C   UNL     1      -0.919  10.566  23.103  0.00  0.00    +0.000 A 
ATOM      8  C   UNL     1      -1.120  11.050  21.807  0.00  0.00    +0.000 A 
ATOM      9  C   UNL     1      -0.336  10.516  20.769  0.00  0.00    +0.000 A 
ENDROOT
BRANCH   3  10
ATOM     10  C   UNL     1       2.304   8.182  19.503  0.00  0.00    +0.000 C 
ATOM     11  C   UNL     1       1.965   6.832  20.095  0.00  0.00    +0.000 C 
ATOM     12  C   UNL     1       2.124   5.972  18.893  0.00  0.00    +0.000 C 
ATOM     13  N   UNL     1       2.434   6.591  17.801  0.00  0.00    +0.000 NA
ATOM     14  O   UNL     1       2.522   7.970  18.094  0.00  0.00    +0.000 OA
BRANCH  12  15
ATOM     15  C   UNL     1       1.946   4.504  18.958  0.00  0.00    +0.000 A 
ATOM     16  C   UNL     1       1.328   3.894  20.049  0.00  0.00    +0.000 A 
ATOM     17  C   UNL     1       1.223   2.514  20.046  0.00  0.00    +0.000 A 
ATOM     18  N   UNL     1       1.680   1.729  19.048  0.00  0.00    +0.000 NA
ATOM     19  C   UNL     1       2.266   2.347  18.000  0.00  0.00    +0.000 A 
ATOM     20  C   UNL     1       2.420   3.717  17.909  0.00  0.00    +0.000 A 
ENDBRANCH  12  15
ENDBRANCH   3  10
BRANCH   1  21
ATOM     21  C   UNL     1      -0.963  11.930  18.764  0.00  0.00    +0.000 C 
BRANCH  21  26
ATOM     22 CL   UNL     1      -6.876  10.795  18.355  0.00  0.00    +0.000 Cl
ATOM     23  C   UNL     1      -5.197  11.164  18.435  0.00  0.00    +0.000 A 
ATOM     24  C   UNL     1      -4.300  10.485  17.616  0.00  0.00    +0.000 A 
ATOM     25  C   UNL     1      -2.933  10.763  17.701  0.00  0.00    +0.000 A 
ATOM     26  C   UNL     1      -2.451  11.721  18.608  0.00  0.00    +0.000 A 
ATOM     27  C   UNL     1      -3.373  12.402  19.418  0.00  0.00    +0.000 A 
ATOM     28  C   UNL     1      -4.741  12.126  19.331  0.00  0.00    +0.000 A 
ENDBRANCH  21  26
ENDBRANCH   1  21
TORSDOF 4
ENDMDL
MODEL 4
REMARK VINA RESULT:      -8.8      5.016      9.912
REMARK  Name = 
REMARK  4 active torsions:
REMARK  status: ('A' for Active; 'I' for Inactive)
REMARK    1  A    between atoms: C_5  and  C_6
REMARK    2  A    between atoms: C_6  and  N_7
REMARK    3  A    between atoms: C_9  and  C_10
REMARK    4  A    between atoms: C_12  and  C_13
REMARK                            x       y       z     vdW  Elec       q    Type
REMARK                         _______ _______ _______ _____ _____    ______ ____
ROOT
ATOM      1  N   UNL     1       1.648   8.598  19.533  0.00  0.00    +0.000 N 
ATOM      2  C   UNL     1       1.021   9.136  18.440  0.00  0.00    +0.000 A 
ATOM      3  C   UNL     1      -0.004   9.955  18.870  0.00  0.00    +0.000 A 
ATOM      4  C   UNL     1       0.002   9.901  20.300  0.00  0.00    +0.000 A 
ATOM      5  C   UNL     1      -0.805  10.487  21.301  0.00  0.00    +0.000 A 
ATOM      6  C   UNL     1      -0.550  10.211  22.648  0.00  0.00    +0.000 A 
ATOM      7  C   UNL     1       0.502   9.378  23.011  0.00  0.00    +0.000 A 
ATOM      8  C   UNL     1       1.323   8.793  22.042  0.00  0.00    +0.000 A 
ATOM      9  C   UNL     1       1.049   9.059  20.689  0.00  0.00    +0.000 A 
ENDROOT
BRANCH   3  10
ATOM     10  C   UNL     1      -0.945  10.736  18.001  0.00  0.00    +0.000 C 
ATOM     11  C   UNL     1      -2.387  10.317  18.187  0.00  0.00    +0.000 C 
ATOM     12  C   UNL     1      -3.004  11.634  18.494  0.00  0.00    +0.000 C 
ATOM     13  N   UNL     1      -2.188  12.635  18.545  0.00  0.00    +0.000 NA
ATOM     14  O   UNL     1      -0.887  12.147  18.290  0.00  0.00    +0.000 OA
BRANCH  12  15
ATOM     15  C   UNL     1      -4.460  11.777  18.716  0.00  0.00    +0.000 A 
ATOM     16  C   UNL     1      -4.966  12.382  19.867  0.00  0.00    +0.000 A 
ATOM     17  C   UNL     1      -6.340  12.453  20.012  0.00  0.00    +0.000 A 
ATOM     18  N   UNL     1      -7.216  11.975  19.103  0.00  0.00    +0.000 NA
ATOM     19  C   UNL     1      -6.700  11.402  17.995  0.00  0.00    +0.000 A 
ATOM     20  C   UNL     1      -5.343  11.281  17.757  0.00  0.00    +0.000 A 
ENDBRANCH  12  15
ENDBRANCH   3  10
BRANCH   1  21
ATOM     21  C   UNL     1       2.668   7.557  19.450  0.00  0.00    +0.000 C 
BRANCH  21  26
ATOM     22 CL   UNL     1       0.752   1.868  18.827  0.00  0.00    +0.000 Cl
ATOM     23  C   UNL     1       1.242   3.508  19.001  0.00  0.00    +0.000 A 
ATOM     24  C   UNL     1       1.685   4.219  17.889  0.00  0.00    +0.000 A 
ATOM     25  C   UNL     1       2.112   5.542  18.034  0.00  0.00    +0.000 A 
ATOM     26  C   UNL     1       2.102   6.165  19.293  0.00  0.00    +0.000 A 
ATOM     27  C   UNL     1       1.642   5.434  20.400  0.00  0.00    +0.000 A 
ATOM     28  C   UNL     1       1.212   4.111  20.255  0.00  0.00    +0.000 A 
ENDBRANCH  21  26
ENDBRANCH   1  21
TORSDOF 4
ENDMDL
MODEL 5
REMARK VINA RESULT:      -8.8      4.967      9.854
REMARK  Name = 
REMARK  4 active torsions:
REMARK  status: ('A' for Active; 'I' for Inactive)
REMARK    1  A    between atoms: C_5  and  C_6
REMARK    2  A    between atoms: C_6  and  N_7
REMARK    3  A    between atoms: C_9  and  C_10
REMARK    4  A    between atoms: C_12  and  C_13
REMARK                            x       y       z     vdW  Elec       q    Type
REMARK                         _______ _______ _______ _____ _____    ______ ____
ROOT
ATOM      1  N   UNL     1       1.760   8.572  19.380  0.00  0.00    +0.000 N 
ATOM      2  C   UNL     1       1.105   9.086  18.292  0.00  0.00    +0.000 A 
ATOM      3  C   UNL     1       0.048   9.859  18.729  0.00  0.00    +0.000 A 
ATOM      4  C   UNL     1       0.062   9.801  20.159  0.00  0.00    +0.000 A 
ATOM      5  C   UNL     1      -0.764  10.349  21.165  0.00  0.00    +0.000 A 
ATOM      6  C   UNL     1      -0.492  10.080  22.510  0.00  0.00    +0.000 A 
ATOM      7  C   UNL     1       0.597   9.291  22.865  0.00  0.00    +0.000 A 
ATOM      8  C   UNL     1       1.437   8.744  21.891  0.00  0.00    +0.000 A 
ATOM      9  C   UNL     1       1.147   9.004  20.540  0.00  0.00    +0.000 A 
ENDROOT
BRANCH   3  10
ATOM     10  C   UNL     1      -0.929  10.603  17.867  0.00  0.00    +0.000 C 
ATOM     11  C   UNL     1      -2.360  10.180  18.117  0.00  0.00    +0.000 C 
ATOM     12  C   UNL     1      -2.978  11.502  18.400  0.00  0.00    +0.000 C 
ATOM     13  N   UNL     1      -2.169  12.510  18.388  0.00  0.00    +0.000 NA
ATOM     14  O   UNL     1      -0.873  12.024  18.105  0.00  0.00    +0.000 OA
BRANCH  12  15
ATOM     15  C   UNL     1      -4.427  11.641  18.668  0.00  0.00    +0.000 A 
ATOM     16  C   UNL     1      -5.381  11.084  17.817  0.00  0.00    +0.000 A 
ATOM     17  C   UNL     1      -6.716  11.282  18.122  0.00  0.00    +0.000 A 
ATOM     18  N   UNL     1      -7.145  11.977  19.196  0.00  0.00    +0.000 NA
ATOM     19  C   UNL     1      -6.200  12.498  20.008  0.00  0.00    +0.000 A 
ATOM     20  C   UNL     1      -4.842  12.358  19.790  0.00  0.00    +0.000 A 
ENDBRANCH  12  15
ENDBRANCH   3  10
BRANCH   1  21
ATOM     21  C   UNL     1       2.822   7.575  19.289  0.00  0.00    +0.000 C 
BRANCH  21  26
ATOM     22 CL   UNL     1       0.451   2.043  18.840  0.00  0.00    +0.000 Cl
ATOM     23  C   UNL     1       1.181   3.597  18.970  0.00  0.00    +0.000 A 
ATOM     24  C   UNL     1       1.262   4.220  20.212  0.00  0.00    +0.000 A 
ATOM     25  C   UNL     1       1.827   5.494  20.315  0.00  0.00    +0.000 A 
ATOM     26  C   UNL     1       2.315   6.157  19.177  0.00  0.00    +0.000 A 
ATOM     27  C   UNL     1       2.233   5.506  17.935  0.00  0.00    +0.000 A 
ATOM     28  C   UNL     1       1.670   4.230  17.832  0.00  0.00    +0.000 A 
ENDBRANCH  21  26
ENDBRANCH   1  21
TORSDOF 4
ENDMDL
MODEL 6
REMARK VINA RESULT:      -8.8      0.442      1.013
REMARK  Name = 
REMARK  4 active torsions:
REMARK  status: ('A' for Active; 'I' for Inactive)
REMARK    1  A    between atoms: C_5  and  C_6
REMARK    2  A    between atoms: C_6  and  N_7
REMARK    3  A    between atoms: C_9  and  C_10
REMARK    4  A    between atoms: C_12  and  C_13
REMARK                            x       y       z     vdW  Elec       q    Type
REMARK                         _______ _______ _______ _____ _____    ______ ____
ROOT
ATOM      1  N   UNL     1       2.408   6.039  19.824  0.00  0.00    +0.000 N 
ATOM      2  C   UNL     1       3.667   6.344  19.377  0.00  0.00    +0.000 A 
ATOM      3  C   UNL     1       4.194   5.241  18.736  0.00  0.00    +0.000 A 
ATOM      4  C   UNL     1       3.200   4.213  18.807  0.00  0.00    +0.000 A 
ATOM      5  C   UNL     1       3.153   2.871  18.369  0.00  0.00    +0.000 A 
ATOM      6  C   UNL     1       2.014   2.098  18.619  0.00  0.00    +0.000 A 
ATOM      7  C   UNL     1       0.921   2.647  19.281  0.00  0.00    +0.000 A 
ATOM      8  C   UNL     1       0.936   3.975  19.717  0.00  0.00    +0.000 A 
ATOM      9  C   UNL     1       2.092   4.740  19.479  0.00  0.00    +0.000 A 
ENDROOT
BRANCH   3  10
ATOM     10  C   UNL     1       5.549   5.141  18.101  0.00  0.00    +0.000 C 
ATOM     11  C   UNL     1       5.550   4.253  16.876  0.00  0.00    +0.000 C 
ATOM     12  C   UNL     1       6.142   5.183  15.879  0.00  0.00    +0.000 C 
ATOM     13  N   UNL     1       6.410   6.371  16.314  0.00  0.00    +0.000 NA
ATOM     14  O   UNL     1       6.032   6.431  17.673  0.00  0.00    +0.000 OA
BRANCH  12  15
ATOM     15  C   UNL     1       6.408   4.762  14.485  0.00  0.00    +0.000 A 
ATOM     16  C   UNL     1       5.607   3.817  13.844  0.00  0.00    +0.000 A 
ATOM     17  C   UNL     1       5.939   3.457  12.550  0.00  0.00    +0.000 A 
ATOM     18  N   UNL     1       6.988   3.970  11.874  0.00  0.00    +0.000 NA
ATOM     19  C   UNL     1       7.741   4.889  12.515  0.00  0.00    +0.000 A 
ATOM     20  C   UNL     1       7.494   5.314  13.807  0.00  0.00    +0.000 A 
ENDBRANCH  12  15
ENDBRANCH   3  10
BRANCH   1  21
ATOM     21  C   UNL     1       1.624   6.914  20.691  0.00  0.00    +0.000 C 
BRANCH  21  26
ATOM     22 CL   UNL     1       0.990  12.504  18.507  0.00  0.00    +0.000 Cl
ATOM     23  C   UNL     1       1.118  10.897  19.109  0.00  0.00    +0.000 A 
ATOM     24  C   UNL     1       0.810  10.631  20.441  0.00  0.00    +0.000 A 
ATOM     25  C   UNL     1       0.941   9.331  20.939  0.00  0.00    +0.000 A 
ATOM     26  C   UNL     1       1.383   8.287  20.110  0.00  0.00    +0.000 A 
ATOM     27  C   UNL     1       1.678   8.574  18.767  0.00  0.00    +0.000 A 
ATOM     28  C   UNL     1       1.544   9.874  18.268  0.00  0.00    +0.000 A 
ENDBRANCH  21  26
ENDBRANCH   1  21
TORSDOF 4
ENDMDL
MODEL 7
REMARK VINA RESULT:      -8.6      3.362      8.072
REMARK  Name = 
REMARK  4 active torsions:
REMARK  status: ('A' for Active; 'I' for Inactive)
REMARK    1  A    between atoms: C_5  and  C_6
REMARK    2  A    between atoms: C_6  and  N_7
REMARK    3  A    between atoms: C_9  and  C_10
REMARK    4  A    between atoms: C_12  and  C_13
REMARK                            x       y       z     vdW  Elec       q    Type
REMARK                         _______ _______ _______ _____ _____    ______ ____
ROOT
ATOM      1  N   UNL     1       4.547   5.610  18.509  0.00  0.00    +0.000 N 
ATOM      2  C   UNL     1       3.984   6.743  17.983  0.00  0.00    +0.000 A 
ATOM      3  C   UNL     1       2.682   6.844  18.430  0.00  0.00    +0.000 A 
ATOM      4  C   UNL     1       2.446   5.705  19.264  0.00  0.00    +0.000 A 
ATOM      5  C   UNL     1       1.321   5.236  19.977  0.00  0.00    +0.000 A 
ATOM      6  C   UNL     1       1.404   4.041  20.700  0.00  0.00    +0.000 A 
ATOM      7  C   UNL     1       2.593   3.321  20.735  0.00  0.00    +0.000 A 
ATOM      8  C   UNL     1       3.725   3.766  20.047  0.00  0.00    +0.000 A 
ATOM      9  C   UNL     1       3.628   4.958  19.308  0.00  0.00    +0.000 A 
ENDROOT
BRANCH   3  10
ATOM     10  C   UNL     1       1.706   7.933  18.093  0.00  0.00    +0.000 C 
ATOM     11  C   UNL     1       1.208   8.663  19.321  0.00  0.00    +0.000 C 
ATOM     12  C   UNL     1       1.527  10.064  18.939  0.00  0.00    +0.000 C 
ATOM     13  N   UNL     1       2.115  10.211  17.797  0.00  0.00    +0.000 NA
ATOM     14  O   UNL     1       2.296   8.928  17.234  0.00  0.00    +0.000 OA
BRANCH  12  15
ATOM     15  C   UNL     1       1.179  11.206  19.813  0.00  0.00    +0.000 A 
ATOM     16  C   UNL     1       1.790  12.451  19.663  0.00  0.00    +0.000 A 
ATOM     17  C   UNL     1       1.428  13.460  20.537  0.00  0.00    +0.000 A 
ATOM     18  N   UNL     1       0.517  13.310  21.522  0.00  0.00    +0.000 NA
ATOM     19  C   UNL     1      -0.065  12.098  21.639  0.00  0.00    +0.000 A 
ATOM     20  C   UNL     1       0.228  11.025  20.817  0.00  0.00    +0.000 A 
ENDBRANCH  12  15
ENDBRANCH   3  10
BRANCH   1  21
ATOM     21  C   UNL     1       5.857   5.100  18.115  0.00  0.00    +0.000 C 
BRANCH  21  26
ATOM     22 CL   UNL     1       6.586   3.727  12.283  0.00  0.00    +0.000 Cl
ATOM     23  C   UNL     1       6.343   4.162  13.930  0.00  0.00    +0.000 A 
ATOM     24  C   UNL     1       7.281   4.961  14.580  0.00  0.00    +0.000 A 
ATOM     25  C   UNL     1       7.100   5.291  15.926  0.00  0.00    +0.000 A 
ATOM     26  C   UNL     1       5.981   4.824  16.635  0.00  0.00    +0.000 A 
ATOM     27  C   UNL     1       5.042   4.030  15.959  0.00  0.00    +0.000 A 
ATOM     28  C   UNL     1       5.221   3.701  14.611  0.00  0.00    +0.000 A 
ENDBRANCH  21  26
ENDBRANCH   1  21
TORSDOF 4
ENDMDL
MODEL 8
REMARK VINA RESULT:      -8.5      3.318      8.031
REMARK  Name = 
REMARK  4 active torsions:
REMARK  status: ('A' for Active; 'I' for Inactive)
REMARK    1  A    between atoms: C_5  and  C_6
REMARK    2  A    between atoms: C_6  and  N_7
REMARK    3  A    between atoms: C_9  and  C_10
REMARK    4  A    between atoms: C_12  and  C_13
REMARK                            x       y       z     vdW  Elec       q    Type
REMARK                         _______ _______ _______ _____ _____    ______ ____
ROOT
ATOM      1  N   UNL     1       4.750   5.658  18.487  0.00  0.00    +0.000 N 
ATOM      2  C   UNL     1       4.141   6.789  18.011  0.00  0.00    +0.000 A 
ATOM      3  C   UNL     1       2.818   6.786  18.406  0.00  0.00    +0.000 A 
ATOM      4  C   UNL     1       2.618   5.582  19.156  0.00  0.00    +0.000 A 
ATOM      5  C   UNL     1       1.496   5.004  19.788  0.00  0.00    +0.000 A 
ATOM      6  C   UNL     1       1.623   3.770  20.436  0.00  0.00    +0.000 A 
ATOM      7  C   UNL     1       2.850   3.119  20.477  0.00  0.00    +0.000 A 
ATOM      8  C   UNL     1       3.980   3.673  19.868  0.00  0.00    +0.000 A 
ATOM      9  C   UNL     1       3.841   4.903  19.202  0.00  0.00    +0.000 A 
ENDROOT
BRANCH   3  10
ATOM     10  C   UNL     1       1.793   7.836  18.098  0.00  0.00    +0.000 C 
ATOM     11  C   UNL     1       1.269   8.516  19.343  0.00  0.00    +0.000 C 
ATOM     12  C   UNL     1       1.521   9.938  18.991  0.00  0.00    +0.000 C 
ATOM     13  N   UNL     1       2.098  10.137  17.851  0.00  0.00    +0.000 NA
ATOM     14  O   UNL     1       2.334   8.876  17.259  0.00  0.00    +0.000 OA
BRANCH  12  15
ATOM     15  C   UNL     1       1.126  11.043  19.892  0.00  0.00    +0.000 A 
ATOM     16  C   UNL     1       0.240  10.839  20.950  0.00  0.00    +0.000 A 
ATOM     17  C   UNL     1      -0.100  11.930  21.730  0.00  0.00    +0.000 A 
ATOM     18  N   UNL     1       0.380  13.176  21.529  0.00  0.00    +0.000 NA
ATOM     19  C   UNL     1       1.243  13.343  20.504  0.00  0.00    +0.000 A 
ATOM     20  C   UNL     1       1.643  12.319  19.667  0.00  0.00    +0.000 A 
ENDBRANCH  12  15
ENDBRANCH   3  10
BRANCH   1  21
ATOM     21  C   UNL     1       6.103   5.251  18.118  0.00  0.00    +0.000 C 
BRANCH  21  26
ATOM     22 CL   UNL     1       6.323   3.625  12.311  0.00  0.00    +0.000 Cl
ATOM     23  C   UNL     1       6.303   4.050  13.978  0.00  0.00    +0.000 A 
ATOM     24  C   UNL     1       5.368   3.467  14.829  0.00  0.00    +0.000 A 
ATOM     25  C   UNL     1       5.331   3.833  16.178  0.00  0.00    +0.000 A 
ATOM     26  C   UNL     1       6.228   4.787  16.686  0.00  0.00    +0.000 A 
ATOM     27  C   UNL     1       7.170   5.355  15.814  0.00  0.00    +0.000 A 
ATOM     28  C   UNL     1       7.209   4.986  14.465  0.00  0.00    +0.000 A 
ENDBRANCH  21  26
ENDBRANCH   1  21
TORSDOF 4
ENDMDL
MODEL 9
REMARK VINA RESULT:      -8.5      4.357      7.054
REMARK  Name = 
REMARK  4 active torsions:
REMARK  status: ('A' for Active; 'I' for Inactive)
REMARK    1  A    between atoms: C_5  and  C_6
REMARK    2  A    between atoms: C_6  and  N_7
REMARK    3  A    between atoms: C_9  and  C_10
REMARK    4  A    between atoms: C_12  and  C_13
REMARK                            x       y       z     vdW  Elec       q    Type
REMARK                         _______ _______ _______ _____ _____    ______ ____
ROOT
ATOM      1  N   UNL     1      -0.345  10.893  19.346  0.00  0.00    +0.000 N 
ATOM      2  C   UNL     1       0.581  10.123  18.691  0.00  0.00    +0.000 A 
ATOM      3  C   UNL     1       1.187   9.281  19.600  0.00  0.00    +0.000 A 
ATOM      4  C   UNL     1       0.600   9.564  20.875  0.00  0.00    +0.000 A 
ATOM      5  C   UNL     1       0.814   9.065  22.178  0.00  0.00    +0.000 A 
ATOM      6  C   UNL     1       0.075   9.578  23.249  0.00  0.00    +0.000 A 
ATOM      7  C   UNL     1      -0.881  10.565  23.037  0.00  0.00    +0.000 A 
ATOM      8  C   UNL     1      -1.120  11.071  21.756  0.00  0.00    +0.000 A 
ATOM      9  C   UNL     1      -0.361  10.563  20.687  0.00  0.00    +0.000 A 
ENDROOT
BRANCH   3  10
ATOM     10  C   UNL     1       2.260   8.275  19.306  0.00  0.00    +0.000 C 
ATOM     11  C   UNL     1       2.079   6.991  20.085  0.00  0.00    +0.000 C 
ATOM     12  C   UNL     1       2.101   6.005  18.973  0.00  0.00    +0.000 C 
ATOM     13  N   UNL     1       2.215   6.504  17.786  0.00  0.00    +0.000 NA
ATOM     14  O   UNL     1       2.278   7.910  17.911  0.00  0.00    +0.000 OA
BRANCH  12  15
ATOM     15  C   UNL     1       2.006   4.549  19.224  0.00  0.00    +0.000 A 
ATOM     16  C   UNL     1       2.496   3.979  20.398  0.00  0.00    +0.000 A 
ATOM     17  C   UNL     1       2.392   2.607  20.545  0.00  0.00    +0.000 A 
ATOM     18  N   UNL     1       1.842   1.792  19.620  0.00  0.00    +0.000 NA
ATOM     19  C   UNL     1       1.368   2.372  18.496  0.00  0.00    +0.000 A 
ATOM     20  C   UNL     1       1.425   3.732  18.254  0.00  0.00    +0.000 A 
ENDBRANCH  12  15
ENDBRANCH   3  10
BRANCH   1  21
ATOM     21  C   UNL     1      -1.053  12.010  18.727  0.00  0.00    +0.000 C 
BRANCH  21  26
ATOM     22 CL   UNL     1      -7.018  11.434  18.009  0.00  0.00    +0.000 Cl
ATOM     23  C   UNL     1      -5.316  11.545  18.240  0.00  0.00    +0.000 A 
ATOM     24  C   UNL     1      -4.810  12.236  19.337  0.00  0.00    +0.000 A 
ATOM     25  C   UNL     1      -3.428  12.353  19.510  0.00  0.00    +0.000 A 
ATOM     26  C   UNL     1      -2.540  11.781  18.585  0.00  0.00    +0.000 A 
ATOM     27  C   UNL     1      -3.069  11.079  17.490  0.00  0.00    +0.000 A 
ATOM     28  C   UNL     1      -4.452  10.960  17.319  0.00  0.00    +0.000 A 
ENDBRANCH  21  26
ENDBRANCH   1  21
TORSDOF 4
ENDMDL
