MODEL 1
REMARK VINA RESULT:      -9.1      0.000      0.000
REMARK  Name = 
REMARK  5 active torsions:
REMARK  status: ('A' for Active; 'I' for Inactive)
REMARK    1  A    between atoms: C_1  and  C_2
REMARK    2  A    between atoms: C_5  and  C_6
REMARK    3  A    between atoms: N_11  and  C_12
REMARK    4  A    between atoms: C_12  and  C_13
REMARK    5  A    between atoms: C_25  and  C_26
REMARK                            x       y       z     vdW  Elec       q    Type
REMARK                         _______ _______ _______ _____ _____    ______ ____
ROOT
ATOM      1  C   UNL     1       0.971   8.976  20.249  0.00  0.00    +0.000 A 
ATOM      2  C   UNL     1       1.377   9.487  18.904  0.00  0.00    +0.000 A 
ATOM      3  C   UNL     1       2.086   8.686  18.108  0.00  0.00    +0.000 A 
ATOM      4  C   UNL     1       2.446   7.364  18.617  0.00  0.00    +0.000 A 
ATOM      5  N   UNL     1       3.134   6.454  17.999  0.00  0.00    +0.000 NA
ATOM      6  N   UNL     1       3.199   5.421  18.922  0.00  0.00    +0.000 N 
ATOM      7  C   UNL     1       2.513   5.759  20.108  0.00  0.00    +0.000 A 
ATOM      8  O   UNL     1       2.379   5.054  21.096  0.00  0.00    +0.000 OA
ATOM      9  N   UNL     1       2.040   7.036  19.865  0.00  0.00    +0.000 N 
ATOM     10  N   UNL     1       1.302   7.807  20.711  0.00  0.00    +0.000 NA
ENDROOT
BRANCH   1  15
ATOM     11  C   UNL     1      -2.279  12.575  23.439  0.00  0.00    +0.000 C 
ATOM     12  C   UNL     1      -1.425  11.666  22.599  0.00  0.00    +0.000 A 
ATOM     13  C   UNL     1      -0.943  10.478  23.160  0.00  0.00    +0.000 A 
ATOM     14  C   UNL     1      -0.147   9.612  22.413  0.00  0.00    +0.000 A 
ATOM     15  C   UNL     1       0.166   9.911  21.083  0.00  0.00    +0.000 A 
ATOM     16  C   UNL     1      -0.292  11.109  20.521  0.00  0.00    +0.000 A 
ATOM     17  C   UNL     1      -1.092  11.990  21.267  0.00  0.00    +0.000 A 
ATOM     18  C   UNL     1      -1.575  13.265  20.629  0.00  0.00    +0.000 C 
ENDBRANCH   1  15
BRANCH   6  19
ATOM     19  C   UNL     1       3.868   4.175  18.658  0.00  0.00    +0.000 C 
BRANCH  19  20
ATOM     20  C   UNL     1       5.045   4.310  17.722  0.00  0.00    +0.000 A 
ATOM     21  C   UNL     1       6.300   4.719  18.203  0.00  0.00    +0.000 A 
ATOM     22  C   UNL     1       7.420   4.716  17.364  0.00  0.00    +0.000 A 
ATOM     23  C   UNL     1       7.287   4.351  16.027  0.00  0.00    +0.000 A 
ATOM     24  C   UNL     1       6.034   4.010  15.534  0.00  0.00    +0.000 A 
ATOM     25  F   UNL     1       5.903   3.672  14.243  0.00  0.00    +0.000 F 
ATOM     26  C   UNL     1       4.917   3.982  16.364  0.00  0.00    +0.000 A 
ENDBRANCH  19  20
ENDBRANCH   6  19
TORSDOF 3
ENDMDL
MODEL 2
REMARK VINA RESULT:      -9.0      2.330      3.905
REMARK  Name = 
REMARK  5 active torsions:
REMARK  status: ('A' for Active; 'I' for Inactive)
REMARK    1  A    between atoms: C_1  and  C_2
REMARK    2  A    between atoms: C_5  and  C_6
REMARK    3  A    between atoms: N_11  and  C_12
REMARK    4  A    between atoms: C_12  and  C_13
REMARK    5  A    between atoms: C_25  and  C_26
REMARK                            x       y       z     vdW  Elec       q    Type
REMARK                         _______ _______ _______ _____ _____    ______ ____
ROOT
ATOM      1  C   UNL     1       2.578   7.186  18.533  0.00  0.00    +0.000 A 
ATOM      2  C   UNL     1       2.006   5.812  18.665  0.00  0.00    +0.000 A 
ATOM      3  C   UNL     1       2.718   4.781  18.208  0.00  0.00    +0.000 A 
ATOM      4  C   UNL     1       4.006   5.067  17.580  0.00  0.00    +0.000 A 
ATOM      5  N   UNL     1       4.833   4.205  17.072  0.00  0.00    +0.000 NA
ATOM      6  N   UNL     1       5.869   4.996  16.602  0.00  0.00    +0.000 N 
ATOM      7  C   UNL     1       5.623   6.362  16.861  0.00  0.00    +0.000 A 
ATOM      8  O   UNL     1       6.355   7.298  16.583  0.00  0.00    +0.000 OA
ATOM      9  N   UNL     1       4.395   6.361  17.498  0.00  0.00    +0.000 N 
ATOM     10  N   UNL     1       3.716   7.447  17.963  0.00  0.00    +0.000 NA
ENDROOT
BRANCH   1  15
ATOM     11  C   UNL     1      -0.566  11.555  20.705  0.00  0.00    +0.000 C 
ATOM     12  C   UNL     1       0.235  10.404  20.162  0.00  0.00    +0.000 A 
ATOM     13  C   UNL     1       0.543  10.377  18.796  0.00  0.00    +0.000 A 
ATOM     14  C   UNL     1       1.282   9.326  18.257  0.00  0.00    +0.000 A 
ATOM     15  C   UNL     1       1.742   8.293  19.078  0.00  0.00    +0.000 A 
ATOM     16  C   UNL     1       1.420   8.299  20.440  0.00  0.00    +0.000 A 
ATOM     17  C   UNL     1       0.672   9.352  20.993  0.00  0.00    +0.000 A 
ATOM     18  C   UNL     1       0.349   9.333  22.463  0.00  0.00    +0.000 C 
ENDBRANCH   1  15
BRANCH   6  19
ATOM     19  C   UNL     1       7.038   4.456  15.960  0.00  0.00    +0.000 C 
BRANCH  19  20
ATOM     20  C   UNL     1       6.945   4.442  14.453  0.00  0.00    +0.000 A 
ATOM     21  C   UNL     1       7.730   5.313  13.678  0.00  0.00    +0.000 A 
ATOM     22  C   UNL     1       7.742   5.210  12.283  0.00  0.00    +0.000 A 
ATOM     23  C   UNL     1       6.936   4.268  11.647  0.00  0.00    +0.000 A 
ATOM     24  C   UNL     1       6.111   3.450  12.409  0.00  0.00    +0.000 A 
ATOM     25  F   UNL     1       5.325   2.554  11.797  0.00  0.00    +0.000 F 
ATOM     26  C   UNL     1       6.109   3.524  13.799  0.00  0.00    +0.000 A 
ENDBRANCH  19  20
ENDBRANCH   6  19
TORSDOF 3
ENDMDL
MODEL 3
REMARK VINA RESULT:      -8.9      5.862      7.732
REMARK  Name = 
REMARK  5 active torsions:
REMARK  status: ('A' for Active; 'I' for Inactive)
REMARK    1  A    between atoms: C_1  and  C_2
REMARK    2  A    between atoms: C_5  and  C_6
REMARK    3  A    between atoms: N_11  and  C_12
REMARK    4  A    between atoms: C_12  and  C_13
REMARK    5  A    between atoms: C_25  and  C_26
REMARK                            x       y       z     vdW  Elec       q    Type
REMARK                         _______ _______ _______ _____ _____    ______ ____
ROOT
ATOM      1  C   UNL     1       7.996   8.562  18.083  0.00  0.00    +0.000 A 
ATOM      2  C   UNL     1       8.549   7.571  19.056  0.00  0.00    +0.000 A 
ATOM      3  C   UNL     1       8.097   6.317  19.011  0.00  0.00    +0.000 A 
ATOM      4  C   UNL     1       7.065   5.999  18.027  0.00  0.00    +0.000 A 
ATOM      5  N   UNL     1       6.499   4.847  17.838  0.00  0.00    +0.000 NA
ATOM      6  N   UNL     1       5.596   5.098  16.816  0.00  0.00    +0.000 N 
ATOM      7  C   UNL     1       5.660   6.447  16.405  0.00  0.00    +0.000 A 
ATOM      8  O   UNL     1       5.003   6.969  15.518  0.00  0.00    +0.000 OA
ATOM      9  N   UNL     1       6.629   6.997  17.224  0.00  0.00    +0.000 N 
ATOM     10  N   UNL     1       7.068   8.287  17.216  0.00  0.00    +0.000 NA
ENDROOT
BRANCH   1  15
ATOM     11  C   UNL     1      10.268  13.897  18.343  0.00  0.00    +0.000 C 
ATOM     12  C   UNL     1       9.687  12.510  18.305  0.00  0.00    +0.000 A 
ATOM     13  C   UNL     1       8.552  12.272  17.519  0.00  0.00    +0.000 A 
ATOM     14  C   UNL     1       7.985  11.001  17.461  0.00  0.00    +0.000 A 
ATOM     15  C   UNL     1       8.554   9.940  18.172  0.00  0.00    +0.000 A 
ATOM     16  C   UNL     1       9.675  10.174  18.978  0.00  0.00    +0.000 A 
ATOM     17  C   UNL     1      10.252  11.453  19.048  0.00  0.00    +0.000 A 
ATOM     18  C   UNL     1      11.461  11.668  19.917  0.00  0.00    +0.000 C 
ENDBRANCH   1  15
BRANCH   6  19
ATOM     19  C   UNL     1       4.741   4.085  16.259  0.00  0.00    +0.000 C 
BRANCH  19  20
ATOM     20  C   UNL     1       3.726   3.548  17.240  0.00  0.00    +0.000 A 
ATOM     21  C   UNL     1       3.708   2.184  17.578  0.00  0.00    +0.000 A 
ATOM     22  C   UNL     1       2.858   1.710  18.583  0.00  0.00    +0.000 A 
ATOM     23  C   UNL     1       1.985   2.585  19.225  0.00  0.00    +0.000 A 
ATOM     24  C   UNL     1       1.956   3.922  18.847  0.00  0.00    +0.000 A 
ATOM     25  F   UNL     1       1.107   4.761  19.456  0.00  0.00    +0.000 F 
ATOM     26  C   UNL     1       2.816   4.410  17.868  0.00  0.00    +0.000 A 
ENDBRANCH  19  20
ENDBRANCH   6  19
TORSDOF 3
ENDMDL
MODEL 4
REMARK VINA RESULT:      -8.9      1.087      1.433
REMARK  Name = 
REMARK  5 active torsions:
REMARK  status: ('A' for Active; 'I' for Inactive)
REMARK    1  A    between atoms: C_1  and  C_2
REMARK    2  A    between atoms: C_5  and  C_6
REMARK    3  A    between atoms: N_11  and  C_12
REMARK    4  A    between atoms: C_12  and  C_13
REMARK    5  A    between atoms: C_25  and  C_26
REMARK                            x       y       z     vdW  Elec       q    Type
REMARK                         _______ _______ _______ _____ _____    ______ ____
ROOT
ATOM      1  C   UNL     1       0.894   9.076  20.214  0.00  0.00    +0.000 A 
ATOM      2  C   UNL     1       1.363   9.584  18.888  0.00  0.00    +0.000 A 
ATOM      3  C   UNL     1       2.051   8.758  18.099  0.00  0.00    +0.000 A 
ATOM      4  C   UNL     1       2.327   7.413  18.596  0.00  0.00    +0.000 A 
ATOM      5  N   UNL     1       2.984   6.476  17.983  0.00  0.00    +0.000 NA
ATOM      6  N   UNL     1       2.970   5.429  18.891  0.00  0.00    +0.000 N 
ATOM      7  C   UNL     1       2.270   5.785  20.064  0.00  0.00    +0.000 A 
ATOM      8  O   UNL     1       2.072   5.075  21.037  0.00  0.00    +0.000 OA
ATOM      9  N   UNL     1       1.871   7.088  19.828  0.00  0.00    +0.000 N 
ATOM     10  N   UNL     1       1.151   7.885  20.666  0.00  0.00    +0.000 NA
ENDROOT
BRANCH   1  15
ATOM     11  C   UNL     1      -2.252  12.788  23.378  0.00  0.00    +0.000 C 
ATOM     12  C   UNL     1      -1.424  11.850  22.544  0.00  0.00    +0.000 A 
ATOM     13  C   UNL     1      -0.949  10.667  23.123  0.00  0.00    +0.000 A 
ATOM     14  C   UNL     1      -0.178   9.775  22.381  0.00  0.00    +0.000 A 
ATOM     15  C   UNL     1       0.116  10.041  21.041  0.00  0.00    +0.000 A 
ATOM     16  C   UNL     1      -0.335  11.232  20.460  0.00  0.00    +0.000 A 
ATOM     17  C   UNL     1      -1.110  12.140  21.200  0.00  0.00    +0.000 A 
ATOM     18  C   UNL     1      -1.586  13.407  20.543  0.00  0.00    +0.000 C 
ENDBRANCH   1  15
BRANCH   6  19
ATOM     19  C   UNL     1       3.580   4.153  18.626  0.00  0.00    +0.000 C 
BRANCH  19  20
ATOM     20  C   UNL     1       4.927   4.259  17.952  0.00  0.00    +0.000 A 
ATOM     21  C   UNL     1       5.083   3.903  16.601  0.00  0.00    +0.000 A 
ATOM     22  C   UNL     1       6.296   4.125  15.942  0.00  0.00    +0.000 A 
ATOM     23  C   UNL     1       7.378   4.660  16.636  0.00  0.00    +0.000 A 
ATOM     24  C   UNL     1       7.245   4.953  17.988  0.00  0.00    +0.000 A 
ATOM     25  F   UNL     1       8.290   5.455  18.660  0.00  0.00    +0.000 F 
ATOM     26  C   UNL     1       6.035   4.761  18.649  0.00  0.00    +0.000 A 
ENDBRANCH  19  20
ENDBRANCH   6  19
TORSDOF 3
ENDMDL
MODEL 5
REMARK VINA RESULT:      -8.8      5.743      7.755
REMARK  Name = 
REMARK  5 active torsions:
REMARK  status: ('A' for Active; 'I' for Inactive)
REMARK    1  A    between atoms: C_1  and  C_2
REMARK    2  A    between atoms: C_5  and  C_6
REMARK    3  A    between atoms: N_11  and  C_12
REMARK    4  A    between atoms: C_12  and  C_13
REMARK    5  A    between atoms: C_25  and  C_26
REMARK                            x       y       z     vdW  Elec       q    Type
REMARK                         _______ _______ _______ _____ _____    ______ ____
ROOT
ATOM      1  C   UNL     1       8.049   8.615  18.103  0.00  0.00    +0.000 A 
ATOM      2  C   UNL     1       8.600   7.636  19.089  0.00  0.00    +0.000 A 
ATOM      3  C   UNL     1       8.153   6.380  19.054  0.00  0.00    +0.000 A 
ATOM      4  C   UNL     1       7.128   6.048  18.067  0.00  0.00    +0.000 A 
ATOM      5  N   UNL     1       6.567   4.892  17.886  0.00  0.00    +0.000 NA
ATOM      6  N   UNL     1       5.670   5.129  16.857  0.00  0.00    +0.000 N 
ATOM      7  C   UNL     1       5.730   6.474  16.433  0.00  0.00    +0.000 A 
ATOM      8  O   UNL     1       5.077   6.984  15.537  0.00  0.00    +0.000 OA
ATOM      9  N   UNL     1       6.693   7.036  17.251  0.00  0.00    +0.000 N 
ATOM     10  N   UNL     1       7.127   8.328  17.233  0.00  0.00    +0.000 NA
ENDROOT
BRANCH   1  15
ATOM     11  C   UNL     1      10.296  13.962  18.318  0.00  0.00    +0.000 C 
ATOM     12  C   UNL     1       9.722  12.572  18.291  0.00  0.00    +0.000 A 
ATOM     13  C   UNL     1       8.567  12.330  17.537  0.00  0.00    +0.000 A 
ATOM     14  C   UNL     1       8.006  11.056  17.490  0.00  0.00    +0.000 A 
ATOM     15  C   UNL     1       8.601   9.996  18.181  0.00  0.00    +0.000 A 
ATOM     16  C   UNL     1       9.743  10.234  18.956  0.00  0.00    +0.000 A 
ATOM     17  C   UNL     1      10.314  11.516  19.014  0.00  0.00    +0.000 A 
ATOM     18  C   UNL     1      11.547  11.735  19.849  0.00  0.00    +0.000 C 
ENDBRANCH   1  15
BRANCH   6  19
ATOM     19  C   UNL     1       4.821   4.107  16.306  0.00  0.00    +0.000 C 
BRANCH  19  20
ATOM     20  C   UNL     1       3.649   3.755  17.190  0.00  0.00    +0.000 A 
ATOM     21  C   UNL     1       2.606   4.674  17.396  0.00  0.00    +0.000 A 
ATOM     22  C   UNL     1       1.459   4.302  18.105  0.00  0.00    +0.000 A 
ATOM     23  C   UNL     1       1.364   3.026  18.654  0.00  0.00    +0.000 A 
ATOM     24  C   UNL     1       2.422   2.138  18.506  0.00  0.00    +0.000 A 
ATOM     25  F   UNL     1       2.336   0.914  19.046  0.00  0.00    +0.000 F 
ATOM     26  C   UNL     1       3.557   2.486  17.780  0.00  0.00    +0.000 A 
ENDBRANCH  19  20
ENDBRANCH   6  19
TORSDOF 3
ENDMDL
MODEL 6
REMARK VINA RESULT:      -8.6      2.346      3.752
REMARK  Name = 
REMARK  5 active torsions:
REMARK  status: ('A' for Active; 'I' for Inactive)
REMARK    1  A    between atoms: C_1  and  C_2
REMARK    2  A    between atoms: C_5  and  C_6
REMARK    3  A    between atoms: N_11  and  C_12
REMARK    4  A    between atoms: C_12  and  C_13
REMARK    5  A    between atoms: C_25  and  C_26
REMARK                            x       y       z     vdW  Elec       q    Type
REMARK                         _______ _______ _______ _____ _____    ______ ____
ROOT
ATOM      1  C   UNL     1       2.704   6.862  18.842  0.00  0.00    +0.000 A 
ATOM      2  C   UNL     1       2.140   5.477  18.837  0.00  0.00    +0.000 A 
ATOM      3  C   UNL     1       2.852   4.504  18.268  0.00  0.00    +0.000 A 
ATOM      4  C   UNL     1       4.131   4.862  17.659  0.00  0.00    +0.000 A 
ATOM      5  N   UNL     1       4.956   4.063  17.055  0.00  0.00    +0.000 NA
ATOM      6  N   UNL     1       5.983   4.905  16.657  0.00  0.00    +0.000 N 
ATOM      7  C   UNL     1       5.733   6.235  17.060  0.00  0.00    +0.000 A 
ATOM      8  O   UNL     1       6.456   7.200  16.873  0.00  0.00    +0.000 OA
ATOM      9  N   UNL     1       4.513   6.160  17.707  0.00  0.00    +0.000 N 
ATOM     10  N   UNL     1       3.834   7.187  18.290  0.00  0.00    +0.000 NA
ENDROOT
BRANCH   1  15
ATOM     11  C   UNL     1      -0.659  10.859  21.373  0.00  0.00    +0.000 C 
ATOM     12  C   UNL     1       0.227   9.845  20.703  0.00  0.00    +0.000 A 
ATOM     13  C   UNL     1       0.606   8.700  21.414  0.00  0.00    +0.000 A 
ATOM     14  C   UNL     1       1.427   7.740  20.826  0.00  0.00    +0.000 A 
ATOM     15  C   UNL     1       1.868   7.900  19.509  0.00  0.00    +0.000 A 
ATOM     16  C   UNL     1       1.514   9.053  18.798  0.00  0.00    +0.000 A 
ATOM     17  C   UNL     1       0.690  10.029  19.383  0.00  0.00    +0.000 A 
ATOM     18  C   UNL     1       0.320  11.252  18.589  0.00  0.00    +0.000 C 
ENDBRANCH   1  15
BRANCH   6  19
ATOM     19  C   UNL     1       7.147   4.442  15.950  0.00  0.00    +0.000 C 
BRANCH  19  20
ATOM     20  C   UNL     1       6.981   4.446  14.449  0.00  0.00    +0.000 A 
ATOM     21  C   UNL     1       7.759   5.295  13.644  0.00  0.00    +0.000 A 
ATOM     22  C   UNL     1       7.700   5.206  12.249  0.00  0.00    +0.000 A 
ATOM     23  C   UNL     1       6.829   4.301  11.646  0.00  0.00    +0.000 A 
ATOM     24  C   UNL     1       6.012   3.507  12.440  0.00  0.00    +0.000 A 
ATOM     25  F   UNL     1       5.164   2.647  11.860  0.00  0.00    +0.000 F 
ATOM     26  C   UNL     1       6.081   3.567  13.829  0.00  0.00    +0.000 A 
ENDBRANCH  19  20
ENDBRANCH   6  19
TORSDOF 3
ENDMDL
MODEL 7
REMARK VINA RESULT:      -8.6      3.990      9.338
REMARK  Name = 
REMARK  5 active torsions:
REMARK  status: ('A' for Active; 'I' for Inactive)
REMARK    1  A    between atoms: C_1  and  C_2
REMARK    2  A    between atoms: C_5  and  C_6
REMARK    3  A    between atoms: N_11  and  C_12
REMARK    4  A    between atoms: C_12  and  C_13
REMARK    5  A    between atoms: C_25  and  C_26
REMARK                            x       y       z     vdW  Elec       q    Type
REMARK                         _______ _______ _______ _____ _____    ______ ____
ROOT
ATOM      1  C   UNL     1       1.935   7.716  19.380  0.00  0.00    +0.000 A 
ATOM      2  C   UNL     1       1.945   8.442  18.073  0.00  0.00    +0.000 A 
ATOM      3  C   UNL     1       1.587   9.726  18.056  0.00  0.00    +0.000 A 
ATOM      4  C   UNL     1       1.180  10.336  19.320  0.00  0.00    +0.000 A 
ATOM      5  N   UNL     1       0.793  11.561  19.503  0.00  0.00    +0.000 NA
ATOM      6  N   UNL     1       0.510  11.608  20.860  0.00  0.00    +0.000 N 
ATOM      7  C   UNL     1       0.755  10.359  21.471  0.00  0.00    +0.000 A 
ATOM      8  O   UNL     1       0.617  10.088  22.653  0.00  0.00    +0.000 OA
ATOM      9  N   UNL     1       1.187   9.560  20.428  0.00  0.00    +0.000 N 
ATOM     10  N   UNL     1       1.559   8.251  20.503  0.00  0.00    +0.000 NA
ENDROOT
BRANCH   1  15
ATOM     11  C   UNL     1       3.472   2.123  19.168  0.00  0.00    +0.000 C 
ATOM     12  C   UNL     1       3.079   3.572  19.253  0.00  0.00    +0.000 A 
ATOM     13  C   UNL     1       3.393   4.424  18.186  0.00  0.00    +0.000 A 
ATOM     14  C   UNL     1       3.046   5.772  18.230  0.00  0.00    +0.000 A 
ATOM     15  C   UNL     1       2.362   6.290  19.334  0.00  0.00    +0.000 A 
ATOM     16  C   UNL     1       2.064   5.452  20.415  0.00  0.00    +0.000 A 
ATOM     17  C   UNL     1       2.413   4.091  20.383  0.00  0.00    +0.000 A 
ATOM     18  C   UNL     1       2.071   3.215  21.558  0.00  0.00    +0.000 C 
ENDBRANCH   1  15
BRANCH   6  19
ATOM     19  C   UNL     1       0.052  12.798  21.525  0.00  0.00    +0.000 C 
BRANCH  19  20
ATOM     20  C   UNL     1      -1.437  12.816  21.769  0.00  0.00    +0.000 A 
ATOM     21  C   UNL     1      -2.331  13.124  20.729  0.00  0.00    +0.000 A 
ATOM     22  C   UNL     1      -3.712  13.012  20.920  0.00  0.00    +0.000 A 
ATOM     23  C   UNL     1      -4.214  12.637  22.164  0.00  0.00    +0.000 A 
ATOM     24  C   UNL     1      -3.335  12.394  23.211  0.00  0.00    +0.000 A 
ATOM     25  F   UNL     1      -3.818  12.047  24.412  0.00  0.00    +0.000 F 
ATOM     26  C   UNL     1      -1.957  12.477  23.027  0.00  0.00    +0.000 A 
ENDBRANCH  19  20
ENDBRANCH   6  19
TORSDOF 3
ENDMDL
MODEL 8
REMARK VINA RESULT:      -8.6      1.981      2.248
REMARK  Name = 
REMARK  5 active torsions:
REMARK  status: ('A' for Active; 'I' for Inactive)
REMARK    1  A    between atoms: C_1  and  C_2
REMARK    2  A    between atoms: C_5  and  C_6
REMARK    3  A    between atoms: N_11  and  C_12
REMARK    4  A    between atoms: C_12  and  C_13
REMARK    5  A    between atoms: C_25  and  C_26
REMARK                            x       y       z     vdW  Elec       q    Type
REMARK                         _______ _______ _______ _____ _____    ______ ____
ROOT
ATOM      1  C   UNL     1       0.476   9.925  20.070  0.00  0.00    +0.000 A 
ATOM      2  C   UNL     1       0.822  10.647  18.807  0.00  0.00    +0.000 A 
ATOM      3  C   UNL     1       1.616  10.039  17.925  0.00  0.00    +0.000 A 
ATOM      4  C   UNL     1       2.121   8.710  18.265  0.00  0.00    +0.000 A 
ATOM      5  N   UNL     1       2.906   7.969  17.545  0.00  0.00    +0.000 NA
ATOM      6  N   UNL     1       3.086   6.840  18.329  0.00  0.00    +0.000 N 
ATOM      7  C   UNL     1       2.367   6.943  19.539  0.00  0.00    +0.000 A 
ATOM      8  O   UNL     1       2.312   6.106  20.426  0.00  0.00    +0.000 OA
ATOM      9  N   UNL     1       1.755   8.180  19.455  0.00  0.00    +0.000 N 
ATOM     10  N   UNL     1       0.935   8.749  20.382  0.00  0.00    +0.000 NA
ENDROOT
BRANCH   1  15
ATOM     11  C   UNL     1      -3.151  12.674  23.671  0.00  0.00    +0.000 C 
ATOM     12  C   UNL     1      -2.208  11.987  22.723  0.00  0.00    +0.000 A 
ATOM     13  C   UNL     1      -1.365  10.982  23.213  0.00  0.00    +0.000 A 
ATOM     14  C   UNL     1      -0.477  10.325  22.365  0.00  0.00    +0.000 A 
ATOM     15  C   UNL     1      -0.428  10.650  21.006  0.00  0.00    +0.000 A 
ATOM     16  C   UNL     1      -1.250  11.669  20.511  0.00  0.00    +0.000 A 
ATOM     17  C   UNL     1      -2.146  12.341  21.359  0.00  0.00    +0.000 A 
ATOM     18  C   UNL     1      -3.022  13.426  20.793  0.00  0.00    +0.000 C 
ENDBRANCH   1  15
BRANCH   6  19
ATOM     19  C   UNL     1       3.890   5.720  17.916  0.00  0.00    +0.000 C 
BRANCH  19  20
ATOM     20  C   UNL     1       5.372   5.946  18.091  0.00  0.00    +0.000 A 
ATOM     21  C   UNL     1       6.093   6.722  17.168  0.00  0.00    +0.000 A 
ATOM     22  C   UNL     1       7.435   7.042  17.400  0.00  0.00    +0.000 A 
ATOM     23  C   UNL     1       8.082   6.549  18.531  0.00  0.00    +0.000 A 
ATOM     24  C   UNL     1       7.389   5.728  19.411  0.00  0.00    +0.000 A 
ATOM     25  F   UNL     1       8.016   5.243  20.492  0.00  0.00    +0.000 F 
ATOM     26  C   UNL     1       6.046   5.425  19.206  0.00  0.00    +0.000 A 
ENDBRANCH  19  20
ENDBRANCH   6  19
TORSDOF 3
ENDMDL
MODEL 9
REMARK VINA RESULT:      -8.5      3.757      9.258
REMARK  Name = 
REMARK  5 active torsions:
REMARK  status: ('A' for Active; 'I' for Inactive)
REMARK    1  A    between atoms: C_1  and  C_2
REMARK    2  A    between atoms: C_5  and  C_6
REMARK    3  A    between atoms: N_11  and  C_12
REMARK    4  A    between atoms: C_12  and  C_13
REMARK    5  A    between atoms: C_25  and  C_26
REMARK                            x       y       z     vdW  Elec       q    Type
REMARK                         _______ _______ _______ _____ _____    ______ ____
ROOT
ATOM      1  C   UNL     1       2.017   7.644  19.621  0.00  0.00    +0.000 A 
ATOM      2  C   UNL     1       2.002   8.300  18.278  0.00  0.00    +0.000 A 
ATOM      3  C   UNL     1       1.542   9.548  18.186  0.00  0.00    +0.000 A 
ATOM      4  C   UNL     1       1.055  10.186  19.407  0.00  0.00    +0.000 A 
ATOM      5  N   UNL     1       0.566  11.384  19.518  0.00  0.00    +0.000 NA
ATOM      6  N   UNL     1       0.247  11.476  20.864  0.00  0.00    +0.000 N 
ATOM      7  C   UNL     1       0.576  10.283  21.544  0.00  0.00    +0.000 A 
ATOM      8  O   UNL     1       0.431  10.063  22.736  0.00  0.00    +0.000 OA
ATOM      9  N   UNL     1       1.098   9.470  20.555  0.00  0.00    +0.000 N 
ATOM     10  N   UNL     1       1.572   8.202  20.707  0.00  0.00    +0.000 NA
ENDROOT
BRANCH   1  15
ATOM     11  C   UNL     1       4.021   2.197  19.697  0.00  0.00    +0.000 C 
ATOM     12  C   UNL     1       3.497   3.606  19.707  0.00  0.00    +0.000 A 
ATOM     13  C   UNL     1       4.057   4.544  18.831  0.00  0.00    +0.000 A 
ATOM     14  C   UNL     1       3.599   5.860  18.814  0.00  0.00    +0.000 A 
ATOM     15  C   UNL     1       2.559   6.256  19.660  0.00  0.00    +0.000 A 
ATOM     16  C   UNL     1       2.008   5.332  20.555  0.00  0.00    +0.000 A 
ATOM     17  C   UNL     1       2.466   4.004  20.584  0.00  0.00    +0.000 A 
ATOM     18  C   UNL     1       1.847   3.033  21.552  0.00  0.00    +0.000 C 
ENDBRANCH   1  15
BRANCH   6  19
ATOM     19  C   UNL     1      -0.322  12.657  21.455  0.00  0.00    +0.000 C 
BRANCH  19  20
ATOM     20  C   UNL     1      -1.826  12.610  21.567  0.00  0.00    +0.000 A 
ATOM     21  C   UNL     1      -2.450  12.521  22.823  0.00  0.00    +0.000 A 
ATOM     22  C   UNL     1      -3.841  12.611  22.936  0.00  0.00    +0.000 A 
ATOM     23  C   UNL     1      -4.625  12.742  21.792  0.00  0.00    +0.000 A 
ATOM     24  C   UNL     1      -4.015  12.765  20.545  0.00  0.00    +0.000 A 
ATOM     25  F   UNL     1      -4.769  12.878  19.443  0.00  0.00    +0.000 F 
ATOM     26  C   UNL     1      -2.629  12.704  20.421  0.00  0.00    +0.000 A 
ENDBRANCH  19  20
ENDBRANCH   6  19
TORSDOF 3
ENDMDL
