MODEL 1
REMARK VINA RESULT:      -8.3      0.000      0.000
REMARK  Name = 
REMARK  8 active torsions:
REMARK  status: ('A' for Active; 'I' for Inactive)
REMARK    1  A    between atoms: C_1  and  C_2
REMARK    2  A    between atoms: C_2  and  C_3
REMARK    3  A    between atoms: C_2  and  C_4
REMARK    4  A    between atoms: C_2  and  C_5
REMARK    5  A    between atoms: N_11  and  C_12
REMARK    6  A    between atoms: C_15  and  N_16
REMARK    7  A    between atoms: C_17  and  C_19
REMARK    8  A    between atoms: C_23  and  O_24
REMARK                            x       y       z     vdW  Elec       q    Type
REMARK                         _______ _______ _______ _____ _____    ______ ____
ROOT
ATOM      1  C   UNL     1       1.100  10.231  19.385  0.00  0.00    +0.000 A 
ATOM      2  C   UNL     1       1.181   9.412  20.505  0.00  0.00    +0.000 A 
ATOM      3  C   UNL     1       1.623   8.093  20.370  0.00  0.00    +0.000 A 
ATOM      4  C   UNL     1       2.031   7.595  19.128  0.00  0.00    +0.000 A 
ATOM      5  C   UNL     1       1.998   8.442  18.017  0.00  0.00    +0.000 A 
ATOM      6  C   UNL     1       1.488   9.740  18.137  0.00  0.00    +0.000 A 
ENDROOT
BRANCH   1  13
ATOM      7  C   UNL     1       0.591  16.213  18.556  0.00  0.00    +0.000 A 
ATOM      8  C   UNL     1      -0.565  15.573  18.947  0.00  0.00    +0.000 A 
ATOM      9  C   UNL     1      -0.191  14.217  19.095  0.00  0.00    +0.000 A 
ATOM     10  N   UNL     1      -1.053  13.186  19.407  0.00  0.00    +0.000 N 
ATOM     11  C   UNL     1      -0.758  11.849  19.456  0.00  0.00    +0.000 C 
ATOM     12  O   UNL     1      -1.686  11.047  19.546  0.00  0.00    +0.000 OA
ATOM     13  N   UNL     1       0.571  11.522  19.455  0.00  0.00    +0.000 N 
ATOM     14  N   UNL     1       1.118  14.067  18.872  0.00  0.00    +0.000 NA
ATOM     15  O   UNL     1       1.598  15.301  18.516  0.00  0.00    +0.000 OA
ATOM     16  H   UNL     1      -2.036  13.396  19.493  0.00  0.00    +0.000 HD
ATOM     17  H   UNL     1       1.200  12.271  19.719  0.00  0.00    +0.000 HD
BRANCH   7  19
ATOM     18  C   UNL     1       1.383  18.393  19.435  0.00  0.00    +0.000 C 
ATOM     19  C   UNL     1       0.937  17.627  18.180  0.00  0.00    +0.000 C 
ATOM     20  C   UNL     1      -0.298  18.309  17.567  0.00  0.00    +0.000 C 
ATOM     21  C   UNL     1       2.081  17.668  17.146  0.00  0.00    +0.000 C 
ENDBRANCH   7  19
ENDBRANCH   1  13
BRANCH   4  22
ATOM     22  N   UNL     1       2.461   6.267  18.941  0.00  0.00    +0.000 N 
ATOM     23  C   UNL     1       2.074   5.175  19.697  0.00  0.00    +0.000 C 
ATOM     24  O   UNL     1       1.296   5.180  20.648  0.00  0.00    +0.000 OA
ATOM     25  H   UNL     1       3.019   6.045  18.119  0.00  0.00    +0.000 HD
BRANCH  23  26
ATOM     26  C   UNL     1       2.643   3.868  19.247  0.00  0.00    +0.000 A 
ATOM     27  C   UNL     1       2.103   3.253  18.119  0.00  0.00    +0.000 A 
ATOM     28  C   UNL     1       2.642   2.044  17.704  0.00  0.00    +0.000 A 
ATOM     29  C   UNL     1       3.690   1.488  18.426  0.00  0.00    +0.000 A 
ATOM     30  C   UNL     1       4.162   2.180  19.535  0.00  0.00    +0.000 A 
ATOM     31  N   UNL     1       3.674   3.356  19.970  0.00  0.00    +0.000 NA
BRANCH  30  32
ATOM     32  O   UNL     1       5.197   1.690  20.275  0.00  0.00    +0.000 OA
ATOM     33  H   UNL     1       4.829   1.098  20.949  0.00  0.00    +0.000 HD
ENDBRANCH  30  32
ENDBRANCH  23  26
ENDBRANCH   4  22
TORSDOF 5
ENDMDL
MODEL 2
REMARK VINA RESULT:      -8.1      0.520      1.041
REMARK  Name = 
REMARK  8 active torsions:
REMARK  status: ('A' for Active; 'I' for Inactive)
REMARK    1  A    between atoms: C_1  and  C_2
REMARK    2  A    between atoms: C_2  and  C_3
REMARK    3  A    between atoms: C_2  and  C_4
REMARK    4  A    between atoms: C_2  and  C_5
REMARK    5  A    between atoms: N_11  and  C_12
REMARK    6  A    between atoms: C_15  and  N_16
REMARK    7  A    between atoms: C_17  and  C_19
REMARK    8  A    between atoms: C_23  and  O_24
REMARK                            x       y       z     vdW  Elec       q    Type
REMARK                         _______ _______ _______ _____ _____    ______ ____
ROOT
ATOM      1  C   UNL     1       1.006  10.143  19.344  0.00  0.00    +0.000 A 
ATOM      2  C   UNL     1       1.054   9.331  20.471  0.00  0.00    +0.000 A 
ATOM      3  C   UNL     1       1.531   8.022  20.363  0.00  0.00    +0.000 A 
ATOM      4  C   UNL     1       2.007   7.528  19.144  0.00  0.00    +0.000 A 
ATOM      5  C   UNL     1       2.007   8.369  18.029  0.00  0.00    +0.000 A 
ATOM      6  C   UNL     1       1.463   9.655  18.117  0.00  0.00    +0.000 A 
ENDROOT
BRANCH   1  13
ATOM      7  C   UNL     1       0.628  16.188  19.123  0.00  0.00    +0.000 A 
ATOM      8  C   UNL     1      -0.572  15.518  19.008  0.00  0.00    +0.000 A 
ATOM      9  C   UNL     1      -0.230  14.150  19.110  0.00  0.00    +0.000 A 
ATOM     10  N   UNL     1      -1.113  13.100  18.976  0.00  0.00    +0.000 N 
ATOM     11  C   UNL     1      -0.812  11.763  18.961  0.00  0.00    +0.000 C 
ATOM     12  O   UNL     1      -1.687  10.968  18.625  0.00  0.00    +0.000 OA
ATOM     13  N   UNL     1       0.445  11.422  19.382  0.00  0.00    +0.000 N 
ATOM     14  N   UNL     1       1.080  14.012  19.339  0.00  0.00    +0.000 NA
ATOM     15  O   UNL     1       1.614  15.275  19.325  0.00  0.00    +0.000 OA
ATOM     16  H   UNL     1      -2.072  13.309  18.740  0.00  0.00    +0.000 HD
ATOM     17  H   UNL     1       0.920  12.124  19.937  0.00  0.00    +0.000 HD
BRANCH   7  19
ATOM     18  C   UNL     1       1.212  18.054  17.598  0.00  0.00    +0.000 C 
ATOM     19  C   UNL     1       1.037  17.633  19.065  0.00  0.00    +0.000 C 
ATOM     20  C   UNL     1       2.365  17.818  19.820  0.00  0.00    +0.000 C 
ATOM     21  C   UNL     1      -0.024  18.543  19.715  0.00  0.00    +0.000 C 
ENDBRANCH   7  19
ENDBRANCH   1  13
BRANCH   4  22
ATOM     22  N   UNL     1       2.476   6.209  18.984  0.00  0.00    +0.000 N 
ATOM     23  C   UNL     1       1.970   5.087  19.616  0.00  0.00    +0.000 C 
ATOM     24  O   UNL     1       1.037   5.052  20.413  0.00  0.00    +0.000 OA
ATOM     25  H   UNL     1       3.172   6.021  18.266  0.00  0.00    +0.000 HD
BRANCH  23  26
ATOM     26  C   UNL     1       2.622   3.800  19.224  0.00  0.00    +0.000 A 
ATOM     27  C   UNL     1       2.160   3.132  18.091  0.00  0.00    +0.000 A 
ATOM     28  C   UNL     1       2.775   1.942  17.729  0.00  0.00    +0.000 A 
ATOM     29  C   UNL     1       3.818   1.457  18.507  0.00  0.00    +0.000 A 
ATOM     30  C   UNL     1       4.210   2.199  19.615  0.00  0.00    +0.000 A 
ATOM     31  N   UNL     1       3.646   3.358  20.000  0.00  0.00    +0.000 NA
BRANCH  30  32
ATOM     32  O   UNL     1       5.236   1.779  20.409  0.00  0.00    +0.000 OA
ATOM     33  H   UNL     1       5.705   1.071  19.943  0.00  0.00    +0.000 HD
ENDBRANCH  30  32
ENDBRANCH  23  26
ENDBRANCH   4  22
TORSDOF 5
ENDMDL
MODEL 3
REMARK VINA RESULT:      -7.9      3.802      5.080
REMARK  Name = 
REMARK  8 active torsions:
REMARK  status: ('A' for Active; 'I' for Inactive)
REMARK    1  A    between atoms: C_1  and  C_2
REMARK    2  A    between atoms: C_2  and  C_3
REMARK    3  A    between atoms: C_2  and  C_4
REMARK    4  A    between atoms: C_2  and  C_5
REMARK    5  A    between atoms: N_11  and  C_12
REMARK    6  A    between atoms: C_15  and  N_16
REMARK    7  A    between atoms: C_17  and  C_19
REMARK    8  A    between atoms: C_23  and  O_24
REMARK                            x       y       z     vdW  Elec       q    Type
REMARK                         _______ _______ _______ _____ _____    ______ ____
ROOT
ATOM      1  C   UNL     1      -0.174  10.798  20.782  0.00  0.00    +0.000 A 
ATOM      2  C   UNL     1       0.219   9.793  21.658  0.00  0.00    +0.000 A 
ATOM      3  C   UNL     1       1.017   8.743  21.197  0.00  0.00    +0.000 A 
ATOM      4  C   UNL     1       1.469   8.711  19.873  0.00  0.00    +0.000 A 
ATOM      5  C   UNL     1       1.115   9.755  19.014  0.00  0.00    +0.000 A 
ATOM      6  C   UNL     1       0.257  10.768  19.454  0.00  0.00    +0.000 A 
ENDROOT
BRANCH   1  13
ATOM      7  C   UNL     1      -5.262  13.483  22.688  0.00  0.00    +0.000 A 
ATOM      8  C   UNL     1      -4.120  14.250  22.784  0.00  0.00    +0.000 A 
ATOM      9  C   UNL     1      -3.093  13.428  22.267  0.00  0.00    +0.000 A 
ATOM     10  N   UNL     1      -1.754  13.759  22.234  0.00  0.00    +0.000 N 
ATOM     11  C   UNL     1      -0.714  12.957  21.842  0.00  0.00    +0.000 C 
ATOM     12  O   UNL     1       0.434  13.333  22.070  0.00  0.00    +0.000 OA
ATOM     13  N   UNL     1      -1.052  11.812  21.173  0.00  0.00    +0.000 N 
ATOM     14  N   UNL     1      -3.597  12.271  21.827  0.00  0.00    +0.000 NA
ATOM     15  O   UNL     1      -4.938  12.297  22.109  0.00  0.00    +0.000 OA
ATOM     16  H   UNL     1      -1.468  14.632  22.650  0.00  0.00    +0.000 HD
ATOM     17  H   UNL     1      -1.981  11.807  20.768  0.00  0.00    +0.000 HD
BRANCH   7  19
ATOM     18  C   UNL     1      -7.151  12.514  23.970  0.00  0.00    +0.000 C 
ATOM     19  C   UNL     1      -6.700  13.681  23.078  0.00  0.00    +0.000 C 
ATOM     20  C   UNL     1      -7.571  13.732  21.811  0.00  0.00    +0.000 C 
ATOM     21  C   UNL     1      -6.894  14.998  23.857  0.00  0.00    +0.000 C 
ENDBRANCH   7  19
ENDBRANCH   1  13
BRANCH   4  22
ATOM     22  N   UNL     1       2.255   7.663  19.358  0.00  0.00    +0.000 N 
ATOM     23  C   UNL     1       2.279   6.361  19.827  0.00  0.00    +0.000 C 
ATOM     24  O   UNL     1       1.622   5.906  20.759  0.00  0.00    +0.000 OA
ATOM     25  H   UNL     1       2.779   7.820  18.499  0.00  0.00    +0.000 HD
BRANCH  23  26
ATOM     26  C   UNL     1       3.168   5.435  19.061  0.00  0.00    +0.000 A 
ATOM     27  C   UNL     1       3.390   5.682  17.708  0.00  0.00    +0.000 A 
ATOM     28  C   UNL     1       4.222   4.822  17.006  0.00  0.00    +0.000 A 
ATOM     29  C   UNL     1       4.797   3.747  17.671  0.00  0.00    +0.000 A 
ATOM     30  C   UNL     1       4.518   3.587  19.023  0.00  0.00    +0.000 A 
ATOM     31  N   UNL     1       3.722   4.398  19.744  0.00  0.00    +0.000 NA
BRANCH  30  32
ATOM     32  O   UNL     1       5.064   2.557  19.731  0.00  0.00    +0.000 OA
ATOM     33  H   UNL     1       5.404   1.906  19.099  0.00  0.00    +0.000 HD
ENDBRANCH  30  32
ENDBRANCH  23  26
ENDBRANCH   4  22
TORSDOF 5
ENDMDL
MODEL 4
REMARK VINA RESULT:      -7.9      3.967      5.271
REMARK  Name = 
REMARK  8 active torsions:
REMARK  status: ('A' for Active; 'I' for Inactive)
REMARK    1  A    between atoms: C_1  and  C_2
REMARK    2  A    between atoms: C_2  and  C_3
REMARK    3  A    between atoms: C_2  and  C_4
REMARK    4  A    between atoms: C_2  and  C_5
REMARK    5  A    between atoms: N_11  and  C_12
REMARK    6  A    between atoms: C_15  and  N_16
REMARK    7  A    between atoms: C_17  and  C_19
REMARK    8  A    between atoms: C_23  and  O_24
REMARK                            x       y       z     vdW  Elec       q    Type
REMARK                         _______ _______ _______ _____ _____    ______ ____
ROOT
ATOM      1  C   UNL     1      -0.320  10.854  20.937  0.00  0.00    +0.000 A 
ATOM      2  C   UNL     1       0.149   9.887  21.817  0.00  0.00    +0.000 A 
ATOM      3  C   UNL     1       0.970   8.859  21.345  0.00  0.00    +0.000 A 
ATOM      4  C   UNL     1       1.367   8.814  20.004  0.00  0.00    +0.000 A 
ATOM      5  C   UNL     1       0.935   9.822  19.138  0.00  0.00    +0.000 A 
ATOM      6  C   UNL     1       0.055  10.811  19.592  0.00  0.00    +0.000 A 
ENDROOT
BRANCH   1  13
ATOM      7  C   UNL     1      -5.534  13.425  22.654  0.00  0.00    +0.000 A 
ATOM      8  C   UNL     1      -4.400  14.168  22.907  0.00  0.00    +0.000 A 
ATOM      9  C   UNL     1      -3.338  13.381  22.405  0.00  0.00    +0.000 A 
ATOM     10  N   UNL     1      -1.999  13.698  22.507  0.00  0.00    +0.000 N 
ATOM     11  C   UNL     1      -0.934  12.921  22.132  0.00  0.00    +0.000 C 
ATOM     12  O   UNL     1       0.193  13.263  22.482  0.00  0.00    +0.000 OA
ATOM     13  N   UNL     1      -1.223  11.842  21.342  0.00  0.00    +0.000 N 
ATOM     14  N   UNL     1      -3.810  12.272  21.828  0.00  0.00    +0.000 NA
ATOM     15  O   UNL     1      -5.170  12.290  22.003  0.00  0.00    +0.000 OA
ATOM     16  H   UNL     1      -1.743  14.530  23.018  0.00  0.00    +0.000 HD
ATOM     17  H   UNL     1      -2.116  11.881  20.865  0.00  0.00    +0.000 HD
BRANCH   7  19
ATOM     18  C   UNL     1      -7.740  13.922  21.636  0.00  0.00    +0.000 C 
ATOM     19  C   UNL     1      -6.997  13.606  22.944  0.00  0.00    +0.000 C 
ATOM     20  C   UNL     1      -7.182  14.764  23.938  0.00  0.00    +0.000 C 
ATOM     21  C   UNL     1      -7.609  12.331  23.560  0.00  0.00    +0.000 C 
ENDBRANCH   7  19
ENDBRANCH   1  13
BRANCH   4  22
ATOM     22  N   UNL     1       2.174   7.786  19.480  0.00  0.00    +0.000 N 
ATOM     23  C   UNL     1       2.162   6.462  19.880  0.00  0.00    +0.000 C 
ATOM     24  O   UNL     1       1.450   5.965  20.749  0.00  0.00    +0.000 OA
ATOM     25  H   UNL     1       2.746   7.983  18.661  0.00  0.00    +0.000 HD
BRANCH  23  26
ATOM     26  C   UNL     1       3.086   5.568  19.118  0.00  0.00    +0.000 A 
ATOM     27  C   UNL     1       2.601   4.901  17.994  0.00  0.00    +0.000 A 
ATOM     28  C   UNL     1       3.467   4.080  17.288  0.00  0.00    +0.000 A 
ATOM     29  C   UNL     1       4.778   3.945  17.726  0.00  0.00    +0.000 A 
ATOM     30  C   UNL     1       5.169   4.655  18.855  0.00  0.00    +0.000 A 
ATOM     31  N   UNL     1       4.365   5.466  19.567  0.00  0.00    +0.000 NA
BRANCH  30  32
ATOM     32  O   UNL     1       6.446   4.572  19.324  0.00  0.00    +0.000 OA
ATOM     33  H   UNL     1       6.571   3.687  19.698  0.00  0.00    +0.000 HD
ENDBRANCH  30  32
ENDBRANCH  23  26
ENDBRANCH   4  22
TORSDOF 5
ENDMDL
MODEL 5
REMARK VINA RESULT:      -7.9      3.552     11.313
REMARK  Name = 
REMARK  8 active torsions:
REMARK  status: ('A' for Active; 'I' for Inactive)
REMARK    1  A    between atoms: C_1  and  C_2
REMARK    2  A    between atoms: C_2  and  C_3
REMARK    3  A    between atoms: C_2  and  C_4
REMARK    4  A    between atoms: C_2  and  C_5
REMARK    5  A    between atoms: N_11  and  C_12
REMARK    6  A    between atoms: C_15  and  N_16
REMARK    7  A    between atoms: C_17  and  C_19
REMARK    8  A    between atoms: C_23  and  O_24
REMARK                            x       y       z     vdW  Elec       q    Type
REMARK                         _______ _______ _______ _____ _____    ______ ____
ROOT
ATOM      1  C   UNL     1       0.456  10.008  20.021  0.00  0.00    +0.000 A 
ATOM      2  C   UNL     1      -0.628  10.385  19.237  0.00  0.00    +0.000 A 
ATOM      3  C   UNL     1      -1.490  11.391  19.682  0.00  0.00    +0.000 A 
ATOM      4  C   UNL     1      -1.251  12.061  20.887  0.00  0.00    +0.000 A 
ATOM      5  C   UNL     1      -0.127  11.714  21.642  0.00  0.00    +0.000 A 
ATOM      6  C   UNL     1       0.695  10.658  21.234  0.00  0.00    +0.000 A 
ENDROOT
BRANCH   1  13
ATOM      7  C   UNL     1       2.672   4.372  19.782  0.00  0.00    +0.000 A 
ATOM      8  C   UNL     1       3.108   5.219  18.785  0.00  0.00    +0.000 A 
ATOM      9  C   UNL     1       2.482   6.455  19.066  0.00  0.00    +0.000 A 
ATOM     10  N   UNL     1       2.572   7.586  18.282  0.00  0.00    +0.000 N 
ATOM     11  C   UNL     1       1.902   8.768  18.456  0.00  0.00    +0.000 C 
ATOM     12  O   UNL     1       1.936   9.601  17.552  0.00  0.00    +0.000 OA
ATOM     13  N   UNL     1       1.285   8.941  19.666  0.00  0.00    +0.000 N 
ATOM     14  N   UNL     1       1.772   6.372  20.196  0.00  0.00    +0.000 NA
ATOM     15  O   UNL     1       1.872   5.075  20.626  0.00  0.00    +0.000 OA
ATOM     16  H   UNL     1       3.083   7.525  17.414  0.00  0.00    +0.000 HD
ATOM     17  H   UNL     1       1.621   8.342  20.411  0.00  0.00    +0.000 HD
BRANCH   7  19
ATOM     18  C   UNL     1       4.358   2.554  19.853  0.00  0.00    +0.000 C 
ATOM     19  C   UNL     1       2.885   2.918  20.097  0.00  0.00    +0.000 C 
ATOM     20  C   UNL     1       1.982   2.062  19.191  0.00  0.00    +0.000 C 
ATOM     21  C   UNL     1       2.538   2.605  21.567  0.00  0.00    +0.000 C 
ENDBRANCH   7  19
ENDBRANCH   1  13
BRANCH   4  22
ATOM     22  N   UNL     1      -2.104  13.065  21.386  0.00  0.00    +0.000 N 
ATOM     23  C   UNL     1      -2.980  12.930  22.449  0.00  0.00    +0.000 C 
ATOM     24  O   UNL     1      -3.157  11.924  23.130  0.00  0.00    +0.000 OA
ATOM     25  H   UNL     1      -2.010  14.011  21.024  0.00  0.00    +0.000 HD
BRANCH  23  26
ATOM     26  C   UNL     1      -3.730  14.173  22.804  0.00  0.00    +0.000 A 
ATOM     27  C   UNL     1      -3.175  15.409  22.478  0.00  0.00    +0.000 A 
ATOM     28  C   UNL     1      -3.882  16.558  22.804  0.00  0.00    +0.000 A 
ATOM     29  C   UNL     1      -5.107  16.437  23.446  0.00  0.00    +0.000 A 
ATOM     30  C   UNL     1      -5.579  15.160  23.724  0.00  0.00    +0.000 A 
ATOM     31  N   UNL     1      -4.931  14.020  23.422  0.00  0.00    +0.000 NA
BRANCH  30  32
ATOM     32  O   UNL     1      -6.781  14.980  24.342  0.00  0.00    +0.000 OA
ATOM     33  H   UNL     1      -6.621  14.525  25.182  0.00  0.00    +0.000 HD
ENDBRANCH  30  32
ENDBRANCH  23  26
ENDBRANCH   4  22
TORSDOF 5
ENDMDL
MODEL 6
REMARK VINA RESULT:      -7.8      3.712      5.049
REMARK  Name = 
REMARK  8 active torsions:
REMARK  status: ('A' for Active; 'I' for Inactive)
REMARK    1  A    between atoms: C_1  and  C_2
REMARK    2  A    between atoms: C_2  and  C_3
REMARK    3  A    between atoms: C_2  and  C_4
REMARK    4  A    between atoms: C_2  and  C_5
REMARK    5  A    between atoms: N_11  and  C_12
REMARK    6  A    between atoms: C_15  and  N_16
REMARK    7  A    between atoms: C_17  and  C_19
REMARK    8  A    between atoms: C_23  and  O_24
REMARK                            x       y       z     vdW  Elec       q    Type
REMARK                         _______ _______ _______ _____ _____    ______ ____
ROOT
ATOM      1  C   UNL     1      -0.504  11.009  19.704  0.00  0.00    +0.000 A 
ATOM      2  C   UNL     1       0.158  10.341  20.728  0.00  0.00    +0.000 A 
ATOM      3  C   UNL     1       1.080   9.338  20.420  0.00  0.00    +0.000 A 
ATOM      4  C   UNL     1       1.385   9.025  19.091  0.00  0.00    +0.000 A 
ATOM      5  C   UNL     1       0.756   9.740  18.068  0.00  0.00    +0.000 A 
ATOM      6  C   UNL     1      -0.221  10.694  18.373  0.00  0.00    +0.000 A 
ENDROOT
BRANCH   1  13
ATOM      7  C   UNL     1      -5.442  13.508  22.176  0.00  0.00    +0.000 A 
ATOM      8  C   UNL     1      -4.604  14.384  21.520  0.00  0.00    +0.000 A 
ATOM      9  C   UNL     1      -3.559  13.574  21.020  0.00  0.00    +0.000 A 
ATOM     10  N   UNL     1      -2.445  14.039  20.352  0.00  0.00    +0.000 N 
ATOM     11  C   UNL     1      -1.360  13.308  19.944  0.00  0.00    +0.000 C 
ATOM     12  O   UNL     1      -0.363  13.909  19.549  0.00  0.00    +0.000 OA
ATOM     13  N   UNL     1      -1.506  11.947  19.965  0.00  0.00    +0.000 N 
ATOM     14  N   UNL     1      -3.790  12.288  21.301  0.00  0.00    +0.000 NA
ATOM     15  O   UNL     1      -4.945  12.250  22.037  0.00  0.00    +0.000 OA
ATOM     16  H   UNL     1      -2.334  15.036  20.246  0.00  0.00    +0.000 HD
ATOM     17  H   UNL     1      -2.463  11.616  19.983  0.00  0.00    +0.000 HD
BRANCH   7  19
ATOM     18  C   UNL     1      -6.667  12.703  24.176  0.00  0.00    +0.000 C 
ATOM     19  C   UNL     1      -6.708  13.657  22.972  0.00  0.00    +0.000 C 
ATOM     20  C   UNL     1      -7.914  13.316  22.080  0.00  0.00    +0.000 C 
ATOM     21  C   UNL     1      -6.877  15.098  23.493  0.00  0.00    +0.000 C 
ENDBRANCH   7  19
ENDBRANCH   1  13
BRANCH   4  22
ATOM     22  N   UNL     1       2.290   8.008  18.733  0.00  0.00    +0.000 N 
ATOM     23  C   UNL     1       2.461   6.805  19.395  0.00  0.00    +0.000 C 
ATOM     24  O   UNL     1       1.856   6.425  20.394  0.00  0.00    +0.000 OA
ATOM     25  H   UNL     1       2.797   8.090  17.854  0.00  0.00    +0.000 HD
BRANCH  23  26
ATOM     26  C   UNL     1       3.455   5.880  18.769  0.00  0.00    +0.000 A 
ATOM     27  C   UNL     1       3.928   6.168  17.490  0.00  0.00    +0.000 A 
ATOM     28  C   UNL     1       4.856   5.309  16.919  0.00  0.00    +0.000 A 
ATOM     29  C   UNL     1       5.275   4.196  17.636  0.00  0.00    +0.000 A 
ATOM     30  C   UNL     1       4.749   3.997  18.906  0.00  0.00    +0.000 A 
ATOM     31  N   UNL     1       3.852   4.805  19.500  0.00  0.00    +0.000 NA
BRANCH  30  32
ATOM     32  O   UNL     1       5.132   2.928  19.661  0.00  0.00    +0.000 OA
ATOM     33  H   UNL     1       4.489   2.821  20.378  0.00  0.00    +0.000 HD
ENDBRANCH  30  32
ENDBRANCH  23  26
ENDBRANCH   4  22
TORSDOF 5
ENDMDL
MODEL 7
REMARK VINA RESULT:      -7.8      3.973      5.175
REMARK  Name = 
REMARK  8 active torsions:
REMARK  status: ('A' for Active; 'I' for Inactive)
REMARK    1  A    between atoms: C_1  and  C_2
REMARK    2  A    between atoms: C_2  and  C_3
REMARK    3  A    between atoms: C_2  and  C_4
REMARK    4  A    between atoms: C_2  and  C_5
REMARK    5  A    between atoms: N_11  and  C_12
REMARK    6  A    between atoms: C_15  and  N_16
REMARK    7  A    between atoms: C_17  and  C_19
REMARK    8  A    between atoms: C_23  and  O_24
REMARK                            x       y       z     vdW  Elec       q    Type
REMARK                         _______ _______ _______ _____ _____    ______ ____
ROOT
ATOM      1  C   UNL     1      -0.398  10.557  21.438  0.00  0.00    +0.000 A 
ATOM      2  C   UNL     1       0.017   9.797  22.526  0.00  0.00    +0.000 A 
ATOM      3  C   UNL     1       0.752   8.628  22.315  0.00  0.00    +0.000 A 
ATOM      4  C   UNL     1       1.120   8.232  21.024  0.00  0.00    +0.000 A 
ATOM      5  C   UNL     1       0.746   9.032  19.941  0.00  0.00    +0.000 A 
ATOM      6  C   UNL     1      -0.052  10.163  20.144  0.00  0.00    +0.000 A 
ENDROOT
BRANCH   1  13
ATOM      7  C   UNL     1      -5.292  13.870  22.781  0.00  0.00    +0.000 A 
ATOM      8  C   UNL     1      -4.118  14.581  22.650  0.00  0.00    +0.000 A 
ATOM      9  C   UNL     1      -3.146  13.609  22.319  0.00  0.00    +0.000 A 
ATOM     10  N   UNL     1      -1.798  13.856  22.164  0.00  0.00    +0.000 N 
ATOM     11  C   UNL     1      -0.808  12.934  21.949  0.00  0.00    +0.000 C 
ATOM     12  O   UNL     1       0.363  13.298  22.041  0.00  0.00    +0.000 OA
ATOM     13  N   UNL     1      -1.219  11.678  21.594  0.00  0.00    +0.000 N 
ATOM     14  N   UNL     1      -3.714  12.405  22.194  0.00  0.00    +0.000 NA
ATOM     15  O   UNL     1      -5.040  12.565  22.503  0.00  0.00    +0.000 OA
ATOM     16  H   UNL     1      -1.461  14.790  22.342  0.00  0.00    +0.000 HD
ATOM     17  H   UNL     1      -2.163  11.618  21.233  0.00  0.00    +0.000 HD
BRANCH   7  19
ATOM     18  C   UNL     1      -6.717  15.606  23.833  0.00  0.00    +0.000 C 
ATOM     19  C   UNL     1      -6.703  14.227  23.155  0.00  0.00    +0.000 C 
ATOM     20  C   UNL     1      -7.259  13.168  24.122  0.00  0.00    +0.000 C 
ATOM     21  C   UNL     1      -7.617  14.281  21.913  0.00  0.00    +0.000 C 
ENDBRANCH   7  19
ENDBRANCH   1  13
BRANCH   4  22
ATOM     22  N   UNL     1       1.840   7.051  20.763  0.00  0.00    +0.000 N 
ATOM     23  C   UNL     1       2.496   6.746  19.583  0.00  0.00    +0.000 C 
ATOM     24  O   UNL     1       2.562   7.448  18.578  0.00  0.00    +0.000 OA
ATOM     25  H   UNL     1       2.001   6.397  21.525  0.00  0.00    +0.000 HD
BRANCH  23  26
ATOM     26  C   UNL     1       3.230   5.443  19.593  0.00  0.00    +0.000 A 
ATOM     27  C   UNL     1       2.599   4.321  20.127  0.00  0.00    +0.000 A 
ATOM     28  C   UNL     1       3.284   3.115  20.125  0.00  0.00    +0.000 A 
ATOM     29  C   UNL     1       4.569   3.069  19.600  0.00  0.00    +0.000 A 
ATOM     30  C   UNL     1       5.110   4.241  19.086  0.00  0.00    +0.000 A 
ATOM     31  N   UNL     1       4.481   5.430  19.063  0.00  0.00    +0.000 NA
BRANCH  30  32
ATOM     32  O   UNL     1       6.362   4.253  18.546  0.00  0.00    +0.000 OA
ATOM     33  H   UNL     1       6.923   4.815  19.102  0.00  0.00    +0.000 HD
ENDBRANCH  30  32
ENDBRANCH  23  26
ENDBRANCH   4  22
TORSDOF 5
ENDMDL
MODEL 8
REMARK VINA RESULT:      -7.8      3.967      5.415
REMARK  Name = 
REMARK  8 active torsions:
REMARK  status: ('A' for Active; 'I' for Inactive)
REMARK    1  A    between atoms: C_1  and  C_2
REMARK    2  A    between atoms: C_2  and  C_3
REMARK    3  A    between atoms: C_2  and  C_4
REMARK    4  A    between atoms: C_2  and  C_5
REMARK    5  A    between atoms: N_11  and  C_12
REMARK    6  A    between atoms: C_15  and  N_16
REMARK    7  A    between atoms: C_17  and  C_19
REMARK    8  A    between atoms: C_23  and  O_24
REMARK                            x       y       z     vdW  Elec       q    Type
REMARK                         _______ _______ _______ _____ _____    ______ ____
ROOT
ATOM      1  C   UNL     1      -0.579  10.760  20.490  0.00  0.00    +0.000 A 
ATOM      2  C   UNL     1      -0.255  10.686  19.141  0.00  0.00    +0.000 A 
ATOM      3  C   UNL     1       0.702   9.764  18.707  0.00  0.00    +0.000 A 
ATOM      4  C   UNL     1       1.307   8.879  19.606  0.00  0.00    +0.000 A 
ATOM      5  C   UNL     1       0.934   8.923  20.952  0.00  0.00    +0.000 A 
ATOM      6  C   UNL     1       0.031   9.894  21.400  0.00  0.00    +0.000 A 
ENDROOT
BRANCH   1  13
ATOM      7  C   UNL     1      -5.708  13.298  22.488  0.00  0.00    +0.000 A 
ATOM      8  C   UNL     1      -4.554  13.997  22.776  0.00  0.00    +0.000 A 
ATOM      9  C   UNL     1      -3.518  13.229  22.197  0.00  0.00    +0.000 A 
ATOM     10  N   UNL     1      -2.171  13.511  22.299  0.00  0.00    +0.000 N 
ATOM     11  C   UNL     1      -1.129  12.743  21.848  0.00  0.00    +0.000 C 
ATOM     12  O   UNL     1       0.011  13.035  22.202  0.00  0.00    +0.000 OA
ATOM     13  N   UNL     1      -1.454  11.732  20.984  0.00  0.00    +0.000 N 
ATOM     14  N   UNL     1      -4.023  12.176  21.548  0.00  0.00    +0.000 NA
ATOM     15  O   UNL     1      -5.379  12.208  21.748  0.00  0.00    +0.000 OA
ATOM     16  H   UNL     1      -1.890  14.297  22.866  0.00  0.00    +0.000 HD
ATOM     17  H   UNL     1      -2.354  11.825  20.528  0.00  0.00    +0.000 HD
BRANCH   7  19
ATOM     18  C   UNL     1      -7.900  14.014  21.577  0.00  0.00    +0.000 C 
ATOM     19  C   UNL     1      -7.163  13.486  22.817  0.00  0.00    +0.000 C 
ATOM     20  C   UNL     1      -7.300  14.493  23.971  0.00  0.00    +0.000 C 
ATOM     21  C   UNL     1      -7.816  12.157  23.248  0.00  0.00    +0.000 C 
ENDBRANCH   7  19
ENDBRANCH   1  13
BRANCH   4  22
ATOM     22  N   UNL     1       2.291   7.949  19.219  0.00  0.00    +0.000 N 
ATOM     23  C   UNL     1       2.384   6.639  19.653  0.00  0.00    +0.000 C 
ATOM     24  O   UNL     1       1.630   6.071  20.439  0.00  0.00    +0.000 OA
ATOM     25  H   UNL     1       2.936   8.202  18.474  0.00  0.00    +0.000 HD
BRANCH  23  26
ATOM     26  C   UNL     1       3.498   5.853  19.040  0.00  0.00    +0.000 A 
ATOM     27  C   UNL     1       4.104   6.337  17.882  0.00  0.00    +0.000 A 
ATOM     28  C   UNL     1       5.143   5.606  17.325  0.00  0.00    +0.000 A 
ATOM     29  C   UNL     1       5.536   4.420  17.932  0.00  0.00    +0.000 A 
ATOM     30  C   UNL     1       4.873   4.023  19.086  0.00  0.00    +0.000 A 
ATOM     31  N   UNL     1       3.865   4.702  19.664  0.00  0.00    +0.000 NA
BRANCH  30  32
ATOM     32  O   UNL     1       5.224   2.875  19.732  0.00  0.00    +0.000 OA
ATOM     33  H   UNL     1       5.437   3.100  20.650  0.00  0.00    +0.000 HD
ENDBRANCH  30  32
ENDBRANCH  23  26
ENDBRANCH   4  22
TORSDOF 5
ENDMDL
MODEL 9
REMARK VINA RESULT:      -7.8      0.488      1.313
REMARK  Name = 
REMARK  8 active torsions:
REMARK  status: ('A' for Active; 'I' for Inactive)
REMARK    1  A    between atoms: C_1  and  C_2
REMARK    2  A    between atoms: C_2  and  C_3
REMARK    3  A    between atoms: C_2  and  C_4
REMARK    4  A    between atoms: C_2  and  C_5
REMARK    5  A    between atoms: N_11  and  C_12
REMARK    6  A    between atoms: C_15  and  N_16
REMARK    7  A    between atoms: C_17  and  C_19
REMARK    8  A    between atoms: C_23  and  O_24
REMARK                            x       y       z     vdW  Elec       q    Type
REMARK                         _______ _______ _______ _____ _____    ______ ____
ROOT
ATOM      1  C   UNL     1       1.113   9.907  19.188  0.00  0.00    +0.000 A 
ATOM      2  C   UNL     1       1.499   9.389  17.958  0.00  0.00    +0.000 A 
ATOM      3  C   UNL     1       2.026   8.096  17.885  0.00  0.00    +0.000 A 
ATOM      4  C   UNL     1       2.127   7.295  19.027  0.00  0.00    +0.000 A 
ATOM      5  C   UNL     1       1.685   7.805  20.251  0.00  0.00    +0.000 A 
ATOM      6  C   UNL     1       1.225   9.123  20.339  0.00  0.00    +0.000 A 
ENDROOT
BRANCH   1  13
ATOM      7  C   UNL     1       0.974  15.937  18.586  0.00  0.00    +0.000 A 
ATOM      8  C   UNL     1      -0.205  15.360  19.008  0.00  0.00    +0.000 A 
ATOM      9  C   UNL     1       0.083  13.978  19.093  0.00  0.00    +0.000 A 
ATOM     10  N   UNL     1      -0.832  12.996  19.408  0.00  0.00    +0.000 N 
ATOM     11  C   UNL     1      -0.627  11.641  19.399  0.00  0.00    +0.000 C 
ATOM     12  O   UNL     1      -1.602  10.899  19.503  0.00  0.00    +0.000 OA
ATOM     13  N   UNL     1       0.676  11.228  19.326  0.00  0.00    +0.000 N 
ATOM     14  N   UNL     1       1.368  13.750  18.805  0.00  0.00    +0.000 NA
ATOM     15  O   UNL     1       1.914  14.962  18.470  0.00  0.00    +0.000 OA
ATOM     16  H   UNL     1      -1.795  13.267  19.547  0.00  0.00    +0.000 HD
ATOM     17  H   UNL     1       1.365  11.923  19.586  0.00  0.00    +0.000 HD
BRANCH   7  19
ATOM     18  C   UNL     1       0.241  18.060  17.535  0.00  0.00    +0.000 C 
ATOM     19  C   UNL     1       1.398  17.337  18.243  0.00  0.00    +0.000 C 
ATOM     20  C   UNL     1       2.624  17.287  17.315  0.00  0.00    +0.000 C 
ATOM     21  C   UNL     1       1.776  18.135  19.507  0.00  0.00    +0.000 C 
ENDBRANCH   7  19
ENDBRANCH   1  13
BRANCH   4  22
ATOM     22  N   UNL     1       2.672   5.997  19.004  0.00  0.00    +0.000 N 
ATOM     23  C   UNL     1       2.158   4.891  19.658  0.00  0.00    +0.000 C 
ATOM     24  O   UNL     1       1.150   4.856  20.359  0.00  0.00    +0.000 OA
ATOM     25  H   UNL     1       3.446   5.802  18.374  0.00  0.00    +0.000 HD
BRANCH  23  26
ATOM     26  C   UNL     1       2.906   3.618  19.421  0.00  0.00    +0.000 A 
ATOM     27  C   UNL     1       2.708   2.936  18.222  0.00  0.00    +0.000 A 
ATOM     28  C   UNL     1       3.412   1.761  18.006  0.00  0.00    +0.000 A 
ATOM     29  C   UNL     1       4.280   1.303  18.989  0.00  0.00    +0.000 A 
ATOM     30  C   UNL     1       4.413   2.057  20.149  0.00  0.00    +0.000 A 
ATOM     31  N   UNL     1       3.755   3.203  20.399  0.00  0.00    +0.000 NA
BRANCH  30  32
ATOM     32  O   UNL     1       5.259   1.663  21.144  0.00  0.00    +0.000 OA
ATOM     33  H   UNL     1       5.716   2.450  21.476  0.00  0.00    +0.000 HD
ENDBRANCH  30  32
ENDBRANCH  23  26
ENDBRANCH   4  22
TORSDOF 5
ENDMDL
