MODEL 1
REMARK VINA RESULT:      -7.4      0.000      0.000
REMARK  Name = 
REMARK  11 active torsions:
REMARK  status: ('A' for Active; 'I' for Inactive)
REMARK    1  A    between atoms: C_2  and  O_3
REMARK    2  A    between atoms: C_2  and  C_23
REMARK    3  A    between atoms: O_3  and  C_4
REMARK    4  A    between atoms: C_4  and  C_5
REMARK    5  A    between atoms: C_5  and  C_6
REMARK    6  A    between atoms: C_6  and  C_7
REMARK    7  A    between atoms: C_7  and  C_8
REMARK    8  A    between atoms: C_8  and  C_9
REMARK    9  A    between atoms: C_9  and  C_10
REMARK   10  A    between atoms: C_10  and  N_11
REMARK   11  A    between atoms: C_16  and  N_17
REMARK                            x       y       z     vdW  Elec       q    Type
REMARK                         _______ _______ _______ _____ _____    ______ ____
ROOT
ATOM      1  C   UNL     1       1.637   4.758  18.590  0.00  0.00    +0.000 C 
ENDROOT
BRANCH   1   2
ATOM      2  C   UNL     1       1.990   3.575  17.689  0.00  0.00    +0.000 C 
BRANCH   2   3
ATOM      3  C   UNL     1       2.575   2.405  18.479  0.00  0.00    +0.000 C 
BRANCH   3   4
ATOM      4  C   UNL     1       3.171   2.836  19.820  0.00  0.00    +0.000 C 
BRANCH   4   5
ATOM      5  C   UNL     1       4.660   3.141  19.700  0.00  0.00    +0.000 C 
BRANCH   5   6
ATOM      6  O   UNL     1       4.872   4.551  19.489  0.00  0.00    +0.000 OA
BRANCH   6   8
ATOM      7  O   UNL     1       7.054   5.191  19.815  0.00  0.00    +0.000 OA
ATOM      8  C   UNL     1       6.117   4.913  19.083  0.00  0.00    +0.000 C 
BRANCH   8   9
ATOM      9  C   UNL     1       6.230   4.904  17.604  0.00  0.00    +0.000 A 
ATOM     10  C   UNL     1       5.361   4.203  16.766  0.00  0.00    +0.000 A 
ATOM     11  C   UNL     1       5.558   4.242  15.384  0.00  0.00    +0.000 A 
ATOM     12  C   UNL     1       6.613   4.991  14.884  0.00  0.00    +0.000 A 
ATOM     13  N   UNL     1       7.467   5.682  15.665  0.00  0.00    +0.000 NA
ATOM     14  C   UNL     1       7.260   5.622  17.005  0.00  0.00    +0.000 A 
ENDBRANCH   8   9
ENDBRANCH   6   8
ENDBRANCH   5   6
ENDBRANCH   4   5
ENDBRANCH   3   4
ENDBRANCH   2   3
ENDBRANCH   1   2
BRANCH   1  15
ATOM     15  C   UNL     1       2.296   6.040  18.105  0.00  0.00    +0.000 C 
BRANCH  15  16
ATOM     16  C   UNL     1       2.564   6.985  19.273  0.00  0.00    +0.000 C 
BRANCH  16  17
ATOM     17  N   UNL     1       1.861   8.243  19.093  0.00  0.00    +0.000 N 
ATOM     18  C   UNL     1       1.788   8.903  17.894  0.00  0.00    +0.000 A 
ATOM     19  C   UNL     1       1.001  10.015  18.073  0.00  0.00    +0.000 A 
ATOM     20  C   UNL     1       0.583  10.035  19.431  0.00  0.00    +0.000 A 
ATOM     21  C   UNL     1      -0.225  10.913  20.177  0.00  0.00    +0.000 A 
ATOM     22  C   UNL     1      -0.443  10.641  21.538  0.00  0.00    +0.000 A 
ATOM     23  C   UNL     1       0.119   9.518  22.153  0.00  0.00    +0.000 A 
ATOM     24  C   UNL     1       0.919   8.636  21.419  0.00  0.00    +0.000 A 
ATOM     25  C   UNL     1       1.139   8.916  20.060  0.00  0.00    +0.000 A 
BRANCH  22  26
ATOM     26  N   UNL     1      -1.281  11.560  22.325  0.00  0.00    +0.000 N 
ATOM     27  O   UNL     1      -1.505  12.683  21.854  0.00  0.00    +0.000 OA
ATOM     28  O   UNL     1      -1.715  11.148  23.410  0.00  0.00    +0.000 OA
ENDBRANCH  22  26
ENDBRANCH  16  17
ENDBRANCH  15  16
ENDBRANCH   1  15
TORSDOF 11
ENDMDL
MODEL 2
REMARK VINA RESULT:      -7.3      2.247      8.491
REMARK  Name = 
REMARK  11 active torsions:
REMARK  status: ('A' for Active; 'I' for Inactive)
REMARK    1  A    between atoms: C_2  and  O_3
REMARK    2  A    between atoms: C_2  and  C_23
REMARK    3  A    between atoms: O_3  and  C_4
REMARK    4  A    between atoms: C_4  and  C_5
REMARK    5  A    between atoms: C_5  and  C_6
REMARK    6  A    between atoms: C_6  and  C_7
REMARK    7  A    between atoms: C_7  and  C_8
REMARK    8  A    between atoms: C_8  and  C_9
REMARK    9  A    between atoms: C_9  and  C_10
REMARK   10  A    between atoms: C_10  and  N_11
REMARK   11  A    between atoms: C_16  and  N_17
REMARK                            x       y       z     vdW  Elec       q    Type
REMARK                         _______ _______ _______ _____ _____    ______ ____
ROOT
ATOM      1  C   UNL     1       0.926   4.255  20.389  0.00  0.00    +0.000 C 
ENDROOT
BRANCH   1   2
ATOM      2  C   UNL     1       1.666   5.506  20.861  0.00  0.00    +0.000 C 
BRANCH   2   3
ATOM      3  C   UNL     1       2.062   6.413  19.696  0.00  0.00    +0.000 C 
BRANCH   3   4
ATOM      4  C   UNL     1       1.995   7.899  20.054  0.00  0.00    +0.000 C 
BRANCH   4   5
ATOM      5  C   UNL     1       1.197   8.133  21.332  0.00  0.00    +0.000 C 
BRANCH   5   6
ATOM      6  O   UNL     1       0.051   8.966  21.067  0.00  0.00    +0.000 OA
BRANCH   6   8
ATOM      7  O   UNL     1       0.199  10.485  22.784  0.00  0.00    +0.000 OA
ATOM      8  C   UNL     1       0.087  10.216  21.598  0.00  0.00    +0.000 C 
BRANCH   8   9
ATOM      9  C   UNL     1       0.002  11.255  20.544  0.00  0.00    +0.000 A 
ATOM     10  C   UNL     1       1.093  11.675  19.781  0.00  0.00    +0.000 A 
ATOM     11  C   UNL     1       0.918  12.674  18.822  0.00  0.00    +0.000 A 
ATOM     12  C   UNL     1      -0.348  13.215  18.648  0.00  0.00    +0.000 A 
ATOM     13  N   UNL     1      -1.424  12.829  19.364  0.00  0.00    +0.000 NA
ATOM     14  C   UNL     1      -1.225  11.862  20.296  0.00  0.00    +0.000 A 
ENDBRANCH   8   9
ENDBRANCH   6   8
ENDBRANCH   5   6
ENDBRANCH   4   5
ENDBRANCH   3   4
ENDBRANCH   2   3
ENDBRANCH   1   2
BRANCH   1  15
ATOM     15  C   UNL     1       1.386   3.020  21.149  0.00  0.00    +0.000 C 
BRANCH  15  16
ATOM     16  C   UNL     1       2.879   2.784  20.944  0.00  0.00    +0.000 C 
BRANCH  16  17
ATOM     17  N   UNL     1       3.210   2.756  19.530  0.00  0.00    +0.000 N 
ATOM     18  C   UNL     1       2.543   1.987  18.613  0.00  0.00    +0.000 A 
ATOM     19  C   UNL     1       3.074   2.252  17.374  0.00  0.00    +0.000 A 
ATOM     20  C   UNL     1       4.106   3.215  17.544  0.00  0.00    +0.000 A 
ATOM     21  C   UNL     1       4.980   3.856  16.647  0.00  0.00    +0.000 A 
ATOM     22  C   UNL     1       5.911   4.778  17.153  0.00  0.00    +0.000 A 
ATOM     23  C   UNL     1       5.975   5.070  18.519  0.00  0.00    +0.000 A 
ATOM     24  C   UNL     1       5.107   4.442  19.418  0.00  0.00    +0.000 A 
ATOM     25  C   UNL     1       4.182   3.516  18.907  0.00  0.00    +0.000 A 
BRANCH  22  26
ATOM     26  N   UNL     1       6.834   5.447  16.221  0.00  0.00    +0.000 N 
ATOM     27  O   UNL     1       6.921   6.680  16.281  0.00  0.00    +0.000 OA
ATOM     28  O   UNL     1       7.470   4.730  15.436  0.00  0.00    +0.000 OA
ENDBRANCH  22  26
ENDBRANCH  16  17
ENDBRANCH  15  16
ENDBRANCH   1  15
TORSDOF 11
ENDMDL
MODEL 3
REMARK VINA RESULT:      -7.2      1.215      1.627
REMARK  Name = 
REMARK  11 active torsions:
REMARK  status: ('A' for Active; 'I' for Inactive)
REMARK    1  A    between atoms: C_2  and  O_3
REMARK    2  A    between atoms: C_2  and  C_23
REMARK    3  A    between atoms: O_3  and  C_4
REMARK    4  A    between atoms: C_4  and  C_5
REMARK    5  A    between atoms: C_5  and  C_6
REMARK    6  A    between atoms: C_6  and  C_7
REMARK    7  A    between atoms: C_7  and  C_8
REMARK    8  A    between atoms: C_8  and  C_9
REMARK    9  A    between atoms: C_9  and  C_10
REMARK   10  A    between atoms: C_10  and  N_11
REMARK   11  A    between atoms: C_16  and  N_17
REMARK                            x       y       z     vdW  Elec       q    Type
REMARK                         _______ _______ _______ _____ _____    ______ ____
ROOT
ATOM      1  C   UNL     1       1.270   3.856  20.954  0.00  0.00    +0.000 C 
ENDROOT
BRANCH   1   2
ATOM      2  C   UNL     1       1.756   2.497  20.451  0.00  0.00    +0.000 C 
BRANCH   2   3
ATOM      3  C   UNL     1       1.938   2.477  18.934  0.00  0.00    +0.000 C 
BRANCH   3   4
ATOM      4  C   UNL     1       3.261   1.840  18.506  0.00  0.00    +0.000 C 
BRANCH   4   5
ATOM      5  C   UNL     1       4.413   2.836  18.577  0.00  0.00    +0.000 C 
BRANCH   5   6
ATOM      6  O   UNL     1       4.115   4.011  17.799  0.00  0.00    +0.000 OA
BRANCH   6   8
ATOM      7  O   UNL     1       5.507   5.682  18.539  0.00  0.00    +0.000 OA
ATOM      8  C   UNL     1       5.122   4.914  17.671  0.00  0.00    +0.000 C 
BRANCH   8   9
ATOM      9  C   UNL     1       5.747   4.844  16.328  0.00  0.00    +0.000 A 
ATOM     10  C   UNL     1       5.144   4.236  15.225  0.00  0.00    +0.000 A 
ATOM     11  C   UNL     1       5.819   4.205  14.003  0.00  0.00    +0.000 A 
ATOM     12  C   UNL     1       7.072   4.794  13.920  0.00  0.00    +0.000 A 
ATOM     13  N   UNL     1       7.680   5.393  14.965  0.00  0.00    +0.000 NA
ATOM     14  C   UNL     1       7.007   5.402  16.144  0.00  0.00    +0.000 A 
ENDBRANCH   8   9
ENDBRANCH   6   8
ENDBRANCH   5   6
ENDBRANCH   4   5
ENDBRANCH   3   4
ENDBRANCH   2   3
ENDBRANCH   1   2
BRANCH   1  15
ATOM     15  C   UNL     1       1.323   4.905  19.853  0.00  0.00    +0.000 C 
BRANCH  15  16
ATOM     16  C   UNL     1       2.498   5.854  20.069  0.00  0.00    +0.000 C 
BRANCH  16  17
ATOM     17  N   UNL     1       2.195   7.179  19.555  0.00  0.00    +0.000 N 
ATOM     18  C   UNL     1       2.411   7.552  18.255  0.00  0.00    +0.000 A 
ATOM     19  C   UNL     1       1.956   8.840  18.105  0.00  0.00    +0.000 A 
ATOM     20  C   UNL     1       1.448   9.268  19.362  0.00  0.00    +0.000 A 
ATOM     21  C   UNL     1       0.860  10.468  19.805  0.00  0.00    +0.000 A 
ATOM     22  C   UNL     1       0.461  10.570  21.147  0.00  0.00    +0.000 A 
ATOM     23  C   UNL     1       0.632   9.505  22.038  0.00  0.00    +0.000 A 
ATOM     24  C   UNL     1       1.209   8.307  21.607  0.00  0.00    +0.000 A 
ATOM     25  C   UNL     1       1.612   8.213  20.264  0.00  0.00    +0.000 A 
BRANCH  22  26
ATOM     26  N   UNL     1      -0.147  11.824  21.618  0.00  0.00    +0.000 N 
ATOM     27  O   UNL     1      -0.964  11.757  22.546  0.00  0.00    +0.000 OA
ATOM     28  O   UNL     1       0.201  12.873  21.057  0.00  0.00    +0.000 OA
ENDBRANCH  22  26
ENDBRANCH  16  17
ENDBRANCH  15  16
ENDBRANCH   1  15
TORSDOF 11
ENDMDL
MODEL 4
REMARK VINA RESULT:      -7.1      1.446      2.157
REMARK  Name = 
REMARK  11 active torsions:
REMARK  status: ('A' for Active; 'I' for Inactive)
REMARK    1  A    between atoms: C_2  and  O_3
REMARK    2  A    between atoms: C_2  and  C_23
REMARK    3  A    between atoms: O_3  and  C_4
REMARK    4  A    between atoms: C_4  and  C_5
REMARK    5  A    between atoms: C_5  and  C_6
REMARK    6  A    between atoms: C_6  and  C_7
REMARK    7  A    between atoms: C_7  and  C_8
REMARK    8  A    between atoms: C_8  and  C_9
REMARK    9  A    between atoms: C_9  and  C_10
REMARK   10  A    between atoms: C_10  and  N_11
REMARK   11  A    between atoms: C_16  and  N_17
REMARK                            x       y       z     vdW  Elec       q    Type
REMARK                         _______ _______ _______ _____ _____    ______ ____
ROOT
ATOM      1  C   UNL     1       1.057   5.002  20.432  0.00  0.00    +0.000 C 
ENDROOT
BRANCH   1   2
ATOM      2  C   UNL     1       1.278   3.541  20.824  0.00  0.00    +0.000 C 
BRANCH   2   3
ATOM      3  C   UNL     1       2.489   2.933  20.117  0.00  0.00    +0.000 C 
BRANCH   3   4
ATOM      4  C   UNL     1       2.111   1.785  19.180  0.00  0.00    +0.000 C 
BRANCH   4   5
ATOM      5  C   UNL     1       2.632   2.020  17.766  0.00  0.00    +0.000 C 
BRANCH   5   6
ATOM      6  O   UNL     1       4.000   2.472  17.800  0.00  0.00    +0.000 OA
BRANCH   6   8
ATOM      7  O   UNL     1       3.570   4.148  16.289  0.00  0.00    +0.000 OA
ATOM      8  C   UNL     1       4.256   3.645  17.165  0.00  0.00    +0.000 C 
BRANCH   8   9
ATOM      9  C   UNL     1       5.486   4.288  17.688  0.00  0.00    +0.000 A 
ATOM     10  C   UNL     1       5.590   4.832  18.969  0.00  0.00    +0.000 A 
ATOM     11  C   UNL     1       6.786   5.433  19.366  0.00  0.00    +0.000 A 
ATOM     12  C   UNL     1       7.845   5.460  18.471  0.00  0.00    +0.000 A 
ATOM     13  N   UNL     1       7.780   4.940  17.229  0.00  0.00    +0.000 NA
ATOM     14  C   UNL     1       6.604   4.369  16.864  0.00  0.00    +0.000 A 
ENDBRANCH   8   9
ENDBRANCH   6   8
ENDBRANCH   5   6
ENDBRANCH   4   5
ENDBRANCH   3   4
ENDBRANCH   2   3
ENDBRANCH   1   2
BRANCH   1  15
ATOM     15  C   UNL     1       1.893   5.382  19.220  0.00  0.00    +0.000 C 
BRANCH  15  16
ATOM     16  C   UNL     1       2.791   6.574  19.536  0.00  0.00    +0.000 C 
BRANCH  16  17
ATOM     17  N   UNL     1       2.100   7.826  19.281  0.00  0.00    +0.000 N 
ATOM     18  C   UNL     1       1.961   8.370  18.031  0.00  0.00    +0.000 A 
ATOM     19  C   UNL     1       1.206   9.512  18.150  0.00  0.00    +0.000 A 
ATOM     20  C   UNL     1       0.878   9.671  19.524  0.00  0.00    +0.000 A 
ATOM     21  C   UNL     1       0.136  10.636  20.231  0.00  0.00    +0.000 A 
ATOM     22  C   UNL     1       0.002  10.500  21.623  0.00  0.00    +0.000 A 
ATOM     23  C   UNL     1       0.583   9.427  22.307  0.00  0.00    +0.000 A 
ATOM     24  C   UNL     1       1.318   8.460  21.613  0.00  0.00    +0.000 A 
ATOM     25  C   UNL     1       1.454   8.605  20.222  0.00  0.00    +0.000 A 
BRANCH  22  26
ATOM     26  N   UNL     1      -0.767  11.509  22.369  0.00  0.00    +0.000 N 
ATOM     27  O   UNL     1      -1.628  11.108  23.162  0.00  0.00    +0.000 OA
ATOM     28  O   UNL     1      -0.499  12.701  22.157  0.00  0.00    +0.000 OA
ENDBRANCH  22  26
ENDBRANCH  16  17
ENDBRANCH  15  16
ENDBRANCH   1  15
TORSDOF 11
ENDMDL
MODEL 5
REMARK VINA RESULT:      -7.0      2.312      8.032
REMARK  Name = 
REMARK  11 active torsions:
REMARK  status: ('A' for Active; 'I' for Inactive)
REMARK    1  A    between atoms: C_2  and  O_3
REMARK    2  A    between atoms: C_2  and  C_23
REMARK    3  A    between atoms: O_3  and  C_4
REMARK    4  A    between atoms: C_4  and  C_5
REMARK    5  A    between atoms: C_5  and  C_6
REMARK    6  A    between atoms: C_6  and  C_7
REMARK    7  A    between atoms: C_7  and  C_8
REMARK    8  A    between atoms: C_8  and  C_9
REMARK    9  A    between atoms: C_9  and  C_10
REMARK   10  A    between atoms: C_10  and  N_11
REMARK   11  A    between atoms: C_16  and  N_17
REMARK                            x       y       z     vdW  Elec       q    Type
REMARK                         _______ _______ _______ _____ _____    ______ ____
ROOT
ATOM      1  C   UNL     1       1.260   3.941  19.546  0.00  0.00    +0.000 C 
ENDROOT
BRANCH   1   2
ATOM      2  C   UNL     1       1.636   4.753  20.785  0.00  0.00    +0.000 C 
BRANCH   2   3
ATOM      3  C   UNL     1       1.728   6.249  20.486  0.00  0.00    +0.000 C 
BRANCH   3   4
ATOM      4  C   UNL     1       2.570   6.553  19.246  0.00  0.00    +0.000 C 
BRANCH   4   5
ATOM      5  C   UNL     1       2.300   7.956  18.714  0.00  0.00    +0.000 C 
BRANCH   5   6
ATOM      6  O   UNL     1       1.075   8.479  19.265  0.00  0.00    +0.000 OA
BRANCH   6   8
ATOM      7  O   UNL     1       1.492  10.686  18.780  0.00  0.00    +0.000 OA
ATOM      8  C   UNL     1       1.056   9.814  19.517  0.00  0.00    +0.000 C 
BRANCH   8   9
ATOM      9  C   UNL     1       0.401  10.113  20.813  0.00  0.00    +0.000 A 
ATOM     10  C   UNL     1      -0.016   9.131  21.714  0.00  0.00    +0.000 A 
ATOM     11  C   UNL     1      -0.640   9.510  22.904  0.00  0.00    +0.000 A 
ATOM     12  C   UNL     1      -0.819  10.862  23.159  0.00  0.00    +0.000 A 
ATOM     13  N   UNL     1      -0.425  11.835  22.313  0.00  0.00    +0.000 NA
ATOM     14  C   UNL     1       0.172  11.440  21.160  0.00  0.00    +0.000 A 
ENDBRANCH   8   9
ENDBRANCH   6   8
ENDBRANCH   5   6
ENDBRANCH   4   5
ENDBRANCH   3   4
ENDBRANCH   2   3
ENDBRANCH   1   2
BRANCH   1  15
ATOM     15  C   UNL     1       1.625   2.474  19.713  0.00  0.00    +0.000 C 
BRANCH  15  16
ATOM     16  C   UNL     1       3.133   2.277  19.600  0.00  0.00    +0.000 C 
BRANCH  16  17
ATOM     17  N   UNL     1       3.673   3.029  18.481  0.00  0.00    +0.000 N 
ATOM     18  C   UNL     1       3.202   2.918  17.199  0.00  0.00    +0.000 A 
ATOM     19  C   UNL     1       3.893   3.811  16.417  0.00  0.00    +0.000 A 
ATOM     20  C   UNL     1       4.822   4.488  17.253  0.00  0.00    +0.000 A 
ATOM     21  C   UNL     1       5.777   5.495  17.014  0.00  0.00    +0.000 A 
ATOM     22  C   UNL     1       6.559   5.953  18.086  0.00  0.00    +0.000 A 
ATOM     23  C   UNL     1       6.399   5.434  19.375  0.00  0.00    +0.000 A 
ATOM     24  C   UNL     1       5.450   4.438  19.625  0.00  0.00    +0.000 A 
ATOM     25  C   UNL     1       4.674   3.979  18.546  0.00  0.00    +0.000 A 
BRANCH  22  26
ATOM     26  N   UNL     1       7.564   7.000  17.841  0.00  0.00    +0.000 N 
ATOM     27  O   UNL     1       8.383   7.235  18.739  0.00  0.00    +0.000 OA
ATOM     28  O   UNL     1       7.528   7.579  16.746  0.00  0.00    +0.000 OA
ENDBRANCH  22  26
ENDBRANCH  16  17
ENDBRANCH  15  16
ENDBRANCH   1  15
TORSDOF 11
ENDMDL
MODEL 6
REMARK VINA RESULT:      -6.9      1.635      2.058
REMARK  Name = 
REMARK  11 active torsions:
REMARK  status: ('A' for Active; 'I' for Inactive)
REMARK    1  A    between atoms: C_2  and  O_3
REMARK    2  A    between atoms: C_2  and  C_23
REMARK    3  A    between atoms: O_3  and  C_4
REMARK    4  A    between atoms: C_4  and  C_5
REMARK    5  A    between atoms: C_5  and  C_6
REMARK    6  A    between atoms: C_6  and  C_7
REMARK    7  A    between atoms: C_7  and  C_8
REMARK    8  A    between atoms: C_8  and  C_9
REMARK    9  A    between atoms: C_9  and  C_10
REMARK   10  A    between atoms: C_10  and  N_11
REMARK   11  A    between atoms: C_16  and  N_17
REMARK                            x       y       z     vdW  Elec       q    Type
REMARK                         _______ _______ _______ _____ _____    ______ ____
ROOT
ATOM      1  C   UNL     1       2.165   5.015  20.619  0.00  0.00    +0.000 C 
ENDROOT
BRANCH   1   2
ATOM      2  C   UNL     1       1.022   4.229  19.979  0.00  0.00    +0.000 C 
BRANCH   2   3
ATOM      3  C   UNL     1       1.293   2.725  19.970  0.00  0.00    +0.000 C 
BRANCH   3   4
ATOM      4  C   UNL     1       1.501   2.170  18.560  0.00  0.00    +0.000 C 
BRANCH   4   5
ATOM      5  C   UNL     1       2.967   1.848  18.293  0.00  0.00    +0.000 C 
BRANCH   5   6
ATOM      6  O   UNL     1       3.667   3.022  17.838  0.00  0.00    +0.000 OA
BRANCH   6   8
ATOM      7  O   UNL     1       4.937   3.032  19.753  0.00  0.00    +0.000 OA
ATOM      8  C   UNL     1       4.643   3.490  18.659  0.00  0.00    +0.000 C 
BRANCH   8   9
ATOM      9  C   UNL     1       5.359   4.638  18.052  0.00  0.00    +0.000 A 
ATOM     10  C   UNL     1       4.732   5.824  17.665  0.00  0.00    +0.000 A 
ATOM     11  C   UNL     1       5.488   6.845  17.085  0.00  0.00    +0.000 A 
ATOM     12  C   UNL     1       6.852   6.650  16.922  0.00  0.00    +0.000 A 
ATOM     13  N   UNL     1       7.489   5.520  17.289  0.00  0.00    +0.000 NA
ATOM     14  C   UNL     1       6.730   4.540  17.843  0.00  0.00    +0.000 A 
ENDBRANCH   8   9
ENDBRANCH   6   8
ENDBRANCH   5   6
ENDBRANCH   4   5
ENDBRANCH   3   4
ENDBRANCH   2   3
ENDBRANCH   1   2
BRANCH   1  15
ATOM     15  C   UNL     1       2.109   6.486  20.234  0.00  0.00    +0.000 C 
BRANCH  15  16
ATOM     16  C   UNL     1       1.010   7.206  21.009  0.00  0.00    +0.000 C 
BRANCH  16  17
ATOM     17  N   UNL     1       0.918   8.598  20.606  0.00  0.00    +0.000 N 
ATOM     18  C   UNL     1       1.394   9.071  19.411  0.00  0.00    +0.000 A 
ATOM     19  C   UNL     1       1.085  10.408  19.334  0.00  0.00    +0.000 A 
ATOM     20  C   UNL     1       0.400  10.762  20.528  0.00  0.00    +0.000 A 
ATOM     21  C   UNL     1      -0.153  11.968  20.999  0.00  0.00    +0.000 A 
ATOM     22  C   UNL     1      -0.775  11.980  22.259  0.00  0.00    +0.000 A 
ATOM     23  C   UNL     1      -0.858  10.823  23.039  0.00  0.00    +0.000 A 
ATOM     24  C   UNL     1      -0.317   9.618  22.578  0.00  0.00    +0.000 A 
ATOM     25  C   UNL     1       0.309   9.613  21.320  0.00  0.00    +0.000 A 
BRANCH  22  26
ATOM     26  N   UNL     1      -1.348  13.240  22.760  0.00  0.00    +0.000 N 
ATOM     27  O   UNL     1      -2.229  13.783  22.082  0.00  0.00    +0.000 OA
ATOM     28  O   UNL     1      -0.913  13.676  23.835  0.00  0.00    +0.000 OA
ENDBRANCH  22  26
ENDBRANCH  16  17
ENDBRANCH  15  16
ENDBRANCH   1  15
TORSDOF 11
ENDMDL
MODEL 7
REMARK VINA RESULT:      -6.9      1.655      2.345
REMARK  Name = 
REMARK  11 active torsions:
REMARK  status: ('A' for Active; 'I' for Inactive)
REMARK    1  A    between atoms: C_2  and  O_3
REMARK    2  A    between atoms: C_2  and  C_23
REMARK    3  A    between atoms: O_3  and  C_4
REMARK    4  A    between atoms: C_4  and  C_5
REMARK    5  A    between atoms: C_5  and  C_6
REMARK    6  A    between atoms: C_6  and  C_7
REMARK    7  A    between atoms: C_7  and  C_8
REMARK    8  A    between atoms: C_8  and  C_9
REMARK    9  A    between atoms: C_9  and  C_10
REMARK   10  A    between atoms: C_10  and  N_11
REMARK   11  A    between atoms: C_16  and  N_17
REMARK                            x       y       z     vdW  Elec       q    Type
REMARK                         _______ _______ _______ _____ _____    ______ ____
ROOT
ATOM      1  C   UNL     1       1.340   4.596  19.270  0.00  0.00    +0.000 C 
ENDROOT
BRANCH   1   2
ATOM      2  C   UNL     1       1.367   3.209  19.913  0.00  0.00    +0.000 C 
BRANCH   2   3
ATOM      3  C   UNL     1       1.747   2.119  18.911  0.00  0.00    +0.000 C 
BRANCH   3   4
ATOM      4  C   UNL     1       3.250   2.066  18.637  0.00  0.00    +0.000 C 
BRANCH   4   5
ATOM      5  C   UNL     1       4.056   2.589  19.820  0.00  0.00    +0.000 C 
BRANCH   5   6
ATOM      6  O   UNL     1       5.363   3.021  19.391  0.00  0.00    +0.000 OA
BRANCH   6   8
ATOM      7  O   UNL     1       5.279   5.294  19.714  0.00  0.00    +0.000 OA
ATOM      8  C   UNL     1       5.465   4.318  19.003  0.00  0.00    +0.000 C 
BRANCH   8   9
ATOM      9  C   UNL     1       5.869   4.429  17.580  0.00  0.00    +0.000 A 
ATOM     10  C   UNL     1       4.967   4.398  16.515  0.00  0.00    +0.000 A 
ATOM     11  C   UNL     1       5.445   4.493  15.206  0.00  0.00    +0.000 A 
ATOM     12  C   UNL     1       6.811   4.625  15.006  0.00  0.00    +0.000 A 
ATOM     13  N   UNL     1       7.708   4.663  16.012  0.00  0.00    +0.000 NA
ATOM     14  C   UNL     1       7.219   4.561  17.274  0.00  0.00    +0.000 A 
ENDBRANCH   8   9
ENDBRANCH   6   8
ENDBRANCH   5   6
ENDBRANCH   4   5
ENDBRANCH   3   4
ENDBRANCH   2   3
ENDBRANCH   1   2
BRANCH   1  15
ATOM     15  C   UNL     1       2.107   5.609  20.106  0.00  0.00    +0.000 C 
BRANCH  15  16
ATOM     16  C   UNL     1       2.201   6.947  19.380  0.00  0.00    +0.000 C 
BRANCH  16  17
ATOM     17  N   UNL     1       1.510   7.988  20.121  0.00  0.00    +0.000 N 
ATOM     18  C   UNL     1       1.033   7.820  21.395  0.00  0.00    +0.000 A 
ATOM     19  C   UNL     1       0.498   9.017  21.806  0.00  0.00    +0.000 A 
ATOM     20  C   UNL     1       0.650   9.946  20.741  0.00  0.00    +0.000 A 
ATOM     21  C   UNL     1       0.302  11.302  20.590  0.00  0.00    +0.000 A 
ATOM     22  C   UNL     1       0.597  11.944  19.376  0.00  0.00    +0.000 A 
ATOM     23  C   UNL     1       1.230  11.265  18.331  0.00  0.00    +0.000 A 
ATOM     24  C   UNL     1       1.585   9.920  18.473  0.00  0.00    +0.000 A 
ATOM     25  C   UNL     1       1.283   9.281  19.687  0.00  0.00    +0.000 A 
BRANCH  22  26
ATOM     26  N   UNL     1       0.228  13.359  19.209  0.00  0.00    +0.000 N 
ATOM     27  O   UNL     1       0.664  14.170  20.037  0.00  0.00    +0.000 OA
ATOM     28  O   UNL     1      -0.493  13.651  18.244  0.00  0.00    +0.000 OA
ENDBRANCH  22  26
ENDBRANCH  16  17
ENDBRANCH  15  16
ENDBRANCH   1  15
TORSDOF 11
ENDMDL
MODEL 8
REMARK VINA RESULT:      -6.8      1.740      2.596
REMARK  Name = 
REMARK  11 active torsions:
REMARK  status: ('A' for Active; 'I' for Inactive)
REMARK    1  A    between atoms: C_2  and  O_3
REMARK    2  A    between atoms: C_2  and  C_23
REMARK    3  A    between atoms: O_3  and  C_4
REMARK    4  A    between atoms: C_4  and  C_5
REMARK    5  A    between atoms: C_5  and  C_6
REMARK    6  A    between atoms: C_6  and  C_7
REMARK    7  A    between atoms: C_7  and  C_8
REMARK    8  A    between atoms: C_8  and  C_9
REMARK    9  A    between atoms: C_9  and  C_10
REMARK   10  A    between atoms: C_10  and  N_11
REMARK   11  A    between atoms: C_16  and  N_17
REMARK                            x       y       z     vdW  Elec       q    Type
REMARK                         _______ _______ _______ _____ _____    ______ ____
ROOT
ATOM      1  C   UNL     1       1.955   5.708  19.843  0.00  0.00    +0.000 C 
ENDROOT
BRANCH   1   2
ATOM      2  C   UNL     1       2.061   5.094  21.239  0.00  0.00    +0.000 C 
BRANCH   2   3
ATOM      3  C   UNL     1       2.401   3.605  21.187  0.00  0.00    +0.000 C 
BRANCH   3   4
ATOM      4  C   UNL     1       1.253   2.755  20.640  0.00  0.00    +0.000 C 
BRANCH   4   5
ATOM      5  C   UNL     1       1.579   2.189  19.263  0.00  0.00    +0.000 C 
BRANCH   5   6
ATOM      6  O   UNL     1       2.947   2.473  18.910  0.00  0.00    +0.000 OA
BRANCH   6   8
ATOM      7  O   UNL     1       2.327   3.169  16.810  0.00  0.00    +0.000 OA
ATOM      8  C   UNL     1       3.138   3.101  17.721  0.00  0.00    +0.000 C 
BRANCH   8   9
ATOM      9  C   UNL     1       4.474   3.742  17.654  0.00  0.00    +0.000 A 
ATOM     10  C   UNL     1       5.138   4.263  18.766  0.00  0.00    +0.000 A 
ATOM     11  C   UNL     1       6.387   4.865  18.601  0.00  0.00    +0.000 A 
ATOM     12  C   UNL     1       6.937   4.917  17.328  0.00  0.00    +0.000 A 
ATOM     13  N   UNL     1       6.324   4.420  16.235  0.00  0.00    +0.000 NA
ATOM     14  C   UNL     1       5.107   3.848  16.420  0.00  0.00    +0.000 A 
ENDBRANCH   8   9
ENDBRANCH   6   8
ENDBRANCH   5   6
ENDBRANCH   4   5
ENDBRANCH   3   4
ENDBRANCH   2   3
ENDBRANCH   1   2
BRANCH   1  15
ATOM     15  C   UNL     1       2.240   7.202  19.872  0.00  0.00    +0.000 C 
BRANCH  15  16
ATOM     16  C   UNL     1       1.458   7.879  20.993  0.00  0.00    +0.000 C 
BRANCH  16  17
ATOM     17  N   UNL     1       0.841   9.108  20.526  0.00  0.00    +0.000 N 
ATOM     18  C   UNL     1       0.960   9.573  19.242  0.00  0.00    +0.000 A 
ATOM     19  C   UNL     1       0.205  10.716  19.135  0.00  0.00    +0.000 A 
ATOM     20  C   UNL     1      -0.392  10.958  20.402  0.00  0.00    +0.000 A 
ATOM     21  C   UNL     1      -1.255  11.961  20.883  0.00  0.00    +0.000 A 
ATOM     22  C   UNL     1      -1.667  11.912  22.225  0.00  0.00    +0.000 A 
ATOM     23  C   UNL     1      -1.243  10.888  23.078  0.00  0.00    +0.000 A 
ATOM     24  C   UNL     1      -0.390   9.883  22.608  0.00  0.00    +0.000 A 
ATOM     25  C   UNL     1       0.024   9.942  21.267  0.00  0.00    +0.000 A 
BRANCH  22  26
ATOM     26  N   UNL     1      -2.563  12.961  22.736  0.00  0.00    +0.000 N 
ATOM     27  O   UNL     1      -2.855  13.892  21.974  0.00  0.00    +0.000 OA
ATOM     28  O   UNL     1      -2.974  12.844  23.899  0.00  0.00    +0.000 OA
ENDBRANCH  22  26
ENDBRANCH  16  17
ENDBRANCH  15  16
ENDBRANCH   1  15
TORSDOF 11
ENDMDL
MODEL 9
REMARK VINA RESULT:      -6.8      1.644      2.125
REMARK  Name = 
REMARK  11 active torsions:
REMARK  status: ('A' for Active; 'I' for Inactive)
REMARK    1  A    between atoms: C_2  and  O_3
REMARK    2  A    between atoms: C_2  and  C_23
REMARK    3  A    between atoms: O_3  and  C_4
REMARK    4  A    between atoms: C_4  and  C_5
REMARK    5  A    between atoms: C_5  and  C_6
REMARK    6  A    between atoms: C_6  and  C_7
REMARK    7  A    between atoms: C_7  and  C_8
REMARK    8  A    between atoms: C_8  and  C_9
REMARK    9  A    between atoms: C_9  and  C_10
REMARK   10  A    between atoms: C_10  and  N_11
REMARK   11  A    between atoms: C_16  and  N_17
REMARK                            x       y       z     vdW  Elec       q    Type
REMARK                         _______ _______ _______ _____ _____    ______ ____
ROOT
ATOM      1  C   UNL     1       1.000   4.383  20.734  0.00  0.00    +0.000 C 
ENDROOT
BRANCH   1   2
ATOM      2  C   UNL     1       1.022   3.122  19.870  0.00  0.00    +0.000 C 
BRANCH   2   3
ATOM      3  C   UNL     1       2.385   2.432  19.895  0.00  0.00    +0.000 C 
BRANCH   3   4
ATOM      4  C   UNL     1       2.629   1.561  18.663  0.00  0.00    +0.000 C 
BRANCH   4   5
ATOM      5  C   UNL     1       3.669   2.179  17.734  0.00  0.00    +0.000 C 
BRANCH   5   6
ATOM      6  O   UNL     1       3.858   3.573  18.044  0.00  0.00    +0.000 OA
BRANCH   6   8
ATOM      7  O   UNL     1       5.796   4.084  19.166  0.00  0.00    +0.000 OA
ATOM      8  C   UNL     1       5.146   3.994  18.136  0.00  0.00    +0.000 C 
BRANCH   8   9
ATOM      9  C   UNL     1       5.709   4.317  16.802  0.00  0.00    +0.000 A 
ATOM     10  C   UNL     1       4.946   4.376  15.635  0.00  0.00    +0.000 A 
ATOM     11  C   UNL     1       5.569   4.671  14.420  0.00  0.00    +0.000 A 
ATOM     12  C   UNL     1       6.936   4.910  14.416  0.00  0.00    +0.000 A 
ATOM     13  N   UNL     1       7.701   4.865  15.526  0.00  0.00    +0.000 NA
ATOM     14  C   UNL     1       7.072   4.568  16.692  0.00  0.00    +0.000 A 
ENDBRANCH   8   9
ENDBRANCH   6   8
ENDBRANCH   5   6
ENDBRANCH   4   5
ENDBRANCH   3   4
ENDBRANCH   2   3
ENDBRANCH   1   2
BRANCH   1  15
ATOM     15  C   UNL     1       2.072   5.371  20.300  0.00  0.00    +0.000 C 
BRANCH  15  16
ATOM     16  C   UNL     1       1.784   6.760  20.859  0.00  0.00    +0.000 C 
BRANCH  16  17
ATOM     17  N   UNL     1       1.830   7.762  19.808  0.00  0.00    +0.000 N 
ATOM     18  C   UNL     1       2.429   7.554  18.592  0.00  0.00    +0.000 A 
ATOM     19  C   UNL     1       2.230   8.678  17.827  0.00  0.00    +0.000 A 
ATOM     20  C   UNL     1       1.488   9.605  18.607  0.00  0.00    +0.000 A 
ATOM     21  C   UNL     1       0.996  10.900  18.354  0.00  0.00    +0.000 A 
ATOM     22  C   UNL     1       0.285  11.563  19.367  0.00  0.00    +0.000 A 
ATOM     23  C   UNL     1       0.055  10.960  20.607  0.00  0.00    +0.000 A 
ATOM     24  C   UNL     1       0.534   9.672  20.867  0.00  0.00    +0.000 A 
ATOM     25  C   UNL     1       1.250   9.015  19.852  0.00  0.00    +0.000 A 
BRANCH  22  26
ATOM     26  N   UNL     1      -0.225  12.920  19.110  0.00  0.00    +0.000 N 
ATOM     27  O   UNL     1      -0.208  13.729  20.047  0.00  0.00    +0.000 OA
ATOM     28  O   UNL     1      -0.637  13.168  17.968  0.00  0.00    +0.000 OA
ENDBRANCH  22  26
ENDBRANCH  16  17
ENDBRANCH  15  16
ENDBRANCH   1  15
TORSDOF 11
ENDMDL
