MODEL 1
REMARK VINA RESULT:      -6.6      0.000      0.000
REMARK  Name = 
REMARK  7 active torsions:
REMARK  status: ('A' for Active; 'I' for Inactive)
REMARK    1  A    between atoms: C_1  and  O_2
REMARK    2  A    between atoms: O_2  and  C_3
REMARK    3  A    between atoms: N_10  and  C_11
REMARK    4  A    between atoms: N_16  and  C_17
REMARK    5  A    between atoms: N_16  and  C_18
REMARK    6  A    between atoms: C_22  and  O_23
REMARK    7  A    between atoms: O_23  and  C_24
REMARK                            x       y       z     vdW  Elec       q    Type
REMARK                         _______ _______ _______ _____ _____    ______ ____
ROOT
ATOM      1  C   UNL     1       0.664  10.678  20.781  0.00  0.00    +0.000 A 
ATOM      2  C   UNL     1      -0.451  11.513  20.810  0.00  0.00    +0.000 A 
ATOM      3  C   UNL     1      -1.458  11.498  19.826  0.00  0.00    +0.000 A 
ATOM      4  C   UNL     1      -2.666  12.192  19.942  0.00  0.00    +0.000 A 
ATOM      5  N   UNL     1      -2.930  12.902  21.107  0.00  0.00    +0.000 N 
ATOM      6  C   UNL     1      -3.761  14.106  21.074  0.00  0.00    +0.000 C 
ATOM      7  C   UNL     1      -3.294  15.031  22.242  0.00  0.00    +0.000 C 
ATOM      8  N   UNL     1      -3.276  14.368  23.577  0.00  0.00    +0.000 NA
ATOM      9  C   UNL     1      -2.683  15.246  24.586  0.00  0.00    +0.000 C 
ATOM     10  C   UNL     1      -2.521  13.097  23.501  0.00  0.00    +0.000 C 
ATOM     11  C   UNL     1      -3.061  12.174  22.380  0.00  0.00    +0.000 C 
ATOM     12  N   UNL     1      -3.548  12.214  18.927  0.00  0.00    +0.000 NA
ATOM     13  C   UNL     1      -3.273  11.513  17.810  0.00  0.00    +0.000 A 
ATOM     14  N   UNL     1      -4.151  11.597  16.742  0.00  0.00    +0.000 N 
ATOM     15  C   UNL     1      -3.946  10.757  15.575  0.00  0.00    +0.000 C 
ATOM     16  C   UNL     1      -5.500  12.085  16.966  0.00  0.00    +0.000 C 
ATOM     17  N   UNL     1      -2.144  10.788  17.670  0.00  0.00    +0.000 NA
ATOM     18  C   UNL     1      -1.243  10.779  18.664  0.00  0.00    +0.000 A 
ATOM     19  C   UNL     1      -0.034  10.062  18.562  0.00  0.00    +0.000 A 
ATOM     20  C   UNL     1       0.915   9.973  19.611  0.00  0.00    +0.000 A 
ENDROOT
BRANCH   1  22
ATOM     21  C   UNL     1       1.285   9.413  22.667  0.00  0.00    +0.000 C 
ATOM     22  O   UNL     1       1.477  10.596  21.879  0.00  0.00    +0.000 OA
ENDBRANCH   1  22
BRANCH  20  23
ATOM     23  O   UNL     1       1.996   9.210  19.282  0.00  0.00    +0.000 OA
BRANCH  23  24
ATOM     24  C   UNL     1       1.958   7.821  18.963  0.00  0.00    +0.000 C 
ATOM     25  C   UNL     1       2.845   7.368  17.808  0.00  0.00    +0.000 C 
ATOM     26  C   UNL     1       3.329   5.967  18.157  0.00  0.00    +0.000 C 
ATOM     27  C   UNL     1       2.930   5.670  19.599  0.00  0.00    +0.000 C 
ATOM     28  C   UNL     1       2.117   6.845  20.121  0.00  0.00    +0.000 C 
ENDBRANCH  23  24
ENDBRANCH  20  23
TORSDOF 3
ENDMDL
MODEL 2
REMARK VINA RESULT:      -6.3      0.683      1.058
REMARK  Name = 
REMARK  7 active torsions:
REMARK  status: ('A' for Active; 'I' for Inactive)
REMARK    1  A    between atoms: C_1  and  O_2
REMARK    2  A    between atoms: O_2  and  C_3
REMARK    3  A    between atoms: N_10  and  C_11
REMARK    4  A    between atoms: N_16  and  C_17
REMARK    5  A    between atoms: N_16  and  C_18
REMARK    6  A    between atoms: C_22  and  O_23
REMARK    7  A    between atoms: O_23  and  C_24
REMARK                            x       y       z     vdW  Elec       q    Type
REMARK                         _______ _______ _______ _____ _____    ______ ____
ROOT
ATOM      1  C   UNL     1       0.848  10.093  20.501  0.00  0.00    +0.000 A 
ATOM      2  C   UNL     1      -0.172  11.040  20.555  0.00  0.00    +0.000 A 
ATOM      3  C   UNL     1      -1.207  11.121  19.603  0.00  0.00    +0.000 A 
ATOM      4  C   UNL     1      -2.331  11.938  19.748  0.00  0.00    +0.000 A 
ATOM      5  N   UNL     1      -2.482  12.683  20.912  0.00  0.00    +0.000 N 
ATOM      6  C   UNL     1      -3.184  13.966  20.890  0.00  0.00    +0.000 C 
ATOM      7  C   UNL     1      -2.586  14.848  22.032  0.00  0.00    +0.000 C 
ATOM      8  N   UNL     1      -2.595  14.199  23.373  0.00  0.00    +0.000 NA
ATOM      9  C   UNL     1      -1.880  15.019  24.352  0.00  0.00    +0.000 C 
ATOM     10  C   UNL     1      -1.979  12.855  23.290  0.00  0.00    +0.000 C 
ATOM     11  C   UNL     1      -2.647  11.984  22.198  0.00  0.00    +0.000 C 
ATOM     12  N   UNL     1      -3.238  12.043  18.760  0.00  0.00    +0.000 NA
ATOM     13  C   UNL     1      -3.074  11.308  17.644  0.00  0.00    +0.000 A 
ATOM     14  N   UNL     1      -3.973  11.473  16.603  0.00  0.00    +0.000 N 
ATOM     15  C   UNL     1      -3.894  10.606  15.441  0.00  0.00    +0.000 C 
ATOM     16  C   UNL     1      -5.255  12.102  16.863  0.00  0.00    +0.000 C 
ATOM     17  N   UNL     1      -2.032  10.467  17.479  0.00  0.00    +0.000 NA
ATOM     18  C   UNL     1      -1.105  10.373  18.444  0.00  0.00    +0.000 A 
ATOM     19  C   UNL     1       0.019   9.533  18.314  0.00  0.00    +0.000 A 
ATOM     20  C   UNL     1       0.987   9.355  19.333  0.00  0.00    +0.000 A 
ENDROOT
BRANCH   1  22
ATOM     21  C   UNL     1       1.040   9.427  22.752  0.00  0.00    +0.000 C 
ATOM     22  O   UNL     1       1.683   9.936  21.575  0.00  0.00    +0.000 OA
ENDBRANCH   1  22
BRANCH  20  23
ATOM     23  O   UNL     1       1.971   8.480  18.980  0.00  0.00    +0.000 OA
BRANCH  23  24
ATOM     24  C   UNL     1       2.363   7.333  19.731  0.00  0.00    +0.000 C 
ATOM     25  C   UNL     1       1.265   6.643  20.534  0.00  0.00    +0.000 C 
ATOM     26  C   UNL     1       1.585   5.154  20.512  0.00  0.00    +0.000 C 
ATOM     27  C   UNL     1       2.723   4.924  19.524  0.00  0.00    +0.000 C 
ATOM     28  C   UNL     1       3.179   6.277  18.997  0.00  0.00    +0.000 C 
ENDBRANCH  23  24
ENDBRANCH  20  23
TORSDOF 3
ENDMDL
MODEL 3
REMARK VINA RESULT:      -6.3      1.618      2.226
REMARK  Name = 
REMARK  7 active torsions:
REMARK  status: ('A' for Active; 'I' for Inactive)
REMARK    1  A    between atoms: C_1  and  O_2
REMARK    2  A    between atoms: O_2  and  C_3
REMARK    3  A    between atoms: N_10  and  C_11
REMARK    4  A    between atoms: N_16  and  C_17
REMARK    5  A    between atoms: N_16  and  C_18
REMARK    6  A    between atoms: C_22  and  O_23
REMARK    7  A    between atoms: O_23  and  C_24
REMARK                            x       y       z     vdW  Elec       q    Type
REMARK                         _______ _______ _______ _____ _____    ______ ____
ROOT
ATOM      1  C   UNL     1       0.306  12.317  20.607  0.00  0.00    +0.000 A 
ATOM      2  C   UNL     1      -0.785  13.051  21.065  0.00  0.00    +0.000 A 
ATOM      3  C   UNL     1      -2.103  12.847  20.615  0.00  0.00    +0.000 A 
ATOM      4  C   UNL     1      -3.224  13.443  21.200  0.00  0.00    +0.000 A 
ATOM      5  N   UNL     1      -3.055  14.246  22.322  0.00  0.00    +0.000 N 
ATOM      6  C   UNL     1      -3.963  15.364  22.581  0.00  0.00    +0.000 C 
ATOM      7  C   UNL     1      -3.163  16.443  23.378  0.00  0.00    +0.000 C 
ATOM      8  N   UNL     1      -2.502  15.928  24.610  0.00  0.00    +0.000 NA
ATOM      9  C   UNL     1      -1.650  16.955  25.211  0.00  0.00    +0.000 C 
ATOM     10  C   UNL     1      -1.700  14.726  24.290  0.00  0.00    +0.000 C 
ATOM     11  C   UNL     1      -2.546  13.648  23.567  0.00  0.00    +0.000 C 
ATOM     12  N   UNL     1      -4.447  13.283  20.666  0.00  0.00    +0.000 NA
ATOM     13  C   UNL     1      -4.587  12.495  19.582  0.00  0.00    +0.000 A 
ATOM     14  N   UNL     1      -5.837  12.391  18.995  0.00  0.00    +0.000 N 
ATOM     15  C   UNL     1      -6.043  11.454  17.905  0.00  0.00    +0.000 C 
ATOM     16  C   UNL     1      -7.013  12.783  19.751  0.00  0.00    +0.000 C 
ATOM     17  N   UNL     1      -3.543  11.858  19.012  0.00  0.00    +0.000 NA
ATOM     18  C   UNL     1      -2.313  12.031  19.518  0.00  0.00    +0.000 A 
ATOM     19  C   UNL     1      -1.182  11.413  18.946  0.00  0.00    +0.000 A 
ATOM     20  C   UNL     1       0.124  11.517  19.486  0.00  0.00    +0.000 A 
ENDROOT
BRANCH   1  22
ATOM     21  C   UNL     1       2.326  13.512  20.803  0.00  0.00    +0.000 C 
ATOM     22  O   UNL     1       1.510  12.420  21.250  0.00  0.00    +0.000 OA
ENDBRANCH   1  22
BRANCH  20  23
ATOM     23  O   UNL     1       1.049  10.818  18.768  0.00  0.00    +0.000 OA
BRANCH  23  24
ATOM     24  C   UNL     1       1.135   9.397  18.695  0.00  0.00    +0.000 C 
ATOM     25  C   UNL     1       2.133   8.831  17.690  0.00  0.00    +0.000 C 
ATOM     26  C   UNL     1       2.690   7.555  18.307  0.00  0.00    +0.000 C 
ATOM     27  C   UNL     1       2.211   7.474  19.752  0.00  0.00    +0.000 C 
ATOM     28  C   UNL     1       1.279   8.648  20.013  0.00  0.00    +0.000 C 
ENDBRANCH  23  24
ENDBRANCH  20  23
TORSDOF 3
ENDMDL
MODEL 4
REMARK VINA RESULT:      -6.0      3.101      3.951
REMARK  Name = 
REMARK  7 active torsions:
REMARK  status: ('A' for Active; 'I' for Inactive)
REMARK    1  A    between atoms: C_1  and  O_2
REMARK    2  A    between atoms: O_2  and  C_3
REMARK    3  A    between atoms: N_10  and  C_11
REMARK    4  A    between atoms: N_16  and  C_17
REMARK    5  A    between atoms: N_16  and  C_18
REMARK    6  A    between atoms: C_22  and  O_23
REMARK    7  A    between atoms: O_23  and  C_24
REMARK                            x       y       z     vdW  Elec       q    Type
REMARK                         _______ _______ _______ _____ _____    ______ ____
ROOT
ATOM      1  C   UNL     1       0.098  10.235  19.824  0.00  0.00    +0.000 A 
ATOM      2  C   UNL     1      -0.029  11.508  20.375  0.00  0.00    +0.000 A 
ATOM      3  C   UNL     1       0.582  12.654  19.830  0.00  0.00    +0.000 A 
ATOM      4  C   UNL     1       0.312  13.956  20.260  0.00  0.00    +0.000 A 
ATOM      5  N   UNL     1      -0.649  14.158  21.245  0.00  0.00    +0.000 N 
ATOM      6  C   UNL     1      -0.539  15.284  22.173  0.00  0.00    +0.000 C 
ATOM      7  C   UNL     1      -1.235  14.862  23.506  0.00  0.00    +0.000 C 
ATOM      8  N   UNL     1      -2.633  14.376  23.338  0.00  0.00    +0.000 NA
ATOM      9  C   UNL     1      -3.158  13.857  24.602  0.00  0.00    +0.000 C 
ATOM     10  C   UNL     1      -2.683  13.325  22.297  0.00  0.00    +0.000 C 
ATOM     11  C   UNL     1      -2.051  13.805  20.966  0.00  0.00    +0.000 C 
ATOM     12  N   UNL     1       0.998  15.002  19.765  0.00  0.00    +0.000 NA
ATOM     13  C   UNL     1       1.919  14.782  18.808  0.00  0.00    +0.000 A 
ATOM     14  N   UNL     1       2.671  15.853  18.353  0.00  0.00    +0.000 N 
ATOM     15  C   UNL     1       3.581  15.669  17.237  0.00  0.00    +0.000 C 
ATOM     16  C   UNL     1       2.205  17.205  18.601  0.00  0.00    +0.000 C 
ATOM     17  N   UNL     1       2.180  13.550  18.325  0.00  0.00    +0.000 NA
ATOM     18  C   UNL     1       1.523  12.494  18.829  0.00  0.00    +0.000 A 
ATOM     19  C   UNL     1       1.775  11.181  18.382  0.00  0.00    +0.000 A 
ATOM     20  C   UNL     1       1.060  10.047  18.841  0.00  0.00    +0.000 A 
ENDROOT
BRANCH   1  22
ATOM     21  C   UNL     1      -0.398   8.780  21.608  0.00  0.00    +0.000 C 
ATOM     22  O   UNL     1      -0.701   9.219  20.277  0.00  0.00    +0.000 OA
ENDBRANCH   1  22
BRANCH  20  23
ATOM     23  O   UNL     1       1.472   8.889  18.250  0.00  0.00    +0.000 OA
BRANCH  23  24
ATOM     24  C   UNL     1       2.547   8.070  18.702  0.00  0.00    +0.000 C 
ATOM     25  C   UNL     1       2.208   7.041  19.776  0.00  0.00    +0.000 C 
ATOM     26  C   UNL     1       3.086   5.826  19.503  0.00  0.00    +0.000 C 
ATOM     27  C   UNL     1       3.775   6.027  18.158  0.00  0.00    +0.000 C 
ATOM     28  C   UNL     1       3.403   7.405  17.632  0.00  0.00    +0.000 C 
ENDBRANCH  23  24
ENDBRANCH  20  23
TORSDOF 3
ENDMDL
MODEL 5
REMARK VINA RESULT:      -5.9      3.326      7.383
REMARK  Name = 
REMARK  7 active torsions:
REMARK  status: ('A' for Active; 'I' for Inactive)
REMARK    1  A    between atoms: C_1  and  O_2
REMARK    2  A    between atoms: O_2  and  C_3
REMARK    3  A    between atoms: N_10  and  C_11
REMARK    4  A    between atoms: N_16  and  C_17
REMARK    5  A    between atoms: N_16  and  C_18
REMARK    6  A    between atoms: C_22  and  O_23
REMARK    7  A    between atoms: O_23  and  C_24
REMARK                            x       y       z     vdW  Elec       q    Type
REMARK                         _______ _______ _______ _____ _____    ______ ____
ROOT
ATOM      1  C   UNL     1      -4.166  11.707  18.874  0.00  0.00    +0.000 A 
ATOM      2  C   UNL     1      -2.948  12.173  19.365  0.00  0.00    +0.000 A 
ATOM      3  C   UNL     1      -2.814  12.860  20.587  0.00  0.00    +0.000 A 
ATOM      4  C   UNL     1      -1.583  13.163  21.175  0.00  0.00    +0.000 A 
ATOM      5  N   UNL     1      -0.414  12.726  20.563  0.00  0.00    +0.000 N 
ATOM      6  C   UNL     1       0.826  13.493  20.694  0.00  0.00    +0.000 C 
ATOM      7  C   UNL     1       1.677  13.229  19.411  0.00  0.00    +0.000 C 
ATOM      8  N   UNL     1       1.908  11.787  19.117  0.00  0.00    +0.000 NA
ATOM      9  C   UNL     1       2.575  11.620  17.824  0.00  0.00    +0.000 C 
ATOM     10  C   UNL     1       0.621  11.056  19.123  0.00  0.00    +0.000 C 
ATOM     11  C   UNL     1      -0.161  11.281  20.441  0.00  0.00    +0.000 C 
ATOM     12  N   UNL     1      -1.519  13.905  22.295  0.00  0.00    +0.000 NA
ATOM     13  C   UNL     1      -2.666  14.311  22.874  0.00  0.00    +0.000 A 
ATOM     14  N   UNL     1      -2.592  15.133  23.986  0.00  0.00    +0.000 N 
ATOM     15  C   UNL     1      -3.806  15.484  24.703  0.00  0.00    +0.000 C 
ATOM     16  C   UNL     1      -1.348  15.213  24.730  0.00  0.00    +0.000 C 
ATOM     17  N   UNL     1      -3.878  14.001  22.371  0.00  0.00    +0.000 NA
ATOM     18  C   UNL     1      -3.957  13.285  21.239  0.00  0.00    +0.000 A 
ATOM     19  C   UNL     1      -5.196  12.957  20.654  0.00  0.00    +0.000 A 
ATOM     20  C   UNL     1      -5.326  12.150  19.496  0.00  0.00    +0.000 A 
ENDROOT
BRANCH   1  22
ATOM     21  C   UNL     1      -3.915  11.497  16.542  0.00  0.00    +0.000 C 
ATOM     22  O   UNL     1      -4.183  10.860  17.799  0.00  0.00    +0.000 OA
ENDBRANCH   1  22
BRANCH  20  23
ATOM     23  O   UNL     1      -6.626  11.957  19.130  0.00  0.00    +0.000 OA
BRANCH  23  24
ATOM     24  C   UNL     1      -7.450  10.875  19.556  0.00  0.00    +0.000 C 
ATOM     25  C   UNL     1      -6.957   9.473  19.212  0.00  0.00    +0.000 C 
ATOM     26  C   UNL     1      -7.381   8.571  20.363  0.00  0.00    +0.000 C 
ATOM     27  C   UNL     1      -7.917   9.451  21.487  0.00  0.00    +0.000 C 
ATOM     28  C   UNL     1      -7.916  10.895  21.006  0.00  0.00    +0.000 C 
ENDBRANCH  23  24
ENDBRANCH  20  23
TORSDOF 3
ENDMDL
MODEL 6
REMARK VINA RESULT:      -5.8      3.102      8.052
REMARK  Name = 
REMARK  7 active torsions:
REMARK  status: ('A' for Active; 'I' for Inactive)
REMARK    1  A    between atoms: C_1  and  O_2
REMARK    2  A    between atoms: O_2  and  C_3
REMARK    3  A    between atoms: N_10  and  C_11
REMARK    4  A    between atoms: N_16  and  C_17
REMARK    5  A    between atoms: N_16  and  C_18
REMARK    6  A    between atoms: C_22  and  O_23
REMARK    7  A    between atoms: O_23  and  C_24
REMARK                            x       y       z     vdW  Elec       q    Type
REMARK                         _______ _______ _______ _____ _____    ______ ____
ROOT
ATOM      1  C   UNL     1      -4.611  11.690  18.833  0.00  0.00    +0.000 A 
ATOM      2  C   UNL     1      -3.328  11.940  19.316  0.00  0.00    +0.000 A 
ATOM      3  C   UNL     1      -3.069  12.673  20.490  0.00  0.00    +0.000 A 
ATOM      4  C   UNL     1      -1.807  12.769  21.082  0.00  0.00    +0.000 A 
ATOM      5  N   UNL     1      -0.744  12.066  20.526  0.00  0.00    +0.000 N 
ATOM      6  C   UNL     1       0.623  12.580  20.630  0.00  0.00    +0.000 C 
ATOM      7  C   UNL     1       1.414  12.061  19.387  0.00  0.00    +0.000 C 
ATOM      8  N   UNL     1       1.355  10.584  19.199  0.00  0.00    +0.000 NA
ATOM      9  C   UNL     1       1.985  10.196  17.935  0.00  0.00    +0.000 C 
ATOM     10  C   UNL     1      -0.052  10.125  19.228  0.00  0.00    +0.000 C 
ATOM     11  C   UNL     1      -0.782  10.595  20.510  0.00  0.00    +0.000 C 
ATOM     12  N   UNL     1      -1.605  13.562  22.149  0.00  0.00    +0.000 NA
ATOM     13  C   UNL     1      -2.652  14.228  22.673  0.00  0.00    +0.000 A 
ATOM     14  N   UNL     1      -2.424  15.097  23.727  0.00  0.00    +0.000 N 
ATOM     15  C   UNL     1      -3.548  15.732  24.392  0.00  0.00    +0.000 C 
ATOM     16  C   UNL     1      -1.194  14.983  24.490  0.00  0.00    +0.000 C 
ATOM     17  N   UNL     1      -3.898  14.129  22.168  0.00  0.00    +0.000 NA
ATOM     18  C   UNL     1      -4.110  13.362  21.087  0.00  0.00    +0.000 A 
ATOM     19  C   UNL     1      -5.385  13.244  20.499  0.00  0.00    +0.000 A 
ATOM     20  C   UNL     1      -5.665  12.397  19.398  0.00  0.00    +0.000 A 
ENDROOT
BRANCH   1  22
ATOM     21  C   UNL     1      -4.185  11.171  16.576  0.00  0.00    +0.000 C 
ATOM     22  O   UNL     1      -4.789  10.788  17.820  0.00  0.00    +0.000 OA
ENDBRANCH   1  22
BRANCH  20  23
ATOM     23  O   UNL     1      -6.974  12.439  19.019  0.00  0.00    +0.000 OA
BRANCH  23  24
ATOM     24  C   UNL     1      -7.551  13.414  18.154  0.00  0.00    +0.000 C 
ATOM     25  C   UNL     1      -7.908  14.754  18.789  0.00  0.00    +0.000 C 
ATOM     26  C   UNL     1      -7.666  15.816  17.724  0.00  0.00    +0.000 C 
ATOM     27  C   UNL     1      -6.958  15.157  16.546  0.00  0.00    +0.000 C 
ATOM     28  C   UNL     1      -6.840  13.667  16.831  0.00  0.00    +0.000 C 
ENDBRANCH  23  24
ENDBRANCH  20  23
TORSDOF 3
ENDMDL
MODEL 7
REMARK VINA RESULT:      -5.8      4.238      7.697
REMARK  Name = 
REMARK  7 active torsions:
REMARK  status: ('A' for Active; 'I' for Inactive)
REMARK    1  A    between atoms: C_1  and  O_2
REMARK    2  A    between atoms: O_2  and  C_3
REMARK    3  A    between atoms: N_10  and  C_11
REMARK    4  A    between atoms: N_16  and  C_17
REMARK    5  A    between atoms: N_16  and  C_18
REMARK    6  A    between atoms: C_22  and  O_23
REMARK    7  A    between atoms: O_23  and  C_24
REMARK                            x       y       z     vdW  Elec       q    Type
REMARK                         _______ _______ _______ _____ _____    ______ ____
ROOT
ATOM      1  C   UNL     1       2.134  14.596  18.863  0.00  0.00    +0.000 A 
ATOM      2  C   UNL     1       1.684  13.382  19.378  0.00  0.00    +0.000 A 
ATOM      3  C   UNL     1       0.660  13.278  20.339  0.00  0.00    +0.000 A 
ATOM      4  C   UNL     1       0.075  12.068  20.721  0.00  0.00    +0.000 A 
ATOM      5  N   UNL     1       0.476  10.894  20.093  0.00  0.00    +0.000 N 
ATOM      6  C   UNL     1       0.446   9.619  20.810  0.00  0.00    +0.000 C 
ATOM      7  C   UNL     1       1.560   8.711  20.199  0.00  0.00    +0.000 C 
ATOM      8  N   UNL     1       1.477   8.554  18.720  0.00  0.00    +0.000 NA
ATOM      9  C   UNL     1       2.638   7.824  18.209  0.00  0.00    +0.000 C 
ATOM     10  C   UNL     1       1.387   9.882  18.073  0.00  0.00    +0.000 C 
ATOM     11  C   UNL     1       0.224  10.725  18.653  0.00  0.00    +0.000 C 
ATOM     12  N   UNL     1      -0.833  12.024  21.713  0.00  0.00    +0.000 NA
ATOM     13  C   UNL     1      -1.210  13.175  22.302  0.00  0.00    +0.000 A 
ATOM     14  N   UNL     1      -2.091  13.116  23.369  0.00  0.00    +0.000 N 
ATOM     15  C   UNL     1      -2.610  14.346  23.941  0.00  0.00    +0.000 C 
ATOM     16  C   UNL     1      -2.882  11.916  23.573  0.00  0.00    +0.000 C 
ATOM     17  N   UNL     1      -0.711  14.373  21.934  0.00  0.00    +0.000 NA
ATOM     18  C   UNL     1       0.215  14.429  20.965  0.00  0.00    +0.000 A 
ATOM     19  C   UNL     1       0.792  15.649  20.559  0.00  0.00    +0.000 A 
ATOM     20  C   UNL     1       1.725  15.761  19.498  0.00  0.00    +0.000 A 
ENDROOT
BRANCH   1  22
ATOM     21  C   UNL     1       4.363  14.678  18.107  0.00  0.00    +0.000 C 
ATOM     22  O   UNL     1       2.968  14.602  17.778  0.00  0.00    +0.000 OA
ENDBRANCH   1  22
BRANCH  20  23
ATOM     23  O   UNL     1       2.126  17.046  19.281  0.00  0.00    +0.000 OA
BRANCH  23  24
ATOM     24  C   UNL     1       1.435  18.002  18.480  0.00  0.00    +0.000 C 
ATOM     25  C   UNL     1       1.703  17.947  16.980  0.00  0.00    +0.000 C 
ATOM     26  C   UNL     1       0.398  18.328  16.293  0.00  0.00    +0.000 C 
ATOM     27  C   UNL     1      -0.698  18.387  17.351  0.00  0.00    +0.000 C 
ATOM     28  C   UNL     1      -0.064  18.136  18.711  0.00  0.00    +0.000 C 
ENDBRANCH  23  24
ENDBRANCH  20  23
TORSDOF 3
ENDMDL
MODEL 8
REMARK VINA RESULT:      -5.8      8.195      9.029
REMARK  Name = 
REMARK  7 active torsions:
REMARK  status: ('A' for Active; 'I' for Inactive)
REMARK    1  A    between atoms: C_1  and  O_2
REMARK    2  A    between atoms: O_2  and  C_3
REMARK    3  A    between atoms: N_10  and  C_11
REMARK    4  A    between atoms: N_16  and  C_17
REMARK    5  A    between atoms: N_16  and  C_18
REMARK    6  A    between atoms: C_22  and  O_23
REMARK    7  A    between atoms: O_23  and  C_24
REMARK                            x       y       z     vdW  Elec       q    Type
REMARK                         _______ _______ _______ _____ _____    ______ ____
ROOT
ATOM      1  C   UNL     1       8.617  14.745  20.370  0.00  0.00    +0.000 A 
ATOM      2  C   UNL     1       7.459  15.096  21.060  0.00  0.00    +0.000 A 
ATOM      3  C   UNL     1       6.254  15.453  20.424  0.00  0.00    +0.000 A 
ATOM      4  C   UNL     1       5.042  15.622  21.098  0.00  0.00    +0.000 A 
ATOM      5  N   UNL     1       4.988  15.379  22.466  0.00  0.00    +0.000 N 
ATOM      6  C   UNL     1       4.050  16.113  23.316  0.00  0.00    +0.000 C 
ATOM      7  C   UNL     1       4.680  16.201  24.743  0.00  0.00    +0.000 C 
ATOM      8  N   UNL     1       5.084  14.886  25.315  0.00  0.00    +0.000 NA
ATOM      9  C   UNL     1       5.803  15.067  26.577  0.00  0.00    +0.000 C 
ATOM     10  C   UNL     1       5.930  14.151  24.348  0.00  0.00    +0.000 C 
ATOM     11  C   UNL     1       5.241  14.018  22.967  0.00  0.00    +0.000 C 
ATOM     12  N   UNL     1       3.947  16.056  20.449  0.00  0.00    +0.000 NA
ATOM     13  C   UNL     1       4.022  16.279  19.123  0.00  0.00    +0.000 A 
ATOM     14  N   UNL     1       2.912  16.792  18.473  0.00  0.00    +0.000 N 
ATOM     15  C   UNL     1       2.922  16.924  17.027  0.00  0.00    +0.000 C 
ATOM     16  C   UNL     1       1.611  16.707  19.112  0.00  0.00    +0.000 C 
ATOM     17  N   UNL     1       5.156  16.082  18.419  0.00  0.00    +0.000 NA
ATOM     18  C   UNL     1       6.263  15.675  19.059  0.00  0.00    +0.000 A 
ATOM     19  C   UNL     1       7.483  15.480  18.380  0.00  0.00    +0.000 A 
ATOM     20  C   UNL     1       8.657  14.992  19.004  0.00  0.00    +0.000 A 
ENDROOT
BRANCH   1  22
ATOM     21  C   UNL     1       9.493  12.820  21.407  0.00  0.00    +0.000 C 
ATOM     22  O   UNL     1       9.671  14.199  21.051  0.00  0.00    +0.000 OA
ENDBRANCH   1  22
BRANCH  20  23
ATOM     23  O   UNL     1       9.704  14.871  18.138  0.00  0.00    +0.000 OA
BRANCH  23  24
ATOM     24  C   UNL     1      10.231  13.641  17.647  0.00  0.00    +0.000 C 
ATOM     25  C   UNL     1      11.586  13.216  18.202  0.00  0.00    +0.000 C 
ATOM     26  C   UNL     1      11.561  11.695  18.287  0.00  0.00    +0.000 C 
ATOM     27  C   UNL     1      10.138  11.225  18.006  0.00  0.00    +0.000 C 
ATOM     28  C   UNL     1       9.293  12.440  17.655  0.00  0.00    +0.000 C 
ENDBRANCH  23  24
ENDBRANCH  20  23
TORSDOF 3
ENDMDL
MODEL 9
REMARK VINA RESULT:      -5.8      3.316      4.799
REMARK  Name = 
REMARK  7 active torsions:
REMARK  status: ('A' for Active; 'I' for Inactive)
REMARK    1  A    between atoms: C_1  and  O_2
REMARK    2  A    between atoms: O_2  and  C_3
REMARK    3  A    between atoms: N_10  and  C_11
REMARK    4  A    between atoms: N_16  and  C_17
REMARK    5  A    between atoms: N_16  and  C_18
REMARK    6  A    between atoms: C_22  and  O_23
REMARK    7  A    between atoms: O_23  and  C_24
REMARK                            x       y       z     vdW  Elec       q    Type
REMARK                         _______ _______ _______ _____ _____    ______ ____
ROOT
ATOM      1  C   UNL     1       0.525  12.040  18.891  0.00  0.00    +0.000 A 
ATOM      2  C   UNL     1      -0.006  13.321  19.024  0.00  0.00    +0.000 A 
ATOM      3  C   UNL     1      -0.987  13.659  19.976  0.00  0.00    +0.000 A 
ATOM      4  C   UNL     1      -1.388  14.971  20.244  0.00  0.00    +0.000 A 
ATOM      5  N   UNL     1      -0.760  16.020  19.581  0.00  0.00    +0.000 N 
ATOM      6  C   UNL     1      -1.485  17.256  19.289  0.00  0.00    +0.000 C 
ATOM      7  C   UNL     1      -0.858  17.874  17.999  0.00  0.00    +0.000 C 
ATOM      8  N   UNL     1       0.619  18.062  18.067  0.00  0.00    +0.000 NA
ATOM      9  C   UNL     1       1.148  18.495  16.773  0.00  0.00    +0.000 C 
ATOM     10  C   UNL     1       1.272  16.802  18.487  0.00  0.00    +0.000 C 
ATOM     11  C   UNL     1       0.674  16.259  19.810  0.00  0.00    +0.000 C 
ATOM     12  N   UNL     1      -2.398  15.223  21.096  0.00  0.00    +0.000 NA
ATOM     13  C   UNL     1      -2.987  14.191  21.730  0.00  0.00    +0.000 A 
ATOM     14  N   UNL     1      -4.071  14.450  22.552  0.00  0.00    +0.000 N 
ATOM     15  C   UNL     1      -4.646  13.377  23.344  0.00  0.00    +0.000 C 
ATOM     16  C   UNL     1      -4.298  15.805  23.025  0.00  0.00    +0.000 C 
ATOM     17  N   UNL     1      -2.602  12.912  21.543  0.00  0.00    +0.000 NA
ATOM     18  C   UNL     1      -1.615  12.644  20.675  0.00  0.00    +0.000 A 
ATOM     19  C   UNL     1      -1.191  11.325  20.418  0.00  0.00    +0.000 A 
ATOM     20  C   UNL     1      -0.111  11.002  19.559  0.00  0.00    +0.000 A 
ENDROOT
BRANCH   1  22
ATOM     21  C   UNL     1       2.596  12.897  18.169  0.00  0.00    +0.000 C 
ATOM     22  O   UNL     1       1.626  11.843  18.102  0.00  0.00    +0.000 OA
ENDBRANCH   1  22
BRANCH  20  23
ATOM     23  O   UNL     1       0.122   9.660  19.485  0.00  0.00    +0.000 OA
BRANCH  23  24
ATOM     24  C   UNL     1       1.406   9.051  19.381  0.00  0.00    +0.000 C 
ATOM     25  C   UNL     1       1.690   7.903  20.345  0.00  0.00    +0.000 C 
ATOM     26  C   UNL     1       2.575   6.917  19.594  0.00  0.00    +0.000 C 
ATOM     27  C   UNL     1       2.636   7.346  18.133  0.00  0.00    +0.000 C 
ATOM     28  C   UNL     1       1.867   8.651  17.986  0.00  0.00    +0.000 C 
ENDBRANCH  23  24
ENDBRANCH  20  23
TORSDOF 3
ENDMDL
