MODEL 1
REMARK VINA RESULT:      -9.1      0.000      0.000
REMARK  Name = 
REMARK  6 active torsions:
REMARK  status: ('A' for Active; 'I' for Inactive)
REMARK    1  A    between atoms: C_2  and  C_3
REMARK    2  A    between atoms: C_6  and  N_7
REMARK    3  A    between atoms: C_8  and  C_10
REMARK    4  A    between atoms: C_10  and  S_11
REMARK    5  A    between atoms: S_11  and  C_12
REMARK    6  A    between atoms: C_15  and  C_16
REMARK                            x       y       z     vdW  Elec       q    Type
REMARK                         _______ _______ _______ _____ _____    ______ ____
ROOT
ATOM      1  C   UNL     1       4.239   3.291  19.328  0.00  0.00    +0.000 A 
ATOM      2  N   UNL     1       5.098   4.050  19.969  0.00  0.00    +0.000 NA
ATOM      3  N   UNL     1       5.948   4.572  19.013  0.00  0.00    +0.000 NA
ATOM      4  C   UNL     1       5.556   4.125  17.823  0.00  0.00    +0.000 A 
ATOM      5  O   UNL     1       4.466   3.286  17.981  0.00  0.00    +0.000 OA
ENDROOT
BRANCH   4   6
ATOM      6  C   UNL     1       6.163   4.398  16.559  0.00  0.00    +0.000 A 
ATOM      7  C   UNL     1       5.758   3.722  15.471  0.00  0.00    +0.000 A 
ATOM      8  C   UNL     1       6.324   4.018  14.162  0.00  0.00    +0.000 A 
ATOM      9  C   UNL     1       5.924   3.344  13.006  0.00  0.00    +0.000 A 
ATOM     10  C   UNL     1       6.473   3.691  11.767  0.00  0.00    +0.000 A 
ATOM     11  C   UNL     1       7.423   4.711  11.677  0.00  0.00    +0.000 A 
ATOM     12  C   UNL     1       7.831   5.383  12.828  0.00  0.00    +0.000 A 
ATOM     13  C   UNL     1       7.276   5.025  14.055  0.00  0.00    +0.000 A 
ATOM     14  O   UNL     1       7.716   5.719  15.196  0.00  0.00    +0.000 OA
ATOM     15  C   UNL     1       7.233   5.424  16.470  0.00  0.00    +0.000 A 
ATOM     16  O   UNL     1       7.695   5.985  17.457  0.00  0.00    +0.000 OA
ENDBRANCH   4   6
BRANCH   1  17
ATOM     17  S   UNL     1       2.948   2.378  20.046  0.00  0.00    +0.000 S 
BRANCH  17  18
ATOM     18  C   UNL     1       2.363   3.508  21.338  0.00  0.00    +0.000 C 
BRANCH  18  20
ATOM     19  N   UNL     1       2.343   5.912  20.834  0.00  0.00    +0.000 N 
ATOM     20  C   UNL     1       1.662   4.705  20.703  0.00  0.00    +0.000 C 
ATOM     21  O   UNL     1       0.577   4.556  20.145  0.00  0.00    +0.000 OA
ATOM     22  H   UNL     1       3.295   5.857  21.178  0.00  0.00    +0.000 HD
BRANCH  19  26
ATOM     23  C   UNL     1       1.045   9.706  19.447  0.00  0.00    +0.000 A 
ATOM     24  C   UNL     1       1.723   8.848  18.585  0.00  0.00    +0.000 A 
ATOM     25  C   UNL     1       2.153   7.590  19.027  0.00  0.00    +0.000 A 
ATOM     26  C   UNL     1       1.917   7.168  20.338  0.00  0.00    +0.000 A 
ATOM     27  C   UNL     1       1.222   8.027  21.201  0.00  0.00    +0.000 A 
ATOM     28  C   UNL     1       0.798   9.293  20.763  0.00  0.00    +0.000 A 
BRANCH  23  30
ATOM     29  N   UNL     1       0.244  12.033  18.614  0.00  0.00    +0.000 NA
ATOM     30  C   UNL     1       0.606  10.995  18.983  0.00  0.00    +0.000 C 
ENDBRANCH  23  30
ENDBRANCH  19  26
ENDBRANCH  18  20
ENDBRANCH  17  18
ENDBRANCH   1  17
TORSDOF 6
ENDMDL
MODEL 2
REMARK VINA RESULT:      -8.4      2.717      3.428
REMARK  Name = 
REMARK  6 active torsions:
REMARK  status: ('A' for Active; 'I' for Inactive)
REMARK    1  A    between atoms: C_2  and  C_3
REMARK    2  A    between atoms: C_6  and  N_7
REMARK    3  A    between atoms: C_8  and  C_10
REMARK    4  A    between atoms: C_10  and  S_11
REMARK    5  A    between atoms: S_11  and  C_12
REMARK    6  A    between atoms: C_15  and  C_16
REMARK                            x       y       z     vdW  Elec       q    Type
REMARK                         _______ _______ _______ _____ _____    ______ ____
ROOT
ATOM      1  C   UNL     1       3.452   5.976  19.127  0.00  0.00    +0.000 A 
ATOM      2  N   UNL     1       4.112   5.008  19.720  0.00  0.00    +0.000 NA
ATOM      3  N   UNL     1       5.031   4.541  18.799  0.00  0.00    +0.000 NA
ATOM      4  C   UNL     1       4.906   5.261  17.688  0.00  0.00    +0.000 A 
ATOM      5  O   UNL     1       3.890   6.188  17.851  0.00  0.00    +0.000 OA
ENDROOT
BRANCH   4   6
ATOM      6  C   UNL     1       5.642   5.106  16.474  0.00  0.00    +0.000 A 
ATOM      7  C   UNL     1       5.134   4.355  15.482  0.00  0.00    +0.000 A 
ATOM      8  C   UNL     1       5.841   4.225  14.216  0.00  0.00    +0.000 A 
ATOM      9  C   UNL     1       5.343   3.461  13.158  0.00  0.00    +0.000 A 
ATOM     10  C   UNL     1       6.044   3.396  11.949  0.00  0.00    +0.000 A 
ATOM     11  C   UNL     1       7.244   4.094  11.791  0.00  0.00    +0.000 A 
ATOM     12  C   UNL     1       7.750   4.852  12.845  0.00  0.00    +0.000 A 
ATOM     13  C   UNL     1       7.041   4.905  14.043  0.00  0.00    +0.000 A 
ATOM     14  O   UNL     1       7.584   5.674  15.089  0.00  0.00    +0.000 OA
ATOM     15  C   UNL     1       6.959   5.777  16.330  0.00  0.00    +0.000 A 
ATOM     16  O   UNL     1       7.497   6.384  17.249  0.00  0.00    +0.000 OA
ENDBRANCH   4   6
BRANCH   1  17
ATOM     17  S   UNL     1       2.165   6.911  19.824  0.00  0.00    +0.000 S 
BRANCH  17  18
ATOM     18  C   UNL     1       2.137   8.370  18.748  0.00  0.00    +0.000 C 
BRANCH  18  20
ATOM     19  N   UNL     1       1.216   9.697  20.599  0.00  0.00    +0.000 N 
ATOM     20  C   UNL     1       1.098   9.368  19.252  0.00  0.00    +0.000 C 
ATOM     21  O   UNL     1       0.243   9.804  18.484  0.00  0.00    +0.000 OA
ATOM     22  H   UNL     1       2.059   9.385  21.067  0.00  0.00    +0.000 HD
BRANCH  19  26
ATOM     23  C   UNL     1      -1.291  12.309  22.813  0.00  0.00    +0.000 A 
ATOM     24  C   UNL     1      -0.469  12.820  21.810  0.00  0.00    +0.000 A 
ATOM     25  C   UNL     1       0.359  11.969  21.067  0.00  0.00    +0.000 A 
ATOM     26  C   UNL     1       0.386  10.594  21.314  0.00  0.00    +0.000 A 
ATOM     27  C   UNL     1      -0.451  10.079  22.314  0.00  0.00    +0.000 A 
ATOM     28  C   UNL     1      -1.277  10.931  23.067  0.00  0.00    +0.000 A 
BRANCH  23  30
ATOM     29  N   UNL     1      -2.828  13.894  24.181  0.00  0.00    +0.000 NA
ATOM     30  C   UNL     1      -2.140  13.191  23.567  0.00  0.00    +0.000 C 
ENDBRANCH  23  30
ENDBRANCH  19  26
ENDBRANCH  18  20
ENDBRANCH  17  18
ENDBRANCH   1  17
TORSDOF 6
ENDMDL
MODEL 3
REMARK VINA RESULT:      -8.3      1.044      1.405
REMARK  Name = 
REMARK  6 active torsions:
REMARK  status: ('A' for Active; 'I' for Inactive)
REMARK    1  A    between atoms: C_2  and  C_3
REMARK    2  A    between atoms: C_6  and  N_7
REMARK    3  A    between atoms: C_8  and  C_10
REMARK    4  A    between atoms: C_10  and  S_11
REMARK    5  A    between atoms: S_11  and  C_12
REMARK    6  A    between atoms: C_15  and  C_16
REMARK                            x       y       z     vdW  Elec       q    Type
REMARK                         _______ _______ _______ _____ _____    ______ ____
ROOT
ATOM      1  C   UNL     1       4.411   3.402  19.454  0.00  0.00    +0.000 A 
ATOM      2  N   UNL     1       5.330   4.116  20.064  0.00  0.00    +0.000 NA
ATOM      3  N   UNL     1       6.161   4.609  19.076  0.00  0.00    +0.000 NA
ATOM      4  C   UNL     1       5.700   4.191  17.900  0.00  0.00    +0.000 A 
ATOM      5  O   UNL     1       4.580   3.400  18.099  0.00  0.00    +0.000 OA
ENDROOT
BRANCH   4   6
ATOM      6  C   UNL     1       6.264   4.448  16.614  0.00  0.00    +0.000 A 
ATOM      7  C   UNL     1       5.868   3.716  15.559  0.00  0.00    +0.000 A 
ATOM      8  C   UNL     1       6.389   3.993  14.228  0.00  0.00    +0.000 A 
ATOM      9  C   UNL     1       5.997   3.261  13.105  0.00  0.00    +0.000 A 
ATOM     10  C   UNL     1       6.501   3.591  11.842  0.00  0.00    +0.000 A 
ATOM     11  C   UNL     1       7.397   4.652  11.695  0.00  0.00    +0.000 A 
ATOM     12  C   UNL     1       7.798   5.382  12.812  0.00  0.00    +0.000 A 
ATOM     13  C   UNL     1       7.288   5.041  14.063  0.00  0.00    +0.000 A 
ATOM     14  O   UNL     1       7.720   5.794  15.170  0.00  0.00    +0.000 OA
ATOM     15  C   UNL     1       7.280   5.520  16.464  0.00  0.00    +0.000 A 
ATOM     16  O   UNL     1       7.737   6.137  17.420  0.00  0.00    +0.000 OA
ENDBRANCH   4   6
BRANCH   1  17
ATOM     17  S   UNL     1       3.112   2.541  20.219  0.00  0.00    +0.000 S 
BRANCH  17  18
ATOM     18  C   UNL     1       1.823   2.597  18.945  0.00  0.00    +0.000 C 
BRANCH  18  20
ATOM     19  N   UNL     1       2.068   4.997  19.410  0.00  0.00    +0.000 N 
ATOM     20  C   UNL     1       1.564   4.043  18.531  0.00  0.00    +0.000 C 
ATOM     21  O   UNL     1       0.943   4.283  17.497  0.00  0.00    +0.000 OA
ATOM     22  H   UNL     1       2.691   4.658  20.135  0.00  0.00    +0.000 HD
BRANCH  19  26
ATOM     23  C   UNL     1       1.788   9.196  18.868  0.00  0.00    +0.000 A 
ATOM     24  C   UNL     1       1.375   8.622  20.068  0.00  0.00    +0.000 A 
ATOM     25  C   UNL     1       1.466   7.238  20.264  0.00  0.00    +0.000 A 
ATOM     26  C   UNL     1       1.968   6.401  19.264  0.00  0.00    +0.000 A 
ATOM     27  C   UNL     1       2.397   6.981  18.061  0.00  0.00    +0.000 A 
ATOM     28  C   UNL     1       2.298   8.368  17.859  0.00  0.00    +0.000 A 
BRANCH  23  30
ATOM     29  N   UNL     1       1.609  11.763  18.518  0.00  0.00    +0.000 NA
ATOM     30  C   UNL     1       1.692  10.618  18.678  0.00  0.00    +0.000 C 
ENDBRANCH  23  30
ENDBRANCH  19  26
ENDBRANCH  18  20
ENDBRANCH  17  18
ENDBRANCH   1  17
TORSDOF 6
ENDMDL
MODEL 4
REMARK VINA RESULT:      -8.1      2.186      2.969
REMARK  Name = 
REMARK  6 active torsions:
REMARK  status: ('A' for Active; 'I' for Inactive)
REMARK    1  A    between atoms: C_2  and  C_3
REMARK    2  A    between atoms: C_6  and  N_7
REMARK    3  A    between atoms: C_8  and  C_10
REMARK    4  A    between atoms: C_10  and  S_11
REMARK    5  A    between atoms: S_11  and  C_12
REMARK    6  A    between atoms: C_15  and  C_16
REMARK                            x       y       z     vdW  Elec       q    Type
REMARK                         _______ _______ _______ _____ _____    ______ ____
ROOT
ATOM      1  C   UNL     1       3.440   5.046  19.390  0.00  0.00    +0.000 A 
ATOM      2  N   UNL     1       4.139   4.031  19.842  0.00  0.00    +0.000 NA
ATOM      3  N   UNL     1       5.088   3.749  18.879  0.00  0.00    +0.000 NA
ATOM      4  C   UNL     1       4.942   4.622  17.886  0.00  0.00    +0.000 A 
ATOM      5  O   UNL     1       3.882   5.469  18.169  0.00  0.00    +0.000 OA
ENDROOT
BRANCH   4   6
ATOM      6  C   UNL     1       5.698   4.686  16.677  0.00  0.00    +0.000 A 
ATOM      7  C   UNL     1       5.272   4.016  15.593  0.00  0.00    +0.000 A 
ATOM      8  C   UNL     1       5.997   4.107  14.333  0.00  0.00    +0.000 A 
ATOM      9  C   UNL     1       5.582   3.432  13.183  0.00  0.00    +0.000 A 
ATOM     10  C   UNL     1       6.295   3.582  11.987  0.00  0.00    +0.000 A 
ATOM     11  C   UNL     1       7.423   4.404  11.936  0.00  0.00    +0.000 A 
ATOM     12  C   UNL     1       7.846   5.074  13.083  0.00  0.00    +0.000 A 
ATOM     13  C   UNL     1       7.127   4.914  14.266  0.00  0.00    +0.000 A 
ATOM     14  O   UNL     1       7.586   5.599  15.405  0.00  0.00    +0.000 OA
ATOM     15  C   UNL     1       6.945   5.491  16.638  0.00  0.00    +0.000 A 
ATOM     16  O   UNL     1       7.415   6.032  17.634  0.00  0.00    +0.000 OA
ENDBRANCH   4   6
BRANCH   1  17
ATOM     17  S   UNL     1       2.103   5.807  20.197  0.00  0.00    +0.000 S 
BRANCH  17  18
ATOM     18  C   UNL     1       2.383   7.558  19.816  0.00  0.00    +0.000 C 
BRANCH  18  20
ATOM     19  N   UNL     1       0.904   9.506  19.591  0.00  0.00    +0.000 N 
ATOM     20  C   UNL     1       1.236   8.400  20.368  0.00  0.00    +0.000 C 
ATOM     21  O   UNL     1       0.696   8.083  21.425  0.00  0.00    +0.000 OA
ATOM     22  H   UNL     1       1.326   9.554  18.670  0.00  0.00    +0.000 HD
BRANCH  19  26
ATOM     23  C   UNL     1      -2.213  12.283  20.354  0.00  0.00    +0.000 A 
ATOM     24  C   UNL     1      -1.177  12.132  21.274  0.00  0.00    +0.000 A 
ATOM     25  C   UNL     1      -0.138  11.224  21.033  0.00  0.00    +0.000 A 
ATOM     26  C   UNL     1      -0.117  10.446  19.872  0.00  0.00    +0.000 A 
ATOM     27  C   UNL     1      -1.152  10.608  18.941  0.00  0.00    +0.000 A 
ATOM     28  C   UNL     1      -2.200  11.512  19.184  0.00  0.00    +0.000 A 
BRANCH  23  30
ATOM     29  N   UNL     1      -4.129  13.977  20.806  0.00  0.00    +0.000 NA
ATOM     30  C   UNL     1      -3.273  13.220  20.610  0.00  0.00    +0.000 C 
ENDBRANCH  23  30
ENDBRANCH  19  26
ENDBRANCH  18  20
ENDBRANCH  17  18
ENDBRANCH   1  17
TORSDOF 6
ENDMDL
MODEL 5
REMARK VINA RESULT:      -8.1      2.982      9.095
REMARK  Name = 
REMARK  6 active torsions:
REMARK  status: ('A' for Active; 'I' for Inactive)
REMARK    1  A    between atoms: C_2  and  C_3
REMARK    2  A    between atoms: C_6  and  N_7
REMARK    3  A    between atoms: C_8  and  C_10
REMARK    4  A    between atoms: C_10  and  S_11
REMARK    5  A    between atoms: S_11  and  C_12
REMARK    6  A    between atoms: C_15  and  C_16
REMARK                            x       y       z     vdW  Elec       q    Type
REMARK                         _______ _______ _______ _____ _____    ______ ____
ROOT
ATOM      1  C   UNL     1       1.974   6.034  20.459  0.00  0.00    +0.000 A 
ATOM      2  N   UNL     1       2.561   6.679  19.477  0.00  0.00    +0.000 NA
ATOM      3  N   UNL     1       2.129   7.989  19.556  0.00  0.00    +0.000 NA
ATOM      4  C   UNL     1       1.311   8.092  20.600  0.00  0.00    +0.000 A 
ATOM      5  O   UNL     1       1.173   6.852  21.202  0.00  0.00    +0.000 OA
ENDROOT
BRANCH   4   6
ATOM      6  C   UNL     1       0.619   9.261  21.039  0.00  0.00    +0.000 A 
ATOM      7  C   UNL     1      -0.214   9.895  20.197  0.00  0.00    +0.000 A 
ATOM      8  C   UNL     1      -0.971  11.058  20.637  0.00  0.00    +0.000 A 
ATOM      9  C   UNL     1      -1.852  11.738  19.794  0.00  0.00    +0.000 A 
ATOM     10  C   UNL     1      -2.582  12.830  20.278  0.00  0.00    +0.000 A 
ATOM     11  C   UNL     1      -2.436  13.246  21.603  0.00  0.00    +0.000 A 
ATOM     12  C   UNL     1      -1.552  12.575  22.447  0.00  0.00    +0.000 A 
ATOM     13  C   UNL     1      -0.832  11.491  21.951  0.00  0.00    +0.000 A 
ATOM     14  O   UNL     1       0.056  10.842  22.828  0.00  0.00    +0.000 OA
ATOM     15  C   UNL     1       0.833   9.758  22.422  0.00  0.00    +0.000 A 
ATOM     16  O   UNL     1       1.660   9.266  23.182  0.00  0.00    +0.000 OA
ENDBRANCH   4   6
BRANCH   1  17
ATOM     17  S   UNL     1       2.152   4.345  20.822  0.00  0.00    +0.000 S 
BRANCH  17  18
ATOM     18  C   UNL     1       1.356   3.568  19.390  0.00  0.00    +0.000 C 
BRANCH  18  20
ATOM     19  N   UNL     1       3.489   4.082  18.285  0.00  0.00    +0.000 N 
ATOM     20  C   UNL     1       2.117   3.923  18.116  0.00  0.00    +0.000 C 
ATOM     21  O   UNL     1       1.509   4.057  17.056  0.00  0.00    +0.000 OA
ATOM     22  H   UNL     1       3.870   3.788  19.177  0.00  0.00    +0.000 HD
BRANCH  19  26
ATOM     23  C   UNL     1       6.280   4.963  15.212  0.00  0.00    +0.000 A 
ATOM     24  C   UNL     1       5.709   5.998  15.949  0.00  0.00    +0.000 A 
ATOM     25  C   UNL     1       4.791   5.723  16.970  0.00  0.00    +0.000 A 
ATOM     26  C   UNL     1       4.422   4.409  17.272  0.00  0.00    +0.000 A 
ATOM     27  C   UNL     1       5.008   3.367  16.539  0.00  0.00    +0.000 A 
ATOM     28  C   UNL     1       5.923   3.641  15.508  0.00  0.00    +0.000 A 
BRANCH  23  30
ATOM     29  N   UNL     1       7.993   5.493  13.333  0.00  0.00    +0.000 NA
ATOM     30  C   UNL     1       7.224   5.256  14.168  0.00  0.00    +0.000 C 
ENDBRANCH  23  30
ENDBRANCH  19  26
ENDBRANCH  18  20
ENDBRANCH  17  18
ENDBRANCH   1  17
TORSDOF 6
ENDMDL
MODEL 6
REMARK VINA RESULT:      -8.1      3.237      7.647
REMARK  Name = 
REMARK  6 active torsions:
REMARK  status: ('A' for Active; 'I' for Inactive)
REMARK    1  A    between atoms: C_2  and  C_3
REMARK    2  A    between atoms: C_6  and  N_7
REMARK    3  A    between atoms: C_8  and  C_10
REMARK    4  A    between atoms: C_10  and  S_11
REMARK    5  A    between atoms: S_11  and  C_12
REMARK    6  A    between atoms: C_15  and  C_16
REMARK                            x       y       z     vdW  Elec       q    Type
REMARK                         _______ _______ _______ _____ _____    ______ ____
ROOT
ATOM      1  C   UNL     1       2.009   3.377  19.684  0.00  0.00    +0.000 A 
ATOM      2  N   UNL     1       2.589   3.418  20.861  0.00  0.00    +0.000 NA
ATOM      3  N   UNL     1       2.473   4.721  21.309  0.00  0.00    +0.000 NA
ATOM      4  C   UNL     1       1.805   5.415  20.392  0.00  0.00    +0.000 A 
ATOM      5  O   UNL     1       1.498   4.591  19.322  0.00  0.00    +0.000 OA
ENDROOT
BRANCH   4   6
ATOM      6  C   UNL     1       1.478   6.805  20.434  0.00  0.00    +0.000 A 
ATOM      7  C   UNL     1       0.716   7.276  21.435  0.00  0.00    +0.000 A 
ATOM      8  C   UNL     1       0.411   8.697  21.529  0.00  0.00    +0.000 A 
ATOM      9  C   UNL     1      -0.370   9.227  22.558  0.00  0.00    +0.000 A 
ATOM     10  C   UNL     1      -0.603  10.605  22.622  0.00  0.00    +0.000 A 
ATOM     11  C   UNL     1      -0.058  11.459  21.660  0.00  0.00    +0.000 A 
ATOM     12  C   UNL     1       0.717  10.935  20.626  0.00  0.00    +0.000 A 
ATOM     13  C   UNL     1       0.939   9.561  20.575  0.00  0.00    +0.000 A 
ATOM     14  O   UNL     1       1.719   9.066  19.515  0.00  0.00    +0.000 OA
ATOM     15  C   UNL     1       1.985   7.705  19.368  0.00  0.00    +0.000 A 
ATOM     16  O   UNL     1       2.596   7.293  18.388  0.00  0.00    +0.000 OA
ENDBRANCH   4   6
BRANCH   1  17
ATOM     17  S   UNL     1       1.874   1.981  18.660  0.00  0.00    +0.000 S 
BRANCH  17  18
ATOM     18  C   UNL     1       3.556   1.837  17.999  0.00  0.00    +0.000 C 
BRANCH  18  20
ATOM     19  N   UNL     1       5.197   3.633  18.346  0.00  0.00    +0.000 N 
ATOM     20  C   UNL     1       4.085   3.218  17.618  0.00  0.00    +0.000 C 
ATOM     21  O   UNL     1       3.524   3.869  16.739  0.00  0.00    +0.000 OA
ATOM     22  H   UNL     1       5.644   2.931  18.925  0.00  0.00    +0.000 HD
BRANCH  19  26
ATOM     23  C   UNL     1       7.329   7.279  17.946  0.00  0.00    +0.000 A 
ATOM     24  C   UNL     1       6.206   7.042  17.156  0.00  0.00    +0.000 A 
ATOM     25  C   UNL     1       5.489   5.845  17.281  0.00  0.00    +0.000 A 
ATOM     26  C   UNL     1       5.881   4.862  18.193  0.00  0.00    +0.000 A 
ATOM     27  C   UNL     1       7.004   5.108  18.997  0.00  0.00    +0.000 A 
ATOM     28  C   UNL     1       7.730   6.303  18.868  0.00  0.00    +0.000 A 
BRANCH  23  30
ATOM     29  N   UNL     1       8.643   9.508  17.714  0.00  0.00    +0.000 NA
ATOM     30  C   UNL     1       8.057   8.513  17.812  0.00  0.00    +0.000 C 
ENDBRANCH  23  30
ENDBRANCH  19  26
ENDBRANCH  18  20
ENDBRANCH  17  18
ENDBRANCH   1  17
TORSDOF 6
ENDMDL
MODEL 7
REMARK VINA RESULT:      -8.1      1.417      1.715
REMARK  Name = 
REMARK  6 active torsions:
REMARK  status: ('A' for Active; 'I' for Inactive)
REMARK    1  A    between atoms: C_2  and  C_3
REMARK    2  A    between atoms: C_6  and  N_7
REMARK    3  A    between atoms: C_8  and  C_10
REMARK    4  A    between atoms: C_10  and  S_11
REMARK    5  A    between atoms: S_11  and  C_12
REMARK    6  A    between atoms: C_15  and  C_16
REMARK                            x       y       z     vdW  Elec       q    Type
REMARK                         _______ _______ _______ _____ _____    ______ ____
ROOT
ATOM      1  C   UNL     1       2.617   2.915  18.765  0.00  0.00    +0.000 A 
ATOM      2  N   UNL     1       1.737   2.999  17.794  0.00  0.00    +0.000 NA
ATOM      3  N   UNL     1       2.423   3.453  16.684  0.00  0.00    +0.000 NA
ATOM      4  C   UNL     1       3.701   3.607  17.021  0.00  0.00    +0.000 A 
ATOM      5  O   UNL     1       3.867   3.284  18.357  0.00  0.00    +0.000 OA
ENDROOT
BRANCH   4   6
ATOM      6  C   UNL     1       4.760   4.078  16.187  0.00  0.00    +0.000 A 
ATOM      7  C   UNL     1       4.939   3.534  14.972  0.00  0.00    +0.000 A 
ATOM      8  C   UNL     1       5.979   4.032  14.083  0.00  0.00    +0.000 A 
ATOM      9  C   UNL     1       6.192   3.499  12.810  0.00  0.00    +0.000 A 
ATOM     10  C   UNL     1       7.182   4.038  11.981  0.00  0.00    +0.000 A 
ATOM     11  C   UNL     1       7.963   5.110  12.419  0.00  0.00    +0.000 A 
ATOM     12  C   UNL     1       7.761   5.642  13.692  0.00  0.00    +0.000 A 
ATOM     13  C   UNL     1       6.772   5.094  14.506  0.00  0.00    +0.000 A 
ATOM     14  O   UNL     1       6.600   5.650  15.786  0.00  0.00    +0.000 OA
ATOM     15  C   UNL     1       5.648   5.161  16.680  0.00  0.00    +0.000 A 
ATOM     16  O   UNL     1       5.577   5.609  17.819  0.00  0.00    +0.000 OA
ENDBRANCH   4   6
BRANCH   1  17
ATOM     17  S   UNL     1       2.295   2.406  20.394  0.00  0.00    +0.000 S 
BRANCH  17  18
ATOM     18  C   UNL     1       2.644   3.916  21.335  0.00  0.00    +0.000 C 
BRANCH  18  20
ATOM     19  N   UNL     1       2.424   6.292  20.751  0.00  0.00    +0.000 N 
ATOM     20  C   UNL     1       1.777   5.062  20.819  0.00  0.00    +0.000 C 
ATOM     21  O   UNL     1       0.604   4.855  20.515  0.00  0.00    +0.000 OA
ATOM     22  H   UNL     1       3.430   6.281  20.883  0.00  0.00    +0.000 HD
BRANCH  19  26
ATOM     23  C   UNL     1       0.746   9.920  19.328  0.00  0.00    +0.000 A 
ATOM     24  C   UNL     1       0.472   9.491  20.624  0.00  0.00    +0.000 A 
ATOM     25  C   UNL     1       1.023   8.298  21.110  0.00  0.00    +0.000 A 
ATOM     26  C   UNL     1       1.855   7.511  20.309  0.00  0.00    +0.000 A 
ATOM     27  C   UNL     1       2.141   7.951  19.009  0.00  0.00    +0.000 A 
ATOM     28  C   UNL     1       1.582   9.142  18.516  0.00  0.00    +0.000 A 
BRANCH  23  30
ATOM     29  N   UNL     1      -0.281  12.141  18.456  0.00  0.00    +0.000 NA
ATOM     30  C   UNL     1       0.177  11.148  18.840  0.00  0.00    +0.000 C 
ENDBRANCH  23  30
ENDBRANCH  19  26
ENDBRANCH  18  20
ENDBRANCH  17  18
ENDBRANCH   1  17
TORSDOF 6
ENDMDL
MODEL 8
REMARK VINA RESULT:      -8.0      2.628      3.346
REMARK  Name = 
REMARK  6 active torsions:
REMARK  status: ('A' for Active; 'I' for Inactive)
REMARK    1  A    between atoms: C_2  and  C_3
REMARK    2  A    between atoms: C_6  and  N_7
REMARK    3  A    between atoms: C_8  and  C_10
REMARK    4  A    between atoms: C_10  and  S_11
REMARK    5  A    between atoms: S_11  and  C_12
REMARK    6  A    between atoms: C_15  and  C_16
REMARK                            x       y       z     vdW  Elec       q    Type
REMARK                         _______ _______ _______ _____ _____    ______ ____
ROOT
ATOM      1  C   UNL     1       3.238   5.370  19.338  0.00  0.00    +0.000 A 
ATOM      2  N   UNL     1       4.044   4.519  19.930  0.00  0.00    +0.000 NA
ATOM      3  N   UNL     1       5.043   4.229  19.020  0.00  0.00    +0.000 NA
ATOM      4  C   UNL     1       4.815   4.935  17.916  0.00  0.00    +0.000 A 
ATOM      5  O   UNL     1       3.654   5.675  18.074  0.00  0.00    +0.000 OA
ENDROOT
BRANCH   4   6
ATOM      6  C   UNL     1       5.586   4.927  16.715  0.00  0.00    +0.000 A 
ATOM      7  C   UNL     1       5.155   4.221  15.656  0.00  0.00    +0.000 A 
ATOM      8  C   UNL     1       5.896   4.239  14.402  0.00  0.00    +0.000 A 
ATOM      9  C   UNL     1       5.477   3.525  13.277  0.00  0.00    +0.000 A 
ATOM     10  C   UNL     1       6.206   3.605  12.085  0.00  0.00    +0.000 A 
ATOM     11  C   UNL     1       7.355   4.396  12.012  0.00  0.00    +0.000 A 
ATOM     12  C   UNL     1       7.782   5.105  13.134  0.00  0.00    +0.000 A 
ATOM     13  C   UNL     1       7.046   5.015  14.314  0.00  0.00    +0.000 A 
ATOM     14  O   UNL     1       7.510   5.738  15.428  0.00  0.00    +0.000 OA
ATOM     15  C   UNL     1       6.853   5.700  16.656  0.00  0.00    +0.000 A 
ATOM     16  O   UNL     1       7.325   6.271  17.633  0.00  0.00    +0.000 OA
ENDBRANCH   4   6
BRANCH   1  17
ATOM     17  S   UNL     1       1.801   6.063  20.025  0.00  0.00    +0.000 S 
BRANCH  17  18
ATOM     18  C   UNL     1       2.071   7.835  19.749  0.00  0.00    +0.000 C 
BRANCH  18  20
ATOM     19  N   UNL     1       0.424   9.585  20.260  0.00  0.00    +0.000 N 
ATOM     20  C   UNL     1       1.304   8.645  20.790  0.00  0.00    +0.000 C 
ATOM     21  O   UNL     1       1.499   8.447  21.988  0.00  0.00    +0.000 OA
ATOM     22  H   UNL     1       0.252   9.529  19.263  0.00  0.00    +0.000 HD
BRANCH  19  26
ATOM     23  C   UNL     1      -2.101  12.249  22.388  0.00  0.00    +0.000 A 
ATOM     24  C   UNL     1      -1.424  11.241  23.071  0.00  0.00    +0.000 A 
ATOM     25  C   UNL     1      -0.582  10.358  22.383  0.00  0.00    +0.000 A 
ATOM     26  C   UNL     1      -0.405  10.462  21.001  0.00  0.00    +0.000 A 
ATOM     27  C   UNL     1      -1.076  11.485  20.317  0.00  0.00    +0.000 A 
ATOM     28  C   UNL     1      -1.928  12.367  21.003  0.00  0.00    +0.000 A 
BRANCH  23  30
ATOM     29  N   UNL     1      -3.658  13.874  23.686  0.00  0.00    +0.000 NA
ATOM     30  C   UNL     1      -2.961  13.153  23.105  0.00  0.00    +0.000 C 
ENDBRANCH  23  30
ENDBRANCH  19  26
ENDBRANCH  18  20
ENDBRANCH  17  18
ENDBRANCH   1  17
TORSDOF 6
ENDMDL
MODEL 9
REMARK VINA RESULT:      -7.9      2.664      3.883
REMARK  Name = 
REMARK  6 active torsions:
REMARK  status: ('A' for Active; 'I' for Inactive)
REMARK    1  A    between atoms: C_2  and  C_3
REMARK    2  A    between atoms: C_6  and  N_7
REMARK    3  A    between atoms: C_8  and  C_10
REMARK    4  A    between atoms: C_10  and  S_11
REMARK    5  A    between atoms: S_11  and  C_12
REMARK    6  A    between atoms: C_15  and  C_16
REMARK                            x       y       z     vdW  Elec       q    Type
REMARK                         _______ _______ _______ _____ _____    ______ ____
ROOT
ATOM      1  C   UNL     1       3.090   6.206  19.102  0.00  0.00    +0.000 A 
ATOM      2  N   UNL     1       3.307   4.971  19.493  0.00  0.00    +0.000 NA
ATOM      3  N   UNL     1       4.179   4.418  18.575  0.00  0.00    +0.000 NA
ATOM      4  C   UNL     1       4.474   5.349  17.672  0.00  0.00    +0.000 A 
ATOM      5  O   UNL     1       3.784   6.513  17.966  0.00  0.00    +0.000 OA
ENDROOT
BRANCH   4   6
ATOM      6  C   UNL     1       5.322   5.204  16.532  0.00  0.00    +0.000 A 
ATOM      7  C   UNL     1       4.940   4.412  15.517  0.00  0.00    +0.000 A 
ATOM      8  C   UNL     1       5.762   4.289  14.322  0.00  0.00    +0.000 A 
ATOM      9  C   UNL     1       5.395   3.481  13.243  0.00  0.00    +0.000 A 
ATOM     10  C   UNL     1       6.204   3.426  12.102  0.00  0.00    +0.000 A 
ATOM     11  C   UNL     1       7.381   4.175  12.034  0.00  0.00    +0.000 A 
ATOM     12  C   UNL     1       7.756   4.977  13.111  0.00  0.00    +0.000 A 
ATOM     13  C   UNL     1       6.941   5.021  14.240  0.00  0.00    +0.000 A 
ATOM     14  O   UNL     1       7.354   5.835  15.311  0.00  0.00    +0.000 OA
ATOM     15  C   UNL     1       6.616   5.933  16.489  0.00  0.00    +0.000 A 
ATOM     16  O   UNL     1       7.041   6.583  17.438  0.00  0.00    +0.000 OA
ENDBRANCH   4   6
BRANCH   1  17
ATOM     17  S   UNL     1       2.057   7.360  19.888  0.00  0.00    +0.000 S 
BRANCH  17  18
ATOM     18  C   UNL     1       1.671   8.501  18.532  0.00  0.00    +0.000 C 
BRANCH  18  20
ATOM     19  N   UNL     1       1.582  10.940  18.253  0.00  0.00    +0.000 N 
ATOM     20  C   UNL     1       1.296   9.869  19.095  0.00  0.00    +0.000 C 
ATOM     21  O   UNL     1       0.795   9.956  20.214  0.00  0.00    +0.000 OA
ATOM     22  H   UNL     1       1.847  10.708  17.302  0.00  0.00    +0.000 HD
BRANCH  19  26
ATOM     23  C   UNL     1       0.945  15.054  19.076  0.00  0.00    +0.000 A 
ATOM     24  C   UNL     1      -0.135  14.236  18.749  0.00  0.00    +0.000 A 
ATOM     25  C   UNL     1       0.059  12.875  18.481  0.00  0.00    +0.000 A 
ATOM     26  C   UNL     1       1.334  12.307  18.529  0.00  0.00    +0.000 A 
ATOM     27  C   UNL     1       2.419  13.127  18.872  0.00  0.00    +0.000 A 
ATOM     28  C   UNL     1       2.228  14.495  19.133  0.00  0.00    +0.000 A 
BRANCH  23  30
ATOM     29  N   UNL     1       0.556  17.574  19.571  0.00  0.00    +0.000 NA
ATOM     30  C   UNL     1       0.734  16.449  19.353  0.00  0.00    +0.000 C 
ENDBRANCH  23  30
ENDBRANCH  19  26
ENDBRANCH  18  20
ENDBRANCH  17  18
ENDBRANCH   1  17
TORSDOF 6
ENDMDL
