MODEL 1
REMARK VINA RESULT:      -6.9      0.000      0.000
REMARK  Name = 
REMARK  8 active torsions:
REMARK  status: ('A' for Active; 'I' for Inactive)
REMARK    1  A    between atoms: C_1  and  O_2
REMARK    2  A    between atoms: O_2  and  C_3
REMARK    3  A    between atoms: C_10  and  C_11
REMARK    4  A    between atoms: C_14  and  C_15
REMARK    5  A    between atoms: N_20  and  C_21
REMARK    6  A    between atoms: C_24  and  O_25
REMARK    7  A    between atoms: O_25  and  C_26
REMARK    8  A    between atoms: C_26  and  C_27
REMARK                            x       y       z     vdW  Elec       q    Type
REMARK                         _______ _______ _______ _____ _____    ______ ____
ROOT
ATOM      1  C   UNL     1       6.591   5.618  16.277  0.00  0.00    +0.000 A 
ATOM      2  C   UNL     1       6.026   4.324  16.257  0.00  0.00    +0.000 A 
ATOM      3  C   UNL     1       4.863   3.986  16.945  0.00  0.00    +0.000 A 
ATOM      4  N   UNL     1       4.378   2.736  16.889  0.00  0.00    +0.000 NA
ATOM      5  C   UNL     1       3.242   2.408  17.546  0.00  0.00    +0.000 A 
ATOM      6  C   UNL     1       2.564   3.382  18.267  0.00  0.00    +0.000 A 
ATOM      7  C   UNL     1       3.012   4.697  18.355  0.00  0.00    +0.000 A 
ATOM      8  C   UNL     1       2.006   5.374  19.151  0.00  0.00    +0.000 A 
ATOM      9  N   UNL     1       1.065   4.504  19.555  0.00  0.00    +0.000 NA
ATOM     10  N   UNL     1       1.415   3.334  19.005  0.00  0.00    +0.000 N 
ATOM     11  C   UNL     1       0.583   2.172  19.212  0.00  0.00    +0.000 C 
ATOM     12  C   UNL     1       4.237   4.993  17.690  0.00  0.00    +0.000 A 
ATOM     13  C   UNL     1       4.838   6.254  17.765  0.00  0.00    +0.000 A 
ATOM     14  C   UNL     1       5.992   6.607  17.058  0.00  0.00    +0.000 A 
ENDROOT
BRANCH   8  15
ATOM     15  C   UNL     1       1.874   6.786  19.570  0.00  0.00    +0.000 A 
ATOM     16  C   UNL     1       1.674   7.140  20.909  0.00  0.00    +0.000 A 
ATOM     17  C   UNL     1       1.403   8.465  21.280  0.00  0.00    +0.000 A 
ATOM     18  C   UNL     1       1.465   9.485  20.334  0.00  0.00    +0.000 A 
ATOM     19  C   UNL     1       1.787   9.166  19.010  0.00  0.00    +0.000 A 
ATOM     20  C   UNL     1       1.973   7.826  18.631  0.00  0.00    +0.000 A 
BRANCH  18  21
ATOM     21  C   UNL     1       1.219  10.837  20.725  0.00  0.00    +0.000 C 
ATOM     22  N   UNL     1       1.018  11.945  21.031  0.00  0.00    +0.000 NA
ENDBRANCH  18  21
ENDBRANCH   8  15
BRANCH   1  24
ATOM     23  C   UNL     1       7.628   5.214  14.141  0.00  0.00    +0.000 C 
ATOM     24  O   UNL     1       7.685   5.723  15.464  0.00  0.00    +0.000 OA
ENDBRANCH   1  24
BRANCH  14  25
ATOM     25  O   UNL     1       6.498   7.886  17.122  0.00  0.00    +0.000 OA
BRANCH  25  26
ATOM     26  C   UNL     1       7.801   7.971  17.732  0.00  0.00    +0.000 C 
BRANCH  26  27
ATOM     27  C   UNL     1       8.267   9.345  18.055  0.00  0.00    +0.000 A 
ATOM     28  C   UNL     1       7.976  10.510  17.385  0.00  0.00    +0.000 A 
ATOM     29  S   UNL     1       8.777  11.834  18.126  0.00  0.00    +0.000 S 
ATOM     30  C   UNL     1       9.440  10.760  19.287  0.00  0.00    +0.000 A 
ATOM     31  N   UNL     1       9.109   9.496  19.151  0.00  0.00    +0.000 NA
ENDBRANCH  26  27
ENDBRANCH  25  26
ENDBRANCH  14  25
TORSDOF 6
ENDMDL
MODEL 2
REMARK VINA RESULT:      -6.7      7.402     10.844
REMARK  Name = 
REMARK  8 active torsions:
REMARK  status: ('A' for Active; 'I' for Inactive)
REMARK    1  A    between atoms: C_1  and  O_2
REMARK    2  A    between atoms: O_2  and  C_3
REMARK    3  A    between atoms: C_10  and  C_11
REMARK    4  A    between atoms: C_14  and  C_15
REMARK    5  A    between atoms: N_20  and  C_21
REMARK    6  A    between atoms: C_24  and  O_25
REMARK    7  A    between atoms: O_25  and  C_26
REMARK    8  A    between atoms: C_26  and  C_27
REMARK                            x       y       z     vdW  Elec       q    Type
REMARK                         _______ _______ _______ _____ _____    ______ ____
ROOT
ATOM      1  C   UNL     1      -3.496  10.821  16.443  0.00  0.00    +0.000 A 
ATOM      2  C   UNL     1      -2.245  10.189  16.611  0.00  0.00    +0.000 A 
ATOM      3  C   UNL     1      -1.484  10.293  17.773  0.00  0.00    +0.000 A 
ATOM      4  N   UNL     1      -0.299   9.670  17.869  0.00  0.00    +0.000 NA
ATOM      5  C   UNL     1       0.436   9.760  19.001  0.00  0.00    +0.000 A 
ATOM      6  C   UNL     1      -0.052  10.486  20.078  0.00  0.00    +0.000 A 
ATOM      7  C   UNL     1      -1.277  11.147  20.042  0.00  0.00    +0.000 A 
ATOM      8  C   UNL     1      -1.416  11.732  21.362  0.00  0.00    +0.000 A 
ATOM      9  N   UNL     1      -0.321  11.486  22.102  0.00  0.00    +0.000 NA
ATOM     10  N   UNL     1       0.464  10.734  21.319  0.00  0.00    +0.000 N 
ATOM     11  C   UNL     1       1.728  10.255  21.827  0.00  0.00    +0.000 C 
ATOM     12  C   UNL     1      -2.001  11.070  18.817  0.00  0.00    +0.000 A 
ATOM     13  C   UNL     1      -3.206  11.753  18.622  0.00  0.00    +0.000 A 
ATOM     14  C   UNL     1      -3.986  11.633  17.467  0.00  0.00    +0.000 A 
ENDROOT
BRANCH   8  15
ATOM     15  C   UNL     1      -2.506  12.522  21.975  0.00  0.00    +0.000 A 
ATOM     16  C   UNL     1      -3.055  12.180  23.216  0.00  0.00    +0.000 A 
ATOM     17  C   UNL     1      -4.182  12.842  23.721  0.00  0.00    +0.000 A 
ATOM     18  C   UNL     1      -4.701  13.951  23.059  0.00  0.00    +0.000 A 
ATOM     19  C   UNL     1      -4.089  14.386  21.878  0.00  0.00    +0.000 A 
ATOM     20  C   UNL     1      -3.011  13.665  21.334  0.00  0.00    +0.000 A 
BRANCH  18  21
ATOM     21  C   UNL     1      -5.832  14.641  23.597  0.00  0.00    +0.000 C 
ATOM     22  N   UNL     1      -6.760  15.202  24.023  0.00  0.00    +0.000 NA
ENDBRANCH  18  21
ENDBRANCH   8  15
BRANCH   1  24
ATOM     23  C   UNL     1      -3.279  10.104  14.154  0.00  0.00    +0.000 C 
ATOM     24  O   UNL     1      -4.085  10.507  15.251  0.00  0.00    +0.000 OA
ENDBRANCH   1  24
BRANCH  14  25
ATOM     25  O   UNL     1      -5.197  12.280  17.361  0.00  0.00    +0.000 OA
BRANCH  25  26
ATOM     26  C   UNL     1      -6.320  11.504  17.825  0.00  0.00    +0.000 C 
BRANCH  26  27
ATOM     27  C   UNL     1      -6.844  11.877  19.165  0.00  0.00    +0.000 A 
ATOM     28  C   UNL     1      -7.006  11.062  20.261  0.00  0.00    +0.000 A 
ATOM     29  S   UNL     1      -7.676  11.952  21.566  0.00  0.00    +0.000 S 
ATOM     30  C   UNL     1      -7.690  13.354  20.579  0.00  0.00    +0.000 A 
ATOM     31  N   UNL     1      -7.237  13.197  19.356  0.00  0.00    +0.000 NA
ENDBRANCH  26  27
ENDBRANCH  25  26
ENDBRANCH  14  25
TORSDOF 6
ENDMDL
MODEL 3
REMARK VINA RESULT:      -6.5      8.254     10.635
REMARK  Name = 
REMARK  8 active torsions:
REMARK  status: ('A' for Active; 'I' for Inactive)
REMARK    1  A    between atoms: C_1  and  O_2
REMARK    2  A    between atoms: O_2  and  C_3
REMARK    3  A    between atoms: C_10  and  C_11
REMARK    4  A    between atoms: C_14  and  C_15
REMARK    5  A    between atoms: N_20  and  C_21
REMARK    6  A    between atoms: C_24  and  O_25
REMARK    7  A    between atoms: O_25  and  C_26
REMARK    8  A    between atoms: C_26  and  C_27
REMARK                            x       y       z     vdW  Elec       q    Type
REMARK                         _______ _______ _______ _____ _____    ______ ____
ROOT
ATOM      1  C   UNL     1      -4.092  11.285  17.157  0.00  0.00    +0.000 A 
ATOM      2  C   UNL     1      -5.402  11.089  17.645  0.00  0.00    +0.000 A 
ATOM      3  C   UNL     1      -5.812  11.479  18.918  0.00  0.00    +0.000 A 
ATOM      4  N   UNL     1      -7.072  11.260  19.325  0.00  0.00    +0.000 NA
ATOM      5  C   UNL     1      -7.476  11.649  20.556  0.00  0.00    +0.000 A 
ATOM      6  C   UNL     1      -6.581  12.299  21.396  0.00  0.00    +0.000 A 
ATOM      7  C   UNL     1      -5.264  12.562  21.027  0.00  0.00    +0.000 A 
ATOM      8  C   UNL     1      -4.705  13.278  22.157  0.00  0.00    +0.000 A 
ATOM      9  N   UNL     1      -5.610  13.374  23.146  0.00  0.00    +0.000 NA
ATOM     10  N   UNL     1      -6.717  12.797  22.661  0.00  0.00    +0.000 N 
ATOM     11  C   UNL     1      -7.914  12.759  23.468  0.00  0.00    +0.000 C 
ATOM     12  C   UNL     1      -4.862  12.095  19.743  0.00  0.00    +0.000 A 
ATOM     13  C   UNL     1      -3.547  12.224  19.283  0.00  0.00    +0.000 A 
ATOM     14  C   UNL     1      -3.136  11.856  17.998  0.00  0.00    +0.000 A 
ENDROOT
BRANCH   8  15
ATOM     15  C   UNL     1      -3.367  13.870  22.379  0.00  0.00    +0.000 A 
ATOM     16  C   UNL     1      -3.022  15.123  21.861  0.00  0.00    +0.000 A 
ATOM     17  C   UNL     1      -1.711  15.612  21.948  0.00  0.00    +0.000 A 
ATOM     18  C   UNL     1      -0.750  14.916  22.678  0.00  0.00    +0.000 A 
ATOM     19  C   UNL     1      -1.109  13.720  23.309  0.00  0.00    +0.000 A 
ATOM     20  C   UNL     1      -2.403  13.195  23.146  0.00  0.00    +0.000 A 
BRANCH  18  21
ATOM     21  C   UNL     1       0.577  15.437  22.789  0.00  0.00    +0.000 C 
ATOM     22  N   UNL     1       1.655  15.868  22.891  0.00  0.00    +0.000 NA
ENDBRANCH  18  21
ENDBRANCH   8  15
BRANCH   1  24
ATOM     23  C   UNL     1      -2.998   9.897  15.521  0.00  0.00    +0.000 C 
ATOM     24  O   UNL     1      -3.954  10.890  15.856  0.00  0.00    +0.000 OA
ENDBRANCH   1  24
BRANCH  14  25
ATOM     25  O   UNL     1      -1.840  12.069  17.582  0.00  0.00    +0.000 OA
BRANCH  25  26
ATOM     26  C   UNL     1      -0.846  11.759  18.578  0.00  0.00    +0.000 C 
BRANCH  26  27
ATOM     27  C   UNL     1       0.139  12.838  18.856  0.00  0.00    +0.000 A 
ATOM     28  C   UNL     1       1.472  12.701  19.162  0.00  0.00    +0.000 A 
ATOM     29  S   UNL     1       2.180  14.241  19.427  0.00  0.00    +0.000 S 
ATOM     30  C   UNL     1       0.664  14.973  19.103  0.00  0.00    +0.000 A 
ATOM     31  N   UNL     1      -0.320  14.150  18.820  0.00  0.00    +0.000 NA
ENDBRANCH  26  27
ENDBRANCH  25  26
ENDBRANCH  14  25
TORSDOF 6
ENDMDL
MODEL 4
REMARK VINA RESULT:      -6.5      8.322     12.278
REMARK  Name = 
REMARK  8 active torsions:
REMARK  status: ('A' for Active; 'I' for Inactive)
REMARK    1  A    between atoms: C_1  and  O_2
REMARK    2  A    between atoms: O_2  and  C_3
REMARK    3  A    between atoms: C_10  and  C_11
REMARK    4  A    between atoms: C_14  and  C_15
REMARK    5  A    between atoms: N_20  and  C_21
REMARK    6  A    between atoms: C_24  and  O_25
REMARK    7  A    between atoms: O_25  and  C_26
REMARK    8  A    between atoms: C_26  and  C_27
REMARK                            x       y       z     vdW  Elec       q    Type
REMARK                         _______ _______ _______ _____ _____    ______ ____
ROOT
ATOM      1  C   UNL     1      -5.067  14.392  21.747  0.00  0.00    +0.000 A 
ATOM      2  C   UNL     1      -3.993  14.103  22.618  0.00  0.00    +0.000 A 
ATOM      3  C   UNL     1      -2.972  13.210  22.304  0.00  0.00    +0.000 A 
ATOM      4  N   UNL     1      -1.980  12.975  23.177  0.00  0.00    +0.000 NA
ATOM      5  C   UNL     1      -0.980  12.118  22.869  0.00  0.00    +0.000 A 
ATOM      6  C   UNL     1      -0.972  11.493  21.629  0.00  0.00    +0.000 A 
ATOM      7  C   UNL     1      -1.968  11.702  20.679  0.00  0.00    +0.000 A 
ATOM      8  C   UNL     1      -1.557  10.906  19.538  0.00  0.00    +0.000 A 
ATOM      9  N   UNL     1      -0.433  10.226  19.821  0.00  0.00    +0.000 NA
ATOM     10  N   UNL     1      -0.102  10.604  21.063  0.00  0.00    +0.000 N 
ATOM     11  C   UNL     1       1.098  10.081  21.671  0.00  0.00    +0.000 C 
ATOM     12  C   UNL     1      -3.029  12.574  21.057  0.00  0.00    +0.000 A 
ATOM     13  C   UNL     1      -4.131  12.808  20.226  0.00  0.00    +0.000 A 
ATOM     14  C   UNL     1      -5.147  13.722  20.526  0.00  0.00    +0.000 A 
ENDROOT
BRANCH   8  15
ATOM     15  C   UNL     1      -2.159  10.728  18.199  0.00  0.00    +0.000 A 
ATOM     16  C   UNL     1      -2.907   9.591  17.872  0.00  0.00    +0.000 A 
ATOM     17  C   UNL     1      -3.348   9.361  16.562  0.00  0.00    +0.000 A 
ATOM     18  C   UNL     1      -3.170  10.332  15.580  0.00  0.00    +0.000 A 
ATOM     19  C   UNL     1      -2.533  11.532  15.918  0.00  0.00    +0.000 A 
ATOM     20  C   UNL     1      -2.019  11.719  17.212  0.00  0.00    +0.000 A 
BRANCH  18  21
ATOM     21  C   UNL     1      -3.651  10.103  14.254  0.00  0.00    +0.000 C 
ATOM     22  N   UNL     1      -4.051   9.929  13.172  0.00  0.00    +0.000 NA
ENDBRANCH  18  21
ENDBRANCH   8  15
BRANCH   1  24
ATOM     23  C   UNL     1      -6.549  15.148  23.489  0.00  0.00    +0.000 C 
ATOM     24  O   UNL     1      -5.899  15.355  22.245  0.00  0.00    +0.000 OA
ENDBRANCH   1  24
BRANCH  14  25
ATOM     25  O   UNL     1      -6.172  13.956  19.636  0.00  0.00    +0.000 OA
BRANCH  25  26
ATOM     26  C   UNL     1      -7.405  13.289  19.973  0.00  0.00    +0.000 C 
BRANCH  26  27
ATOM     27  C   UNL     1      -7.368  11.805  19.902  0.00  0.00    +0.000 A 
ATOM     28  C   UNL     1      -7.731  10.907  20.879  0.00  0.00    +0.000 A 
ATOM     29  S   UNL     1      -7.479   9.301  20.331  0.00  0.00    +0.000 S 
ATOM     30  C   UNL     1      -6.917   9.920  18.834  0.00  0.00    +0.000 A 
ATOM     31  N   UNL     1      -6.903  11.229  18.726  0.00  0.00    +0.000 NA
ENDBRANCH  26  27
ENDBRANCH  25  26
ENDBRANCH  14  25
TORSDOF 6
ENDMDL
MODEL 5
REMARK VINA RESULT:      -6.5      5.837      9.012
REMARK  Name = 
REMARK  8 active torsions:
REMARK  status: ('A' for Active; 'I' for Inactive)
REMARK    1  A    between atoms: C_1  and  O_2
REMARK    2  A    between atoms: O_2  and  C_3
REMARK    3  A    between atoms: C_10  and  C_11
REMARK    4  A    between atoms: C_14  and  C_15
REMARK    5  A    between atoms: N_20  and  C_21
REMARK    6  A    between atoms: C_24  and  O_25
REMARK    7  A    between atoms: O_25  and  C_26
REMARK    8  A    between atoms: C_26  and  C_27
REMARK                            x       y       z     vdW  Elec       q    Type
REMARK                         _______ _______ _______ _____ _____    ______ ____
ROOT
ATOM      1  C   UNL     1       0.154  10.213  18.308  0.00  0.00    +0.000 A 
ATOM      2  C   UNL     1      -0.928  10.059  17.414  0.00  0.00    +0.000 A 
ATOM      3  C   UNL     1      -2.196  10.585  17.649  0.00  0.00    +0.000 A 
ATOM      4  N   UNL     1      -3.185  10.400  16.760  0.00  0.00    +0.000 NA
ATOM      5  C   UNL     1      -4.414  10.921  16.980  0.00  0.00    +0.000 A 
ATOM      6  C   UNL     1      -4.645  11.670  18.126  0.00  0.00    +0.000 A 
ATOM      7  C   UNL     1      -3.658  11.903  19.080  0.00  0.00    +0.000 A 
ATOM      8  C   UNL     1      -4.298  12.747  20.070  0.00  0.00    +0.000 A 
ATOM      9  N   UNL     1      -5.589  12.944  19.754  0.00  0.00    +0.000 NA
ATOM     10  N   UNL     1      -5.762  12.305  18.589  0.00  0.00    +0.000 N 
ATOM     11  C   UNL     1      -7.051  12.346  17.938  0.00  0.00    +0.000 C 
ATOM     12  C   UNL     1      -2.390  11.299  18.837  0.00  0.00    +0.000 A 
ATOM     13  C   UNL     1      -1.336  11.389  19.754  0.00  0.00    +0.000 A 
ATOM     14  C   UNL     1      -0.054  10.884  19.513  0.00  0.00    +0.000 A 
ENDROOT
BRANCH   8  15
ATOM     15  C   UNL     1      -3.781  13.374  21.306  0.00  0.00    +0.000 A 
ATOM     16  C   UNL     1      -3.076  14.582  21.280  0.00  0.00    +0.000 A 
ATOM     17  C   UNL     1      -2.464  15.093  22.433  0.00  0.00    +0.000 A 
ATOM     18  C   UNL     1      -2.662  14.476  23.666  0.00  0.00    +0.000 A 
ATOM     19  C   UNL     1      -3.469  13.335  23.733  0.00  0.00    +0.000 A 
ATOM     20  C   UNL     1      -4.009  12.781  22.559  0.00  0.00    +0.000 A 
BRANCH  18  21
ATOM     21  C   UNL     1      -2.061  15.022  24.842  0.00  0.00    +0.000 C 
ATOM     22  N   UNL     1      -1.576  15.479  25.799  0.00  0.00    +0.000 NA
ENDBRANCH  18  21
ENDBRANCH   8  15
BRANCH   1  24
ATOM     23  C   UNL     1       1.841   8.496  18.409  0.00  0.00    +0.000 C 
ATOM     24  O   UNL     1       1.314   9.676  17.823  0.00  0.00    +0.000 OA
ENDBRANCH   1  24
BRANCH  14  25
ATOM     25  O   UNL     1       0.959  11.062  20.429  0.00  0.00    +0.000 OA
BRANCH  25  26
ATOM     26  C   UNL     1       1.040  12.399  20.962  0.00  0.00    +0.000 C 
BRANCH  26  27
ATOM     27  C   UNL     1       1.508  13.439  20.009  0.00  0.00    +0.000 A 
ATOM     28  C   UNL     1       2.682  13.457  19.293  0.00  0.00    +0.000 A 
ATOM     29  S   UNL     1       2.780  14.888  18.352  0.00  0.00    +0.000 S 
ATOM     30  C   UNL     1       1.250  15.369  18.958  0.00  0.00    +0.000 A 
ATOM     31  N   UNL     1       0.686  14.542  19.809  0.00  0.00    +0.000 NA
ENDBRANCH  26  27
ENDBRANCH  25  26
ENDBRANCH  14  25
TORSDOF 6
ENDMDL
MODEL 6
REMARK VINA RESULT:      -6.5      7.182     12.177
REMARK  Name = 
REMARK  8 active torsions:
REMARK  status: ('A' for Active; 'I' for Inactive)
REMARK    1  A    between atoms: C_1  and  O_2
REMARK    2  A    between atoms: O_2  and  C_3
REMARK    3  A    between atoms: C_10  and  C_11
REMARK    4  A    between atoms: C_14  and  C_15
REMARK    5  A    between atoms: N_20  and  C_21
REMARK    6  A    between atoms: C_24  and  O_25
REMARK    7  A    between atoms: O_25  and  C_26
REMARK    8  A    between atoms: C_26  and  C_27
REMARK                            x       y       z     vdW  Elec       q    Type
REMARK                         _______ _______ _______ _____ _____    ______ ____
ROOT
ATOM      1  C   UNL     1      -5.781  14.101  19.742  0.00  0.00    +0.000 A 
ATOM      2  C   UNL     1      -5.718  15.159  20.675  0.00  0.00    +0.000 A 
ATOM      3  C   UNL     1      -4.761  15.234  21.684  0.00  0.00    +0.000 A 
ATOM      4  N   UNL     1      -4.757  16.265  22.543  0.00  0.00    +0.000 NA
ATOM      5  C   UNL     1      -3.820  16.347  23.516  0.00  0.00    +0.000 A 
ATOM      6  C   UNL     1      -2.843  15.365  23.610  0.00  0.00    +0.000 A 
ATOM      7  C   UNL     1      -2.790  14.276  22.743  0.00  0.00    +0.000 A 
ATOM      8  C   UNL     1      -1.615  13.535  23.158  0.00  0.00    +0.000 A 
ATOM      9  N   UNL     1      -1.053  14.112  24.235  0.00  0.00    +0.000 NA
ATOM     10  N   UNL     1      -1.795  15.202  24.471  0.00  0.00    +0.000 N 
ATOM     11  C   UNL     1      -1.438  16.085  25.556  0.00  0.00    +0.000 C 
ATOM     12  C   UNL     1      -3.821  14.199  21.762  0.00  0.00    +0.000 A 
ATOM     13  C   UNL     1      -3.929  13.117  20.881  0.00  0.00    +0.000 A 
ATOM     14  C   UNL     1      -4.873  13.047  19.851  0.00  0.00    +0.000 A 
ENDROOT
BRANCH   8  15
ATOM     15  C   UNL     1      -0.988  12.308  22.620  0.00  0.00    +0.000 A 
ATOM     16  C   UNL     1      -1.287  11.042  23.136  0.00  0.00    +0.000 A 
ATOM     17  C   UNL     1      -0.583   9.902  22.723  0.00  0.00    +0.000 A 
ATOM     18  C   UNL     1       0.340   9.986  21.684  0.00  0.00    +0.000 A 
ATOM     19  C   UNL     1       0.563  11.223  21.070  0.00  0.00    +0.000 A 
ATOM     20  C   UNL     1      -0.085  12.376  21.546  0.00  0.00    +0.000 A 
BRANCH  18  21
ATOM     21  C   UNL     1       1.031   8.813  21.247  0.00  0.00    +0.000 C 
ATOM     22  N   UNL     1       1.592   7.860  20.877  0.00  0.00    +0.000 NA
ENDBRANCH  18  21
ENDBRANCH   8  15
BRANCH   1  24
ATOM     23  C   UNL     1      -7.904  13.454  18.806  0.00  0.00    +0.000 C 
ATOM     24  O   UNL     1      -6.757  14.289  18.803  0.00  0.00    +0.000 OA
ENDBRANCH   1  24
BRANCH  14  25
ATOM     25  O   UNL     1      -4.887  11.985  18.975  0.00  0.00    +0.000 OA
BRANCH  25  26
ATOM     26  C   UNL     1      -3.578  11.476  18.650  0.00  0.00    +0.000 C 
BRANCH  26  27
ATOM     27  C   UNL     1      -3.423  10.947  17.269  0.00  0.00    +0.000 A 
ATOM     28  C   UNL     1      -4.183  11.249  16.163  0.00  0.00    +0.000 A 
ATOM     29  S   UNL     1      -3.630  10.358  14.805  0.00  0.00    +0.000 S 
ATOM     30  C   UNL     1      -2.416   9.649  15.787  0.00  0.00    +0.000 A 
ATOM     31  N   UNL     1      -2.405  10.027  17.045  0.00  0.00    +0.000 NA
ENDBRANCH  26  27
ENDBRANCH  25  26
ENDBRANCH  14  25
TORSDOF 6
ENDMDL
MODEL 7
REMARK VINA RESULT:      -6.5      7.453     11.404
REMARK  Name = 
REMARK  8 active torsions:
REMARK  status: ('A' for Active; 'I' for Inactive)
REMARK    1  A    between atoms: C_1  and  O_2
REMARK    2  A    between atoms: O_2  and  C_3
REMARK    3  A    between atoms: C_10  and  C_11
REMARK    4  A    between atoms: C_14  and  C_15
REMARK    5  A    between atoms: N_20  and  C_21
REMARK    6  A    between atoms: C_24  and  O_25
REMARK    7  A    between atoms: O_25  and  C_26
REMARK    8  A    between atoms: C_26  and  C_27
REMARK                            x       y       z     vdW  Elec       q    Type
REMARK                         _______ _______ _______ _____ _____    ______ ____
ROOT
ATOM      1  C   UNL     1      -5.853  12.130  18.128  0.00  0.00    +0.000 A 
ATOM      2  C   UNL     1      -5.076  11.265  17.326  0.00  0.00    +0.000 A 
ATOM      3  C   UNL     1      -3.737  10.981  17.581  0.00  0.00    +0.000 A 
ATOM      4  N   UNL     1      -3.052  10.152  16.778  0.00  0.00    +0.000 NA
ATOM      5  C   UNL     1      -1.755   9.864  17.032  0.00  0.00    +0.000 A 
ATOM      6  C   UNL     1      -1.136  10.416  18.145  0.00  0.00    +0.000 A 
ATOM      7  C   UNL     1      -1.796  11.275  19.020  0.00  0.00    +0.000 A 
ATOM      8  C   UNL     1      -0.817  11.576  20.046  0.00  0.00    +0.000 A 
ATOM      9  N   UNL     1       0.357  10.987  19.760  0.00  0.00    +0.000 NA
ATOM     10  N   UNL     1       0.133  10.295  18.635  0.00  0.00    +0.000 N 
ATOM     11  C   UNL     1       1.196   9.502  18.063  0.00  0.00    +0.000 C 
ATOM     12  C   UNL     1      -3.147  11.592  18.694  0.00  0.00    +0.000 A 
ATOM     13  C   UNL     1      -3.898  12.503  19.445  0.00  0.00    +0.000 A 
ATOM     14  C   UNL     1      -5.249  12.775  19.208  0.00  0.00    +0.000 A 
ENDROOT
BRANCH   8  15
ATOM     15  C   UNL     1      -0.904  12.394  21.275  0.00  0.00    +0.000 A 
ATOM     16  C   UNL     1      -1.653  11.982  22.382  0.00  0.00    +0.000 A 
ATOM     17  C   UNL     1      -1.850  12.827  23.483  0.00  0.00    +0.000 A 
ATOM     18  C   UNL     1      -1.187  14.049  23.559  0.00  0.00    +0.000 A 
ATOM     19  C   UNL     1      -0.334  14.425  22.515  0.00  0.00    +0.000 A 
ATOM     20  C   UNL     1      -0.207  13.610  21.377  0.00  0.00    +0.000 A 
BRANCH  18  21
ATOM     21  C   UNL     1      -1.369  14.891  24.699  0.00  0.00    +0.000 C 
ATOM     22  N   UNL     1      -1.528  15.570  25.634  0.00  0.00    +0.000 NA
ENDBRANCH  18  21
ENDBRANCH   8  15
BRANCH   1  24
ATOM     23  C   UNL     1      -7.663  13.391  17.161  0.00  0.00    +0.000 C 
ATOM     24  O   UNL     1      -7.156  12.190  17.721  0.00  0.00    +0.000 OA
ENDBRANCH   1  24
BRANCH  14  25
ATOM     25  O   UNL     1      -5.952  13.634  20.024  0.00  0.00    +0.000 OA
BRANCH  25  26
ATOM     26  C   UNL     1      -5.930  13.268  21.418  0.00  0.00    +0.000 C 
BRANCH  26  27
ATOM     27  C   UNL     1      -5.820  14.400  22.374  0.00  0.00    +0.000 A 
ATOM     28  C   UNL     1      -4.680  15.064  22.763  0.00  0.00    +0.000 A 
ATOM     29  S   UNL     1      -5.066  16.280  23.911  0.00  0.00    +0.000 S 
ATOM     30  C   UNL     1      -6.719  15.839  23.795  0.00  0.00    +0.000 A 
ATOM     31  N   UNL     1      -6.991  14.854  22.970  0.00  0.00    +0.000 NA
ENDBRANCH  26  27
ENDBRANCH  25  26
ENDBRANCH  14  25
TORSDOF 6
ENDMDL
MODEL 8
REMARK VINA RESULT:      -6.5      5.595      8.739
REMARK  Name = 
REMARK  8 active torsions:
REMARK  status: ('A' for Active; 'I' for Inactive)
REMARK    1  A    between atoms: C_1  and  O_2
REMARK    2  A    between atoms: O_2  and  C_3
REMARK    3  A    between atoms: C_10  and  C_11
REMARK    4  A    between atoms: C_14  and  C_15
REMARK    5  A    between atoms: N_20  and  C_21
REMARK    6  A    between atoms: C_24  and  O_25
REMARK    7  A    between atoms: O_25  and  C_26
REMARK    8  A    between atoms: C_26  and  C_27
REMARK                            x       y       z     vdW  Elec       q    Type
REMARK                         _______ _______ _______ _____ _____    ______ ____
ROOT
ATOM      1  C   UNL     1       0.327  10.199  18.338  0.00  0.00    +0.000 A 
ATOM      2  C   UNL     1      -0.761  10.007  17.459  0.00  0.00    +0.000 A 
ATOM      3  C   UNL     1      -2.035  10.518  17.695  0.00  0.00    +0.000 A 
ATOM      4  N   UNL     1      -3.030  10.297  16.821  0.00  0.00    +0.000 NA
ATOM      5  C   UNL     1      -4.264  10.804  17.041  0.00  0.00    +0.000 A 
ATOM      6  C   UNL     1      -4.496  11.576  18.172  0.00  0.00    +0.000 A 
ATOM      7  C   UNL     1      -3.503  11.847  19.110  0.00  0.00    +0.000 A 
ATOM      8  C   UNL     1      -4.146  12.704  20.087  0.00  0.00    +0.000 A 
ATOM      9  N   UNL     1      -5.444  12.873  19.779  0.00  0.00    +0.000 NA
ATOM     10  N   UNL     1      -5.618  12.204  18.632  0.00  0.00    +0.000 N 
ATOM     11  C   UNL     1      -6.914  12.210  17.994  0.00  0.00    +0.000 C 
ATOM     12  C   UNL     1      -2.228  11.257  18.868  0.00  0.00    +0.000 A 
ATOM     13  C   UNL     1      -1.167  11.385  19.772  0.00  0.00    +0.000 A 
ATOM     14  C   UNL     1       0.120  10.894  19.530  0.00  0.00    +0.000 A 
ENDROOT
BRANCH   8  15
ATOM     15  C   UNL     1      -3.628  13.367  21.302  0.00  0.00    +0.000 A 
ATOM     16  C   UNL     1      -3.363  12.651  22.476  0.00  0.00    +0.000 A 
ATOM     17  C   UNL     1      -3.013  13.305  23.665  0.00  0.00    +0.000 A 
ATOM     18  C   UNL     1      -2.785  14.679  23.670  0.00  0.00    +0.000 A 
ATOM     19  C   UNL     1      -2.924  15.396  22.476  0.00  0.00    +0.000 A 
ATOM     20  C   UNL     1      -3.358  14.746  21.308  0.00  0.00    +0.000 A 
BRANCH  18  21
ATOM     21  C   UNL     1      -2.398  15.334  24.880  0.00  0.00    +0.000 C 
ATOM     22  N   UNL     1      -2.084  15.881  25.861  0.00  0.00    +0.000 NA
ENDBRANCH  18  21
ENDBRANCH   8  15
BRANCH   1  24
ATOM     23  C   UNL     1       1.921   8.393  18.301  0.00  0.00    +0.000 C 
ATOM     24  O   UNL     1       1.490   9.669  17.854  0.00  0.00    +0.000 OA
ENDBRANCH   1  24
BRANCH  14  25
ATOM     25  O   UNL     1       1.140  11.110  20.430  0.00  0.00    +0.000 OA
BRANCH  25  26
ATOM     26  C   UNL     1       1.135  12.425  21.018  0.00  0.00    +0.000 C 
BRANCH  26  27
ATOM     27  C   UNL     1       2.233  13.326  20.579  0.00  0.00    +0.000 A 
ATOM     28  C   UNL     1       2.482  13.791  19.309  0.00  0.00    +0.000 A 
ATOM     29  S   UNL     1       3.885  14.778  19.305  0.00  0.00    +0.000 S 
ATOM     30  C   UNL     1       4.048  14.523  20.992  0.00  0.00    +0.000 A 
ATOM     31  N   UNL     1       3.137  13.754  21.545  0.00  0.00    +0.000 NA
ENDBRANCH  26  27
ENDBRANCH  25  26
ENDBRANCH  14  25
TORSDOF 6
ENDMDL
MODEL 9
REMARK VINA RESULT:      -6.4      7.639     11.164
REMARK  Name = 
REMARK  8 active torsions:
REMARK  status: ('A' for Active; 'I' for Inactive)
REMARK    1  A    between atoms: C_1  and  O_2
REMARK    2  A    between atoms: O_2  and  C_3
REMARK    3  A    between atoms: C_10  and  C_11
REMARK    4  A    between atoms: C_14  and  C_15
REMARK    5  A    between atoms: N_20  and  C_21
REMARK    6  A    between atoms: C_24  and  O_25
REMARK    7  A    between atoms: O_25  and  C_26
REMARK    8  A    between atoms: C_26  and  C_27
REMARK                            x       y       z     vdW  Elec       q    Type
REMARK                         _______ _______ _______ _____ _____    ______ ____
ROOT
ATOM      1  C   UNL     1      -0.858  15.264  22.286  0.00  0.00    +0.000 A 
ATOM      2  C   UNL     1      -1.903  15.176  23.232  0.00  0.00    +0.000 A 
ATOM      3  C   UNL     1      -3.111  14.532  22.980  0.00  0.00    +0.000 A 
ATOM      4  N   UNL     1      -4.068  14.486  23.921  0.00  0.00    +0.000 NA
ATOM      5  C   UNL     1      -5.237  13.850  23.683  0.00  0.00    +0.000 A 
ATOM      6  C   UNL     1      -5.439  13.222  22.461  0.00  0.00    +0.000 A 
ATOM      7  C   UNL     1      -4.482  13.227  21.450  0.00  0.00    +0.000 A 
ATOM      8  C   UNL     1      -5.070  12.437  20.385  0.00  0.00    +0.000 A 
ATOM      9  N   UNL     1      -6.312  12.047  20.722  0.00  0.00    +0.000 NA
ATOM     10  N   UNL     1      -6.497  12.516  21.963  0.00  0.00    +0.000 N 
ATOM     11  C   UNL     1      -7.737  12.240  22.651  0.00  0.00    +0.000 C 
ATOM     12  C   UNL     1      -3.282  13.948  21.719  0.00  0.00    +0.000 A 
ATOM     13  C   UNL     1      -2.275  14.097  20.760  0.00  0.00    +0.000 A 
ATOM     14  C   UNL     1      -1.049  14.722  21.014  0.00  0.00    +0.000 A 
ENDROOT
BRANCH   8  15
ATOM     15  C   UNL     1      -4.549  12.031  19.062  0.00  0.00    +0.000 A 
ATOM     16  C   UNL     1      -5.334  12.113  17.906  0.00  0.00    +0.000 A 
ATOM     17  C   UNL     1      -4.886  11.591  16.684  0.00  0.00    +0.000 A 
ATOM     18  C   UNL     1      -3.588  11.102  16.562  0.00  0.00    +0.000 A 
ATOM     19  C   UNL     1      -2.745  11.127  17.679  0.00  0.00    +0.000 A 
ATOM     20  C   UNL     1      -3.229  11.573  18.921  0.00  0.00    +0.000 A 
BRANCH  18  21
ATOM     21  C   UNL     1      -3.128  10.601  15.305  0.00  0.00    +0.000 C 
ATOM     22  N   UNL     1      -2.747  10.182  14.286  0.00  0.00    +0.000 NA
ENDBRANCH  18  21
ENDBRANCH   8  15
BRANCH   1  24
ATOM     23  C   UNL     1       0.458  17.262  22.567  0.00  0.00    +0.000 C 
ATOM     24  O   UNL     1       0.255  15.875  22.792  0.00  0.00    +0.000 OA
ENDBRANCH   1  24
BRANCH  14  25
ATOM     25  O   UNL     1      -0.070  14.781  20.047  0.00  0.00    +0.000 OA
BRANCH  25  26
ATOM     26  C   UNL     1       1.101  13.997  20.350  0.00  0.00    +0.000 C 
BRANCH  26  27
ATOM     27  C   UNL     1       0.926  12.524  20.256  0.00  0.00    +0.000 A 
ATOM     28  C   UNL     1       0.760  11.768  19.119  0.00  0.00    +0.000 A 
ATOM     29  S   UNL     1       0.569  10.114  19.532  0.00  0.00    +0.000 S 
ATOM     30  C   UNL     1       0.733  10.526  21.188  0.00  0.00    +0.000 A 
ATOM     31  N   UNL     1       0.913  11.802  21.444  0.00  0.00    +0.000 NA
ENDBRANCH  26  27
ENDBRANCH  25  26
ENDBRANCH  14  25
TORSDOF 6
ENDMDL
