MODEL 1
REMARK VINA RESULT:      -9.4      0.000      0.000
REMARK  Name = 
REMARK  6 active torsions:
REMARK  status: ('A' for Active; 'I' for Inactive)
REMARK    1  A    between atoms: C_1  and  C_2
REMARK    2  A    between atoms: C_3  and  C_4
REMARK    3  A    between atoms: C_7  and  C_8
REMARK    4  A    between atoms: C_11  and  O_12
REMARK    5  A    between atoms: O_12  and  C_13
REMARK    6  A    between atoms: C_24  and  O_25
REMARK                            x       y       z     vdW  Elec       q    Type
REMARK                         _______ _______ _______ _____ _____    ______ ____
ROOT
ATOM      1  C   UNL     1       2.492   6.989  19.122  0.00  0.00    +0.000 A 
ATOM      2  C   UNL     1       2.132   6.758  20.447  0.00  0.00    +0.000 A 
ATOM      3  C   UNL     1       1.385   7.716  21.129  0.00  0.00    +0.000 A 
ATOM      4  C   UNL     1       1.001   8.888  20.476  0.00  0.00    +0.000 A 
ATOM      5  N   UNL     1       1.385   9.145  19.198  0.00  0.00    +0.000 NA
ATOM      6  C   UNL     1       2.121   8.203  18.558  0.00  0.00    +0.000 A 
ENDROOT
BRANCH   1   9
ATOM      7  C   UNL     1       1.369   4.189  18.824  0.00  0.00    +0.000 C 
ATOM      8  C   UNL     1       2.637   4.709  18.216  0.00  0.00    +0.000 A 
ATOM      9  C   UNL     1       3.164   5.942  18.341  0.00  0.00    +0.000 A 
ATOM     10  N   UNL     1       4.333   6.345  17.725  0.00  0.00    +0.000 N 
ATOM     11  C   UNL     1       4.987   5.536  16.791  0.00  0.00    +0.000 A 
ATOM     12  C   UNL     1       6.108   5.997  16.089  0.00  0.00    +0.000 A 
ATOM     13  C   UNL     1       6.749   5.155  15.180  0.00  0.00    +0.000 A 
ATOM     14  C   UNL     1       6.299   3.855  14.965  0.00  0.00    +0.000 A 
ATOM     15  C   UNL     1       5.199   3.379  15.676  0.00  0.00    +0.000 A 
ATOM     16  C   UNL     1       4.553   4.218  16.588  0.00  0.00    +0.000 A 
ATOM     17  C   UNL     1       3.375   3.734  17.347  0.00  0.00    +0.000 A 
ATOM     18  O   UNL     1       2.999   2.571  17.241  0.00  0.00    +0.000 OA
ATOM     19  H   UNL     1       4.559   7.334  17.750  0.00  0.00    +0.000 HD
BRANCH  13  20
ATOM     20  O   UNL     1       7.835   5.569  14.471  0.00  0.00    +0.000 OA
ATOM     21  H   UNL     1       8.093   6.456  14.767  0.00  0.00    +0.000 HD
ENDBRANCH  13  20
ENDBRANCH   1   9
BRANCH   4  22
ATOM     22  C   UNL     1       0.051   9.841  21.086  0.00  0.00    +0.000 A 
ATOM     23  C   UNL     1      -0.443  10.953  20.386  0.00  0.00    +0.000 A 
ATOM     24  C   UNL     1      -1.208  11.931  21.026  0.00  0.00    +0.000 A 
ATOM     25  C   UNL     1      -1.532  11.814  22.378  0.00  0.00    +0.000 A 
ATOM     26  C   UNL     1      -1.073  10.710  23.088  0.00  0.00    +0.000 A 
ATOM     27  C   UNL     1      -0.312   9.725  22.440  0.00  0.00    +0.000 A 
BRANCH  25  28
ATOM     28  O   UNL     1      -2.221  12.872  22.884  0.00  0.00    +0.000 OA
BRANCH  28  29
ATOM     29  C   UNL     1      -3.585  12.728  23.245  0.00  0.00    +0.000 C 
ATOM     30  F   UNL     1      -3.808  11.893  24.279  0.00  0.00    +0.000 F 
ATOM     31  F   UNL     1      -4.093  13.942  23.550  0.00  0.00    +0.000 F 
ATOM     32  F   UNL     1      -4.258  12.250  22.174  0.00  0.00    +0.000 F 
ENDBRANCH  28  29
ENDBRANCH  25  28
ENDBRANCH   4  22
TORSDOF 5
ENDMDL
MODEL 2
REMARK VINA RESULT:      -9.1      0.719      1.489
REMARK  Name = 
REMARK  6 active torsions:
REMARK  status: ('A' for Active; 'I' for Inactive)
REMARK    1  A    between atoms: C_1  and  C_2
REMARK    2  A    between atoms: C_3  and  C_4
REMARK    3  A    between atoms: C_7  and  C_8
REMARK    4  A    between atoms: C_11  and  O_12
REMARK    5  A    between atoms: O_12  and  C_13
REMARK    6  A    between atoms: C_24  and  O_25
REMARK                            x       y       z     vdW  Elec       q    Type
REMARK                         _______ _______ _______ _____ _____    ______ ____
ROOT
ATOM      1  C   UNL     1       2.290   6.880  18.945  0.00  0.00    +0.000 A 
ATOM      2  C   UNL     1       1.997   8.080  18.302  0.00  0.00    +0.000 A 
ATOM      3  C   UNL     1       1.343   9.091  19.003  0.00  0.00    +0.000 A 
ATOM      4  C   UNL     1       0.997   8.892  20.340  0.00  0.00    +0.000 A 
ATOM      5  N   UNL     1       1.237   7.710  20.966  0.00  0.00    +0.000 NA
ATOM      6  C   UNL     1       1.865   6.737  20.260  0.00  0.00    +0.000 A 
ENDROOT
BRANCH   1   9
ATOM      7  C   UNL     1       1.466   3.965  18.837  0.00  0.00    +0.000 C 
ATOM      8  C   UNL     1       2.698   4.566  18.229  0.00  0.00    +0.000 A 
ATOM      9  C   UNL     1       3.093   5.852  18.271  0.00  0.00    +0.000 A 
ATOM     10  N   UNL     1       4.238   6.326  17.660  0.00  0.00    +0.000 N 
ATOM     11  C   UNL     1       5.006   5.519  16.814  0.00  0.00    +0.000 A 
ATOM     12  C   UNL     1       6.101   6.039  16.113  0.00  0.00    +0.000 A 
ATOM     13  C   UNL     1       6.857   5.201  15.294  0.00  0.00    +0.000 A 
ATOM     14  C   UNL     1       6.550   3.848  15.169  0.00  0.00    +0.000 A 
ATOM     15  C   UNL     1       5.476   3.317  15.882  0.00  0.00    +0.000 A 
ATOM     16  C   UNL     1       4.714   4.152  16.705  0.00  0.00    +0.000 A 
ATOM     17  C   UNL     1       3.562   3.609  17.464  0.00  0.00    +0.000 A 
ATOM     18  O   UNL     1       3.310   2.408  17.439  0.00  0.00    +0.000 OA
ATOM     19  H   UNL     1       4.362   7.331  17.613  0.00  0.00    +0.000 HD
BRANCH  13  20
ATOM     20  O   UNL     1       7.923   5.668  14.587  0.00  0.00    +0.000 OA
ATOM     21  H   UNL     1       7.819   6.623  14.444  0.00  0.00    +0.000 HD
ENDBRANCH  13  20
ENDBRANCH   1   9
BRANCH   4  22
ATOM     22  C   UNL     1       0.482   9.993  21.181  0.00  0.00    +0.000 A 
ATOM     23  C   UNL     1      -0.169   9.758  22.402  0.00  0.00    +0.000 A 
ATOM     24  C   UNL     1      -0.794  10.793  23.101  0.00  0.00    +0.000 A 
ATOM     25  C   UNL     1      -0.761  12.103  22.621  0.00  0.00    +0.000 A 
ATOM     26  C   UNL     1      -0.102  12.365  21.425  0.00  0.00    +0.000 A 
ATOM     27  C   UNL     1       0.531  11.324  20.729  0.00  0.00    +0.000 A 
BRANCH  25  28
ATOM     28  O   UNL     1      -1.468  12.993  23.367  0.00  0.00    +0.000 OA
BRANCH  28  29
ATOM     29  C   UNL     1      -2.880  13.055  23.254  0.00  0.00    +0.000 C 
ATOM     30  F   UNL     1      -3.367  12.658  22.061  0.00  0.00    +0.000 F 
ATOM     31  F   UNL     1      -3.437  12.298  24.223  0.00  0.00    +0.000 F 
ATOM     32  F   UNL     1      -3.264  14.337  23.451  0.00  0.00    +0.000 F 
ENDBRANCH  28  29
ENDBRANCH  25  28
ENDBRANCH   4  22
TORSDOF 5
ENDMDL
MODEL 3
REMARK VINA RESULT:      -8.9      1.074      1.246
REMARK  Name = 
REMARK  6 active torsions:
REMARK  status: ('A' for Active; 'I' for Inactive)
REMARK    1  A    between atoms: C_1  and  C_2
REMARK    2  A    between atoms: C_3  and  C_4
REMARK    3  A    between atoms: C_7  and  C_8
REMARK    4  A    between atoms: C_11  and  O_12
REMARK    5  A    between atoms: O_12  and  C_13
REMARK    6  A    between atoms: C_24  and  O_25
REMARK                            x       y       z     vdW  Elec       q    Type
REMARK                         _______ _______ _______ _____ _____    ______ ____
ROOT
ATOM      1  C   UNL     1       2.459   7.186  18.995  0.00  0.00    +0.000 A 
ATOM      2  C   UNL     1       2.134   7.036  20.340  0.00  0.00    +0.000 A 
ATOM      3  C   UNL     1       1.371   8.015  20.973  0.00  0.00    +0.000 A 
ATOM      4  C   UNL     1       0.936   9.127  20.250  0.00  0.00    +0.000 A 
ATOM      5  N   UNL     1       1.284   9.307  18.949  0.00  0.00    +0.000 NA
ATOM      6  C   UNL     1       2.037   8.346  18.358  0.00  0.00    +0.000 A 
ENDROOT
BRANCH   1   9
ATOM      7  C   UNL     1       1.361   4.366  18.816  0.00  0.00    +0.000 C 
ATOM      8  C   UNL     1       2.633   4.867  18.199  0.00  0.00    +0.000 A 
ATOM      9  C   UNL     1       3.148   6.109  18.272  0.00  0.00    +0.000 A 
ATOM     10  N   UNL     1       4.322   6.493  17.651  0.00  0.00    +0.000 N 
ATOM     11  C   UNL     1       4.993   5.645  16.763  0.00  0.00    +0.000 A 
ATOM     12  C   UNL     1       6.118   6.082  16.054  0.00  0.00    +0.000 A 
ATOM     13  C   UNL     1       6.776   5.204  15.193  0.00  0.00    +0.000 A 
ATOM     14  C   UNL     1       6.340   3.892  15.034  0.00  0.00    +0.000 A 
ATOM     15  C   UNL     1       5.235   3.440  15.754  0.00  0.00    +0.000 A 
ATOM     16  C   UNL     1       4.571   4.316  16.618  0.00  0.00    +0.000 A 
ATOM     17  C   UNL     1       3.388   3.859  17.386  0.00  0.00    +0.000 A 
ATOM     18  O   UNL     1       3.022   2.688  17.330  0.00  0.00    +0.000 OA
ATOM     19  H   UNL     1       4.539   7.483  17.632  0.00  0.00    +0.000 HD
BRANCH  13  20
ATOM     20  O   UNL     1       7.868   5.593  14.477  0.00  0.00    +0.000 OA
ATOM     21  H   UNL     1       8.553   5.913  15.085  0.00  0.00    +0.000 HD
ENDBRANCH  13  20
ENDBRANCH   1   9
BRANCH   4  22
ATOM     22  C   UNL     1      -0.032  10.090  20.816  0.00  0.00    +0.000 A 
ATOM     23  C   UNL     1      -0.631  11.090  20.035  0.00  0.00    +0.000 A 
ATOM     24  C   UNL     1      -1.414  12.092  20.616  0.00  0.00    +0.000 A 
ATOM     25  C   UNL     1      -1.651  12.107  21.990  0.00  0.00    +0.000 A 
ATOM     26  C   UNL     1      -1.087  11.112  22.782  0.00  0.00    +0.000 A 
ATOM     27  C   UNL     1      -0.308  10.104  22.195  0.00  0.00    +0.000 A 
BRANCH  25  28
ATOM     28  O   UNL     1      -2.370  13.175  22.425  0.00  0.00    +0.000 OA
BRANCH  28  29
ATOM     29  C   UNL     1      -1.734  14.218  23.146  0.00  0.00    +0.000 C 
ATOM     30  F   UNL     1      -0.394  14.261  23.007  0.00  0.00    +0.000 F 
ATOM     31  F   UNL     1      -2.249  15.404  22.755  0.00  0.00    +0.000 F 
ATOM     32  F   UNL     1      -2.010  14.054  24.459  0.00  0.00    +0.000 F 
ENDBRANCH  28  29
ENDBRANCH  25  28
ENDBRANCH   4  22
TORSDOF 5
ENDMDL
MODEL 4
REMARK VINA RESULT:      -8.7      1.302      1.727
REMARK  Name = 
REMARK  6 active torsions:
REMARK  status: ('A' for Active; 'I' for Inactive)
REMARK    1  A    between atoms: C_1  and  C_2
REMARK    2  A    between atoms: C_3  and  C_4
REMARK    3  A    between atoms: C_7  and  C_8
REMARK    4  A    between atoms: C_11  and  O_12
REMARK    5  A    between atoms: O_12  and  C_13
REMARK    6  A    between atoms: C_24  and  O_25
REMARK                            x       y       z     vdW  Elec       q    Type
REMARK                         _______ _______ _______ _____ _____    ______ ____
ROOT
ATOM      1  C   UNL     1       2.298   7.278  18.634  0.00  0.00    +0.000 A 
ATOM      2  C   UNL     1       1.893   8.354  17.848  0.00  0.00    +0.000 A 
ATOM      3  C   UNL     1       1.253   9.436  18.447  0.00  0.00    +0.000 A 
ATOM      4  C   UNL     1       1.034   9.434  19.826  0.00  0.00    +0.000 A 
ATOM      5  N   UNL     1       1.384   8.371  20.597  0.00  0.00    +0.000 NA
ATOM      6  C   UNL     1       1.996   7.324  19.989  0.00  0.00    +0.000 A 
ENDROOT
BRANCH   1   9
ATOM      7  C   UNL     1       1.432   4.376  18.757  0.00  0.00    +0.000 C 
ATOM      8  C   UNL     1       2.675   4.907  18.110  0.00  0.00    +0.000 A 
ATOM      9  C   UNL     1       3.089   6.187  18.051  0.00  0.00    +0.000 A 
ATOM     10  N   UNL     1       4.244   6.594  17.410  0.00  0.00    +0.000 N 
ATOM     11  C   UNL     1       5.004   5.710  16.636  0.00  0.00    +0.000 A 
ATOM     12  C   UNL     1       6.109   6.156  15.902  0.00  0.00    +0.000 A 
ATOM     13  C   UNL     1       6.858   5.244  15.158  0.00  0.00    +0.000 A 
ATOM     14  C   UNL     1       6.531   3.890  15.141  0.00  0.00    +0.000 A 
ATOM     15  C   UNL     1       5.447   3.433  15.888  0.00  0.00    +0.000 A 
ATOM     16  C   UNL     1       4.693   4.343  16.636  0.00  0.00    +0.000 A 
ATOM     17  C   UNL     1       3.530   3.879  17.430  0.00  0.00    +0.000 A 
ATOM     18  O   UNL     1       3.259   2.684  17.501  0.00  0.00    +0.000 OA
ATOM     19  H   UNL     1       4.383   7.590  17.282  0.00  0.00    +0.000 HD
BRANCH  13  20
ATOM     20  O   UNL     1       7.934   5.637  14.421  0.00  0.00    +0.000 OA
ATOM     21  H   UNL     1       7.864   6.587  14.235  0.00  0.00    +0.000 HD
ENDBRANCH  13  20
ENDBRANCH   1   9
BRANCH   4  22
ATOM     22  C   UNL     1       0.540  10.632  20.536  0.00  0.00    +0.000 A 
ATOM     23  C   UNL     1       1.007  11.921  20.236  0.00  0.00    +0.000 A 
ATOM     24  C   UNL     1       0.655  13.021  21.024  0.00  0.00    +0.000 A 
ATOM     25  C   UNL     1      -0.201  12.873  22.116  0.00  0.00    +0.000 A 
ATOM     26  C   UNL     1      -0.695  11.609  22.418  0.00  0.00    +0.000 A 
ATOM     27  C   UNL     1      -0.346  10.509  21.621  0.00  0.00    +0.000 A 
BRANCH  25  28
ATOM     28  O   UNL     1      -0.400  14.012  22.831  0.00  0.00    +0.000 OA
BRANCH  28  29
ATOM     29  C   UNL     1      -1.716  14.486  23.066  0.00  0.00    +0.000 C 
ATOM     30  F   UNL     1      -2.583  14.260  22.059  0.00  0.00    +0.000 F 
ATOM     31  F   UNL     1      -2.198  13.914  24.190  0.00  0.00    +0.000 F 
ATOM     32  F   UNL     1      -1.655  15.821  23.268  0.00  0.00    +0.000 F 
ENDBRANCH  28  29
ENDBRANCH  25  28
ENDBRANCH   4  22
TORSDOF 5
ENDMDL
MODEL 5
REMARK VINA RESULT:      -8.7      0.859      1.302
REMARK  Name = 
REMARK  6 active torsions:
REMARK  status: ('A' for Active; 'I' for Inactive)
REMARK    1  A    between atoms: C_1  and  C_2
REMARK    2  A    between atoms: C_3  and  C_4
REMARK    3  A    between atoms: C_7  and  C_8
REMARK    4  A    between atoms: C_11  and  O_12
REMARK    5  A    between atoms: O_12  and  C_13
REMARK    6  A    between atoms: C_24  and  O_25
REMARK                            x       y       z     vdW  Elec       q    Type
REMARK                         _______ _______ _______ _____ _____    ______ ____
ROOT
ATOM      1  C   UNL     1       2.482   7.263  18.978  0.00  0.00    +0.000 A 
ATOM      2  C   UNL     1       2.137   7.130  20.321  0.00  0.00    +0.000 A 
ATOM      3  C   UNL     1       1.400   8.137  20.941  0.00  0.00    +0.000 A 
ATOM      4  C   UNL     1       1.010   9.260  20.209  0.00  0.00    +0.000 A 
ATOM      5  N   UNL     1       1.378   9.422  18.911  0.00  0.00    +0.000 NA
ATOM      6  C   UNL     1       2.105   8.434  18.332  0.00  0.00    +0.000 A 
ENDROOT
BRANCH   1   9
ATOM      7  C   UNL     1       1.352   4.451  18.900  0.00  0.00    +0.000 C 
ATOM      8  C   UNL     1       2.613   4.923  18.240  0.00  0.00    +0.000 A 
ATOM      9  C   UNL     1       3.142   6.161  18.268  0.00  0.00    +0.000 A 
ATOM     10  N   UNL     1       4.304   6.516  17.609  0.00  0.00    +0.000 N 
ATOM     11  C   UNL     1       4.945   5.639  16.728  0.00  0.00    +0.000 A 
ATOM     12  C   UNL     1       6.057   6.046  15.980  0.00  0.00    +0.000 A 
ATOM     13  C   UNL     1       6.685   5.139  15.127  0.00  0.00    +0.000 A 
ATOM     14  C   UNL     1       6.232   3.827  15.013  0.00  0.00    +0.000 A 
ATOM     15  C   UNL     1       5.141   3.406  15.771  0.00  0.00    +0.000 A 
ATOM     16  C   UNL     1       4.507   4.311  16.628  0.00  0.00    +0.000 A 
ATOM     17  C   UNL     1       3.338   3.886  17.435  0.00  0.00    +0.000 A 
ATOM     18  O   UNL     1       2.960   2.719  17.419  0.00  0.00    +0.000 OA
ATOM     19  H   UNL     1       4.531   7.503  17.558  0.00  0.00    +0.000 HD
BRANCH  13  20
ATOM     20  O   UNL     1       7.763   5.497  14.375  0.00  0.00    +0.000 OA
ATOM     21  H   UNL     1       7.835   4.900  13.613  0.00  0.00    +0.000 HD
ENDBRANCH  13  20
ENDBRANCH   1   9
BRANCH   4  22
ATOM     22  C   UNL     1       0.069  10.256  20.760  0.00  0.00    +0.000 A 
ATOM     23  C   UNL     1      -0.175  10.370  22.138  0.00  0.00    +0.000 A 
ATOM     24  C   UNL     1      -1.186  11.201  22.628  0.00  0.00    +0.000 A 
ATOM     25  C   UNL     1      -1.964  11.969  21.762  0.00  0.00    +0.000 A 
ATOM     26  C   UNL     1      -1.725  11.891  20.394  0.00  0.00    +0.000 A 
ATOM     27  C   UNL     1      -0.705  11.062  19.905  0.00  0.00    +0.000 A 
BRANCH  25  28
ATOM     28  O   UNL     1      -2.953  12.675  22.371  0.00  0.00    +0.000 OA
BRANCH  28  29
ATOM     29  C   UNL     1      -2.681  13.953  22.923  0.00  0.00    +0.000 C 
ATOM     30  F   UNL     1      -1.956  13.933  24.059  0.00  0.00    +0.000 F 
ATOM     31  F   UNL     1      -2.031  14.702  22.006  0.00  0.00    +0.000 F 
ATOM     32  F   UNL     1      -3.861  14.556  23.196  0.00  0.00    +0.000 F 
ENDBRANCH  28  29
ENDBRANCH  25  28
ENDBRANCH   4  22
TORSDOF 5
ENDMDL
MODEL 6
REMARK VINA RESULT:      -8.6      1.154      1.725
REMARK  Name = 
REMARK  6 active torsions:
REMARK  status: ('A' for Active; 'I' for Inactive)
REMARK    1  A    between atoms: C_1  and  C_2
REMARK    2  A    between atoms: C_3  and  C_4
REMARK    3  A    between atoms: C_7  and  C_8
REMARK    4  A    between atoms: C_11  and  O_12
REMARK    5  A    between atoms: O_12  and  C_13
REMARK    6  A    between atoms: C_24  and  O_25
REMARK                            x       y       z     vdW  Elec       q    Type
REMARK                         _______ _______ _______ _____ _____    ______ ____
ROOT
ATOM      1  C   UNL     1       1.958   7.866  19.680  0.00  0.00    +0.000 A 
ATOM      2  C   UNL     1       1.605   7.872  21.027  0.00  0.00    +0.000 A 
ATOM      3  C   UNL     1       0.858   8.933  21.534  0.00  0.00    +0.000 A 
ATOM      4  C   UNL     1       0.466   9.970  20.686  0.00  0.00    +0.000 A 
ATOM      5  N   UNL     1       0.842   9.998  19.380  0.00  0.00    +0.000 NA
ATOM      6  C   UNL     1       1.578   8.960  18.912  0.00  0.00    +0.000 A 
ENDROOT
BRANCH   1   9
ATOM      7  C   UNL     1       1.239   5.015  20.416  0.00  0.00    +0.000 C 
ATOM      8  C   UNL     1       2.283   5.443  19.429  0.00  0.00    +0.000 A 
ATOM      9  C   UNL     1       2.630   6.700  19.092  0.00  0.00    +0.000 A 
ATOM     10  N   UNL     1       3.594   7.005  18.150  0.00  0.00    +0.000 N 
ATOM     11  C   UNL     1       4.185   6.017  17.358  0.00  0.00    +0.000 A 
ATOM     12  C   UNL     1       5.078   6.347  16.331  0.00  0.00    +0.000 A 
ATOM     13  C   UNL     1       5.666   5.335  15.573  0.00  0.00    +0.000 A 
ATOM     14  C   UNL     1       5.388   3.994  15.828  0.00  0.00    +0.000 A 
ATOM     15  C   UNL     1       4.519   3.654  16.863  0.00  0.00    +0.000 A 
ATOM     16  C   UNL     1       3.927   4.665  17.626  0.00  0.00    +0.000 A 
ATOM     17  C   UNL     1       2.992   4.325  18.725  0.00  0.00    +0.000 A 
ATOM     18  O   UNL     1       2.785   3.154  19.028  0.00  0.00    +0.000 OA
ATOM     19  H   UNL     1       3.667   7.972  17.852  0.00  0.00    +0.000 HD
BRANCH  13  20
ATOM     20  O   UNL     1       6.531   5.614  14.559  0.00  0.00    +0.000 OA
ATOM     21  H   UNL     1       7.440   5.592  14.899  0.00  0.00    +0.000 HD
ENDBRANCH  13  20
ENDBRANCH   1   9
BRANCH   4  22
ATOM     22  C   UNL     1      -0.485  11.013  21.124  0.00  0.00    +0.000 A 
ATOM     23  C   UNL     1      -0.809  11.206  22.476  0.00  0.00    +0.000 A 
ATOM     24  C   UNL     1      -1.829  12.081  22.858  0.00  0.00    +0.000 A 
ATOM     25  C   UNL     1      -2.536  12.815  21.906  0.00  0.00    +0.000 A 
ATOM     26  C   UNL     1      -2.217  12.658  20.561  0.00  0.00    +0.000 A 
ATOM     27  C   UNL     1      -1.187  11.785  20.181  0.00  0.00    +0.000 A 
BRANCH  25  28
ATOM     28  O   UNL     1      -3.545  13.571  22.415  0.00  0.00    +0.000 OA
BRANCH  28  29
ATOM     29  C   UNL     1      -4.838  13.015  22.586  0.00  0.00    +0.000 C 
ATOM     30  F   UNL     1      -5.200  12.132  21.633  0.00  0.00    +0.000 F 
ATOM     31  F   UNL     1      -4.902  12.405  23.789  0.00  0.00    +0.000 F 
ATOM     32  F   UNL     1      -5.737  14.024  22.579  0.00  0.00    +0.000 F 
ENDBRANCH  28  29
ENDBRANCH  25  28
ENDBRANCH   4  22
TORSDOF 5
ENDMDL
MODEL 7
REMARK VINA RESULT:      -8.6      1.050      1.439
REMARK  Name = 
REMARK  6 active torsions:
REMARK  status: ('A' for Active; 'I' for Inactive)
REMARK    1  A    between atoms: C_1  and  C_2
REMARK    2  A    between atoms: C_3  and  C_4
REMARK    3  A    between atoms: C_7  and  C_8
REMARK    4  A    between atoms: C_11  and  O_12
REMARK    5  A    between atoms: O_12  and  C_13
REMARK    6  A    between atoms: C_24  and  O_25
REMARK                            x       y       z     vdW  Elec       q    Type
REMARK                         _______ _______ _______ _____ _____    ______ ____
ROOT
ATOM      1  C   UNL     1       1.975   7.728  19.670  0.00  0.00    +0.000 A 
ATOM      2  C   UNL     1       1.674   7.722  21.030  0.00  0.00    +0.000 A 
ATOM      3  C   UNL     1       0.893   8.746  21.562  0.00  0.00    +0.000 A 
ATOM      4  C   UNL     1       0.417   9.759  20.727  0.00  0.00    +0.000 A 
ATOM      5  N   UNL     1       0.742   9.800  19.408  0.00  0.00    +0.000 NA
ATOM      6  C   UNL     1       1.512   8.798  18.915  0.00  0.00    +0.000 A 
ENDROOT
BRANCH   1   9
ATOM      7  C   UNL     1       1.334   4.842  20.339  0.00  0.00    +0.000 C 
ATOM      8  C   UNL     1       2.371   5.322  19.368  0.00  0.00    +0.000 A 
ATOM      9  C   UNL     1       2.683   6.595  19.061  0.00  0.00    +0.000 A 
ATOM     10  N   UNL     1       3.643   6.950  18.132  0.00  0.00    +0.000 N 
ATOM     11  C   UNL     1       4.266   5.996  17.320  0.00  0.00    +0.000 A 
ATOM     12  C   UNL     1       5.154   6.375  16.306  0.00  0.00    +0.000 A 
ATOM     13  C   UNL     1       5.774   5.397  15.530  0.00  0.00    +0.000 A 
ATOM     14  C   UNL     1       5.534   4.043  15.752  0.00  0.00    +0.000 A 
ATOM     15  C   UNL     1       4.670   3.655  16.775  0.00  0.00    +0.000 A 
ATOM     16  C   UNL     1       4.045   4.632  17.557  0.00  0.00    +0.000 A 
ATOM     17  C   UNL     1       3.115   4.241  18.643  0.00  0.00    +0.000 A 
ATOM     18  O   UNL     1       2.939   3.057  18.918  0.00  0.00    +0.000 OA
ATOM     19  H   UNL     1       3.690   7.925  17.855  0.00  0.00    +0.000 HD
BRANCH  13  20
ATOM     20  O   UNL     1       6.636   5.723  14.527  0.00  0.00    +0.000 OA
ATOM     21  H   UNL     1       6.207   5.564  13.671  0.00  0.00    +0.000 HD
ENDBRANCH  13  20
ENDBRANCH   1   9
BRANCH   4  22
ATOM     22  C   UNL     1      -0.569  10.754  21.198  0.00  0.00    +0.000 A 
ATOM     23  C   UNL     1      -1.205  11.645  20.320  0.00  0.00    +0.000 A 
ATOM     24  C   UNL     1      -2.007  12.685  20.800  0.00  0.00    +0.000 A 
ATOM     25  C   UNL     1      -2.225  12.847  22.168  0.00  0.00    +0.000 A 
ATOM     26  C   UNL     1      -1.624  11.961  23.055  0.00  0.00    +0.000 A 
ATOM     27  C   UNL     1      -0.826  10.914  22.571  0.00  0.00    +0.000 A 
BRANCH  25  28
ATOM     28  O   UNL     1      -2.967  13.939  22.492  0.00  0.00    +0.000 OA
BRANCH  28  29
ATOM     29  C   UNL     1      -4.265  13.782  23.043  0.00  0.00    +0.000 C 
ATOM     30  F   UNL     1      -5.101  14.814  22.813  0.00  0.00    +0.000 F 
ATOM     31  F   UNL     1      -4.821  12.654  22.552  0.00  0.00    +0.000 F 
ATOM     32  F   UNL     1      -4.142  13.639  24.382  0.00  0.00    +0.000 F 
ENDBRANCH  28  29
ENDBRANCH  25  28
ENDBRANCH   4  22
TORSDOF 5
ENDMDL
MODEL 8
REMARK VINA RESULT:      -8.6      1.287      1.738
REMARK  Name = 
REMARK  6 active torsions:
REMARK  status: ('A' for Active; 'I' for Inactive)
REMARK    1  A    between atoms: C_1  and  C_2
REMARK    2  A    between atoms: C_3  and  C_4
REMARK    3  A    between atoms: C_7  and  C_8
REMARK    4  A    between atoms: C_11  and  O_12
REMARK    5  A    between atoms: O_12  and  C_13
REMARK    6  A    between atoms: C_24  and  O_25
REMARK                            x       y       z     vdW  Elec       q    Type
REMARK                         _______ _______ _______ _____ _____    ______ ____
ROOT
ATOM      1  C   UNL     1       1.941   7.778  19.804  0.00  0.00    +0.000 A 
ATOM      2  C   UNL     1       1.716   7.795  21.178  0.00  0.00    +0.000 A 
ATOM      3  C   UNL     1       0.953   8.819  21.734  0.00  0.00    +0.000 A 
ATOM      4  C   UNL     1       0.418   9.810  20.908  0.00  0.00    +0.000 A 
ATOM      5  N   UNL     1       0.668   9.830  19.573  0.00  0.00    +0.000 NA
ATOM      6  C   UNL     1       1.422   8.828  19.056  0.00  0.00    +0.000 A 
ENDROOT
BRANCH   1   9
ATOM      7  C   UNL     1       1.282   4.894  20.464  0.00  0.00    +0.000 C 
ATOM      8  C   UNL     1       2.308   5.370  19.481  0.00  0.00    +0.000 A 
ATOM      9  C   UNL     1       2.628   6.642  19.177  0.00  0.00    +0.000 A 
ATOM     10  N   UNL     1       3.577   6.993  18.235  0.00  0.00    +0.000 N 
ATOM     11  C   UNL     1       4.178   6.038  17.408  0.00  0.00    +0.000 A 
ATOM     12  C   UNL     1       5.054   6.415  16.383  0.00  0.00    +0.000 A 
ATOM     13  C   UNL     1       5.653   5.435  15.591  0.00  0.00    +0.000 A 
ATOM     14  C   UNL     1       5.403   4.083  15.809  0.00  0.00    +0.000 A 
ATOM     15  C   UNL     1       4.551   3.697  16.843  0.00  0.00    +0.000 A 
ATOM     16  C   UNL     1       3.948   4.675  17.640  0.00  0.00    +0.000 A 
ATOM     17  C   UNL     1       3.030   4.286  18.738  0.00  0.00    +0.000 A 
ATOM     18  O   UNL     1       2.848   3.103  19.009  0.00  0.00    +0.000 OA
ATOM     19  H   UNL     1       3.629   7.969  17.964  0.00  0.00    +0.000 HD
BRANCH  13  20
ATOM     20  O   UNL     1       6.503   5.759  14.578  0.00  0.00    +0.000 OA
ATOM     21  H   UNL     1       5.993   5.893  13.763  0.00  0.00    +0.000 HD
ENDBRANCH  13  20
ENDBRANCH   1   9
BRANCH   4  22
ATOM     22  C   UNL     1      -0.553  10.802  21.415  0.00  0.00    +0.000 A 
ATOM     23  C   UNL     1      -0.950  10.836  22.761  0.00  0.00    +0.000 A 
ATOM     24  C   UNL     1      -1.988  11.668  23.189  0.00  0.00    +0.000 A 
ATOM     25  C   UNL     1      -2.639  12.518  22.294  0.00  0.00    +0.000 A 
ATOM     26  C   UNL     1      -2.247  12.518  20.960  0.00  0.00    +0.000 A 
ATOM     27  C   UNL     1      -1.200  11.687  20.534  0.00  0.00    +0.000 A 
BRANCH  25  28
ATOM     28  O   UNL     1      -3.671  13.217  22.834  0.00  0.00    +0.000 OA
BRANCH  28  29
ATOM     29  C   UNL     1      -3.417  14.322  23.686  0.00  0.00    +0.000 C 
ATOM     30  F   UNL     1      -3.386  14.023  25.000  0.00  0.00    +0.000 F 
ATOM     31  F   UNL     1      -2.238  14.885  23.342  0.00  0.00    +0.000 F 
ATOM     32  F   UNL     1      -4.391  15.239  23.493  0.00  0.00    +0.000 F 
ENDBRANCH  28  29
ENDBRANCH  25  28
ENDBRANCH   4  22
TORSDOF 5
ENDMDL
MODEL 9
REMARK VINA RESULT:      -8.6      1.148      1.522
REMARK  Name = 
REMARK  6 active torsions:
REMARK  status: ('A' for Active; 'I' for Inactive)
REMARK    1  A    between atoms: C_1  and  C_2
REMARK    2  A    between atoms: C_3  and  C_4
REMARK    3  A    between atoms: C_7  and  C_8
REMARK    4  A    between atoms: C_11  and  O_12
REMARK    5  A    between atoms: O_12  and  C_13
REMARK    6  A    between atoms: C_24  and  O_25
REMARK                            x       y       z     vdW  Elec       q    Type
REMARK                         _______ _______ _______ _____ _____    ______ ____
ROOT
ATOM      1  C   UNL     1       2.280   7.783  18.746  0.00  0.00    +0.000 A 
ATOM      2  C   UNL     1       1.889   7.881  20.079  0.00  0.00    +0.000 A 
ATOM      3  C   UNL     1       1.088   8.948  20.480  0.00  0.00    +0.000 A 
ATOM      4  C   UNL     1       0.681   9.898  19.542  0.00  0.00    +0.000 A 
ATOM      5  N   UNL     1       1.093   9.838  18.249  0.00  0.00    +0.000 NA
ATOM      6  C   UNL     1       1.881   8.796  17.884  0.00  0.00    +0.000 A 
ENDROOT
BRANCH   1   9
ATOM      7  C   UNL     1       1.416   4.949  19.387  0.00  0.00    +0.000 C 
ATOM      8  C   UNL     1       2.600   5.354  18.562  0.00  0.00    +0.000 A 
ATOM      9  C   UNL     1       3.012   6.602  18.272  0.00  0.00    +0.000 A 
ATOM     10  N   UNL     1       4.109   6.885  17.480  0.00  0.00    +0.000 N 
ATOM     11  C   UNL     1       4.795   5.881  16.789  0.00  0.00    +0.000 A 
ATOM     12  C   UNL     1       5.834   6.190  15.903  0.00  0.00    +0.000 A 
ATOM     13  C   UNL     1       6.510   5.162  15.247  0.00  0.00    +0.000 A 
ATOM     14  C   UNL     1       6.178   3.827  15.466  0.00  0.00    +0.000 A 
ATOM     15  C   UNL     1       5.161   3.509  16.364  0.00  0.00    +0.000 A 
ATOM     16  C   UNL     1       4.479   4.535  17.025  0.00  0.00    +0.000 A 
ATOM     17  C   UNL     1       3.387   4.219  17.977  0.00  0.00    +0.000 A 
ATOM     18  O   UNL     1       3.119   3.053  18.254  0.00  0.00    +0.000 OA
ATOM     19  H   UNL     1       4.241   7.848  17.190  0.00  0.00    +0.000 HD
BRANCH  13  20
ATOM     20  O   UNL     1       7.520   5.419  14.369  0.00  0.00    +0.000 OA
ATOM     21  H   UNL     1       7.220   5.221  13.468  0.00  0.00    +0.000 HD
ENDBRANCH  13  20
ENDBRANCH   1   9
BRANCH   4  22
ATOM     22  C   UNL     1      -0.321  10.933  19.871  0.00  0.00    +0.000 A 
ATOM     23  C   UNL     1      -0.277  11.660  21.071  0.00  0.00    +0.000 A 
ATOM     24  C   UNL     1      -1.320  12.514  21.439  0.00  0.00    +0.000 A 
ATOM     25  C   UNL     1      -2.424  12.695  20.607  0.00  0.00    +0.000 A 
ATOM     26  C   UNL     1      -2.480  12.003  19.402  0.00  0.00    +0.000 A 
ATOM     27  C   UNL     1      -1.428  11.153  19.031  0.00  0.00    +0.000 A 
BRANCH  25  28
ATOM     28  O   UNL     1      -3.391  13.498  21.124  0.00  0.00    +0.000 OA
BRANCH  28  29
ATOM     29  C   UNL     1      -4.430  12.946  21.915  0.00  0.00    +0.000 C 
ATOM     30  F   UNL     1      -4.008  12.248  22.989  0.00  0.00    +0.000 F 
ATOM     31  F   UNL     1      -5.243  13.939  22.336  0.00  0.00    +0.000 F 
ATOM     32  F   UNL     1      -5.157  12.111  21.139  0.00  0.00    +0.000 F 
ENDBRANCH  28  29
ENDBRANCH  25  28
ENDBRANCH   4  22
TORSDOF 5
ENDMDL
