MODEL 1
REMARK VINA RESULT:      -8.4      0.000      0.000
REMARK  Name = 
REMARK  5 active torsions:
REMARK  status: ('A' for Active; 'I' for Inactive)
REMARK    1  A    between atoms: C_1  and  C_2
REMARK    2  A    between atoms: C_2  and  C_3
REMARK    3  A    between atoms: C_2  and  N_15
REMARK    4  A    between atoms: N_11  and  C_12
REMARK    5  A    between atoms: C_18  and  C_19
REMARK                            x       y       z     vdW  Elec       q    Type
REMARK                         _______ _______ _______ _____ _____    ______ ____
ROOT
ATOM      1  N   UNL     1       4.401   6.339  18.589  0.00  0.00    +0.000 NA
ATOM      2  C   UNL     1       4.856   4.941  18.543  0.00  0.00    +0.000 C 
ATOM      3  C   UNL     1       6.372   4.757  18.582  0.00  0.00    +0.000 C 
ATOM      4  C   UNL     1       7.101   5.634  17.564  0.00  0.00    +0.000 C 
ATOM      5  C   UNL     1       6.694   7.084  17.802  0.00  0.00    +0.000 C 
ATOM      6  C   UNL     1       5.181   7.288  17.774  0.00  0.00    +0.000 C 
ENDROOT
BRANCH   4   7
ATOM      7  C   UNL     1       6.929   5.160  16.131  0.00  0.00    +0.000 A 
ATOM      8  N   UNL     1       7.632   5.530  15.085  0.00  0.00    +0.000 NA
ATOM      9  C   UNL     1       7.193   4.856  13.939  0.00  0.00    +0.000 A 
ATOM     10  C   UNL     1       7.700   4.980  12.622  0.00  0.00    +0.000 A 
ATOM     11  C   UNL     1       7.136   4.231  11.575  0.00  0.00    +0.000 A 
ATOM     12  C   UNL     1       6.087   3.359  11.824  0.00  0.00    +0.000 A 
ATOM     13  C   UNL     1       5.569   3.214  13.116  0.00  0.00    +0.000 A 
ATOM     14  C   UNL     1       6.135   3.970  14.149  0.00  0.00    +0.000 A 
ATOM     15  S   UNL     1       5.700   3.998  15.808  0.00  0.00    +0.000 S 
ENDBRANCH   4   7
BRANCH   1  17
ATOM     16  C   UNL     1       2.186   5.125  18.176  0.00  0.00    +0.000 C 
ATOM     17  C   UNL     1       2.943   6.476  18.287  0.00  0.00    +0.000 C 
BRANCH  17  18
ATOM     18  C   UNL     1       2.239   7.427  19.252  0.00  0.00    +0.000 A 
ATOM     19  N   UNL     1       1.974   7.148  20.519  0.00  0.00    +0.000 NA
ATOM     20  C   UNL     1       1.255   8.204  21.011  0.00  0.00    +0.000 A 
ATOM     21  C   UNL     1       0.712   8.395  22.291  0.00  0.00    +0.000 A 
ATOM     22  C   UNL     1       0.009   9.575  22.564  0.00  0.00    +0.000 A 
ATOM     23  C   UNL     1      -0.155  10.547  21.577  0.00  0.00    +0.000 A 
ATOM     24  C   UNL     1       0.370  10.366  20.292  0.00  0.00    +0.000 A 
ATOM     25  C   UNL     1       1.077   9.180  20.039  0.00  0.00    +0.000 A 
ATOM     26  N   UNL     1       1.724   8.674  18.927  0.00  0.00    +0.000 N 
BRANCH  26  27
ATOM     27  C   UNL     1       1.806   9.354  17.650  0.00  0.00    +0.000 C 
ATOM     28  F   UNL     1       0.564   9.592  17.145  0.00  0.00    +0.000 F 
ATOM     29  F   UNL     1       2.406  10.575  17.763  0.00  0.00    +0.000 F 
ENDBRANCH  26  27
ENDBRANCH  17  18
ENDBRANCH   1  17
TORSDOF 4
ENDMDL
MODEL 2
REMARK VINA RESULT:      -8.0      1.680      2.137
REMARK  Name = 
REMARK  5 active torsions:
REMARK  status: ('A' for Active; 'I' for Inactive)
REMARK    1  A    between atoms: C_1  and  C_2
REMARK    2  A    between atoms: C_2  and  C_3
REMARK    3  A    between atoms: C_2  and  N_15
REMARK    4  A    between atoms: N_11  and  C_12
REMARK    5  A    between atoms: C_18  and  C_19
REMARK                            x       y       z     vdW  Elec       q    Type
REMARK                         _______ _______ _______ _____ _____    ______ ____
ROOT
ATOM      1  N   UNL     1       4.275   6.053  18.385  0.00  0.00    +0.000 NA
ATOM      2  C   UNL     1       4.700   4.651  18.261  0.00  0.00    +0.000 C 
ATOM      3  C   UNL     1       6.205   4.423  18.387  0.00  0.00    +0.000 C 
ATOM      4  C   UNL     1       7.022   5.353  17.492  0.00  0.00    +0.000 C 
ATOM      5  C   UNL     1       6.632   6.791  17.814  0.00  0.00    +0.000 C 
ATOM      6  C   UNL     1       5.130   7.039  17.701  0.00  0.00    +0.000 C 
ENDROOT
BRANCH   4   7
ATOM      7  C   UNL     1       6.938   4.996  16.017  0.00  0.00    +0.000 A 
ATOM      8  N   UNL     1       7.633   5.521  15.035  0.00  0.00    +0.000 NA
ATOM      9  C   UNL     1       7.295   4.914  13.819  0.00  0.00    +0.000 A 
ATOM     10  C   UNL     1       7.826   5.202  12.538  0.00  0.00    +0.000 A 
ATOM     11  C   UNL     1       7.368   4.500  11.410  0.00  0.00    +0.000 A 
ATOM     12  C   UNL     1       6.401   3.514  11.543  0.00  0.00    +0.000 A 
ATOM     13  C   UNL     1       5.862   3.207  12.797  0.00  0.00    +0.000 A 
ATOM     14  C   UNL     1       6.322   3.917  13.913  0.00  0.00    +0.000 A 
ATOM     15  S   UNL     1       5.837   3.757  15.550  0.00  0.00    +0.000 S 
ENDBRANCH   4   7
BRANCH   1  17
ATOM     16  C   UNL     1       2.022   4.940  17.895  0.00  0.00    +0.000 C 
ATOM     17  C   UNL     1       2.845   6.254  17.998  0.00  0.00    +0.000 C 
BRANCH  17  18
ATOM     18  C   UNL     1       2.142   7.278  18.887  0.00  0.00    +0.000 A 
ATOM     19  N   UNL     1       1.896   8.530  18.537  0.00  0.00    +0.000 NA
ATOM     20  C   UNL     1       1.350   9.144  19.633  0.00  0.00    +0.000 A 
ATOM     21  C   UNL     1       0.932  10.474  19.795  0.00  0.00    +0.000 A 
ATOM     22  C   UNL     1       0.393  10.873  21.025  0.00  0.00    +0.000 A 
ATOM     23  C   UNL     1       0.278   9.965  22.077  0.00  0.00    +0.000 A 
ATOM     24  C   UNL     1       0.702   8.638  21.935  0.00  0.00    +0.000 A 
ATOM     25  C   UNL     1       1.233   8.255  20.693  0.00  0.00    +0.000 A 
ATOM     26  N   UNL     1       1.730   7.064  20.195  0.00  0.00    +0.000 N 
BRANCH  26  27
ATOM     27  C   UNL     1       1.811   5.832  20.953  0.00  0.00    +0.000 C 
ATOM     28  F   UNL     1       0.889   4.932  20.515  0.00  0.00    +0.000 F 
ATOM     29  F   UNL     1       3.026   5.226  20.808  0.00  0.00    +0.000 F 
ENDBRANCH  26  27
ENDBRANCH  17  18
ENDBRANCH   1  17
TORSDOF 4
ENDMDL
MODEL 3
REMARK VINA RESULT:      -7.9      4.703     10.243
REMARK  Name = 
REMARK  5 active torsions:
REMARK  status: ('A' for Active; 'I' for Inactive)
REMARK    1  A    between atoms: C_1  and  C_2
REMARK    2  A    between atoms: C_2  and  C_3
REMARK    3  A    between atoms: C_2  and  N_15
REMARK    4  A    between atoms: N_11  and  C_12
REMARK    5  A    between atoms: C_18  and  C_19
REMARK                            x       y       z     vdW  Elec       q    Type
REMARK                         _______ _______ _______ _____ _____    ______ ____
ROOT
ATOM      1  N   UNL     1       0.712  10.305  19.908  0.00  0.00    +0.000 NA
ATOM      2  C   UNL     1      -0.620   9.839  19.490  0.00  0.00    +0.000 C 
ATOM      3  C   UNL     1      -1.397  10.819  18.613  0.00  0.00    +0.000 C 
ATOM      4  C   UNL     1      -1.437  12.231  19.196  0.00  0.00    +0.000 C 
ATOM      5  C   UNL     1      -0.004  12.691  19.436  0.00  0.00    +0.000 C 
ATOM      6  C   UNL     1       0.793  11.721  20.305  0.00  0.00    +0.000 C 
ENDROOT
BRANCH   4   7
ATOM      7  C   UNL     1      -2.348  12.356  20.406  0.00  0.00    +0.000 A 
ATOM      8  N   UNL     1      -2.020  12.182  21.665  0.00  0.00    +0.000 NA
ATOM      9  C   UNL     1      -3.126  12.411  22.493  0.00  0.00    +0.000 A 
ATOM     10  C   UNL     1      -3.173  12.326  23.907  0.00  0.00    +0.000 A 
ATOM     11  C   UNL     1      -4.375  12.580  24.589  0.00  0.00    +0.000 A 
ATOM     12  C   UNL     1      -5.520  12.925  23.887  0.00  0.00    +0.000 A 
ATOM     13  C   UNL     1      -5.501  13.020  22.491  0.00  0.00    +0.000 A 
ATOM     14  C   UNL     1      -4.299  12.758  21.822  0.00  0.00    +0.000 A 
ATOM     15  S   UNL     1      -3.992  12.793  20.135  0.00  0.00    +0.000 S 
ENDBRANCH   4   7
BRANCH   1  17
ATOM     16  C   UNL     1       0.550   9.450  22.315  0.00  0.00    +0.000 C 
ATOM     17  C   UNL     1       1.316   9.437  20.964  0.00  0.00    +0.000 C 
BRANCH  17  18
ATOM     18  C   UNL     1       1.551   8.009  20.475  0.00  0.00    +0.000 A 
ATOM     19  N   UNL     1       1.270   6.922  21.176  0.00  0.00    +0.000 NA
ATOM     20  C   UNL     1       1.714   5.855  20.440  0.00  0.00    +0.000 A 
ATOM     21  C   UNL     1       1.677   4.485  20.742  0.00  0.00    +0.000 A 
ATOM     22  C   UNL     1       2.196   3.570  19.818  0.00  0.00    +0.000 A 
ATOM     23  C   UNL     1       2.748   4.011  18.616  0.00  0.00    +0.000 A 
ATOM     24  C   UNL     1       2.803   5.375  18.305  0.00  0.00    +0.000 A 
ATOM     25  C   UNL     1       2.272   6.277  19.241  0.00  0.00    +0.000 A 
ATOM     26  N   UNL     1       2.147   7.654  19.273  0.00  0.00    +0.000 N 
BRANCH  26  27
ATOM     27  C   UNL     1       2.596   8.541  18.219  0.00  0.00    +0.000 C 
ATOM     28  F   UNL     1       3.681   8.024  17.579  0.00  0.00    +0.000 F 
ATOM     29  F   UNL     1       1.640   8.712  17.259  0.00  0.00    +0.000 F 
ENDBRANCH  26  27
ENDBRANCH  17  18
ENDBRANCH   1  17
TORSDOF 4
ENDMDL
MODEL 4
REMARK VINA RESULT:      -7.4      8.192     11.297
REMARK  Name = 
REMARK  5 active torsions:
REMARK  status: ('A' for Active; 'I' for Inactive)
REMARK    1  A    between atoms: C_1  and  C_2
REMARK    2  A    between atoms: C_2  and  C_3
REMARK    3  A    between atoms: C_2  and  N_15
REMARK    4  A    between atoms: N_11  and  C_12
REMARK    5  A    between atoms: C_18  and  C_19
REMARK                            x       y       z     vdW  Elec       q    Type
REMARK                         _______ _______ _______ _____ _____    ______ ____
ROOT
ATOM      1  N   UNL     1      -7.325  12.438  20.176  0.00  0.00    +0.000 NA
ATOM      2  C   UNL     1      -6.681  13.273  19.150  0.00  0.00    +0.000 C 
ATOM      3  C   UNL     1      -6.561  12.620  17.774  0.00  0.00    +0.000 C 
ATOM      4  C   UNL     1      -5.960  11.217  17.835  0.00  0.00    +0.000 C 
ATOM      5  C   UNL     1      -6.797  10.378  18.794  0.00  0.00    +0.000 C 
ATOM      6  C   UNL     1      -6.936  11.017  20.174  0.00  0.00    +0.000 C 
ENDROOT
BRANCH   4   7
ATOM      7  C   UNL     1      -4.470  11.214  18.134  0.00  0.00    +0.000 A 
ATOM      8  N   UNL     1      -3.820  12.037  18.924  0.00  0.00    +0.000 NA
ATOM      9  C   UNL     1      -2.460  11.701  18.965  0.00  0.00    +0.000 A 
ATOM     10  C   UNL     1      -1.438  12.346  19.703  0.00  0.00    +0.000 A 
ATOM     11  C   UNL     1      -0.113  11.884  19.626  0.00  0.00    +0.000 A 
ATOM     12  C   UNL     1       0.202  10.788  18.836  0.00  0.00    +0.000 A 
ATOM     13  C   UNL     1      -0.789  10.129  18.100  0.00  0.00    +0.000 A 
ATOM     14  C   UNL     1      -2.104  10.603  18.180  0.00  0.00    +0.000 A 
ATOM     15  S   UNL     1      -3.502  10.000  17.389  0.00  0.00    +0.000 S 
ENDBRANCH   4   7
BRANCH   1  17
ATOM     16  C   UNL     1      -7.916  12.201  22.655  0.00  0.00    +0.000 C 
ATOM     17  C   UNL     1      -7.185  13.010  21.550  0.00  0.00    +0.000 C 
BRANCH  17  18
ATOM     18  C   UNL     1      -5.726  13.265  21.924  0.00  0.00    +0.000 A 
ATOM     19  N   UNL     1      -4.884  12.330  22.334  0.00  0.00    +0.000 NA
ATOM     20  C   UNL     1      -3.718  12.968  22.662  0.00  0.00    +0.000 A 
ATOM     21  C   UNL     1      -2.521  12.438  23.168  0.00  0.00    +0.000 A 
ATOM     22  C   UNL     1      -1.449  13.301  23.426  0.00  0.00    +0.000 A 
ATOM     23  C   UNL     1      -1.567  14.670  23.189  0.00  0.00    +0.000 A 
ATOM     24  C   UNL     1      -2.758  15.217  22.696  0.00  0.00    +0.000 A 
ATOM     25  C   UNL     1      -3.820  14.335  22.438  0.00  0.00    +0.000 A 
ATOM     26  N   UNL     1      -5.104  14.505  21.953  0.00  0.00    +0.000 N 
BRANCH  26  27
ATOM     27  C   UNL     1      -5.672  15.783  21.574  0.00  0.00    +0.000 C 
ATOM     28  F   UNL     1      -5.629  16.661  22.613  0.00  0.00    +0.000 F 
ATOM     29  F   UNL     1      -4.970  16.368  20.558  0.00  0.00    +0.000 F 
ENDBRANCH  26  27
ENDBRANCH  17  18
ENDBRANCH   1  17
TORSDOF 4
ENDMDL
MODEL 5
REMARK VINA RESULT:      -7.4      8.160     11.201
REMARK  Name = 
REMARK  5 active torsions:
REMARK  status: ('A' for Active; 'I' for Inactive)
REMARK    1  A    between atoms: C_1  and  C_2
REMARK    2  A    between atoms: C_2  and  C_3
REMARK    3  A    between atoms: C_2  and  N_15
REMARK    4  A    between atoms: N_11  and  C_12
REMARK    5  A    between atoms: C_18  and  C_19
REMARK                            x       y       z     vdW  Elec       q    Type
REMARK                         _______ _______ _______ _____ _____    ______ ____
ROOT
ATOM      1  N   UNL     1      -5.380  13.950  21.956  0.00  0.00    +0.000 NA
ATOM      2  C   UNL     1      -5.287  12.754  22.808  0.00  0.00    +0.000 C 
ATOM      3  C   UNL     1      -4.510  12.950  24.108  0.00  0.00    +0.000 C 
ATOM      4  C   UNL     1      -3.148  13.608  23.890  0.00  0.00    +0.000 C 
ATOM      5  C   UNL     1      -3.364  14.923  23.149  0.00  0.00    +0.000 C 
ATOM      6  C   UNL     1      -4.147  14.750  21.849  0.00  0.00    +0.000 C 
ENDROOT
BRANCH   4   7
ATOM      7  C   UNL     1      -2.130  12.683  23.244  0.00  0.00    +0.000 A 
ATOM      8  N   UNL     1      -2.051  11.379  23.375  0.00  0.00    +0.000 NA
ATOM      9  C   UNL     1      -0.995  10.875  22.604  0.00  0.00    +0.000 A 
ATOM     10  C   UNL     1      -0.592   9.523  22.479  0.00  0.00    +0.000 A 
ATOM     11  C   UNL     1       0.502   9.186  21.664  0.00  0.00    +0.000 A 
ATOM     12  C   UNL     1       1.189  10.171  20.970  0.00  0.00    +0.000 A 
ATOM     13  C   UNL     1       0.810  11.514  21.073  0.00  0.00    +0.000 A 
ATOM     14  C   UNL     1      -0.278  11.838  21.892  0.00  0.00    +0.000 A 
ATOM     15  S   UNL     1      -0.949  13.385  22.206  0.00  0.00    +0.000 S 
ENDBRANCH   4   7
BRANCH   1  17
ATOM     16  C   UNL     1      -6.283  14.897  19.756  0.00  0.00    +0.000 C 
ATOM     17  C   UNL     1      -5.915  13.642  20.595  0.00  0.00    +0.000 C 
BRANCH  17  18
ATOM     18  C   UNL     1      -5.001  12.702  19.813  0.00  0.00    +0.000 A 
ATOM     19  N   UNL     1      -3.679  12.722  19.871  0.00  0.00    +0.000 NA
ATOM     20  C   UNL     1      -3.232  11.803  18.959  0.00  0.00    +0.000 A 
ATOM     21  C   UNL     1      -1.917  11.453  18.616  0.00  0.00    +0.000 A 
ATOM     22  C   UNL     1      -1.706  10.469  17.642  0.00  0.00    +0.000 A 
ATOM     23  C   UNL     1      -2.786   9.846  17.018  0.00  0.00    +0.000 A 
ATOM     24  C   UNL     1      -4.104  10.192  17.341  0.00  0.00    +0.000 A 
ATOM     25  C   UNL     1      -4.295  11.177  18.323  0.00  0.00    +0.000 A 
ATOM     26  N   UNL     1      -5.418  11.753  18.889  0.00  0.00    +0.000 N 
BRANCH  26  27
ATOM     27  C   UNL     1      -6.780  11.409  18.535  0.00  0.00    +0.000 C 
ATOM     28  F   UNL     1      -7.532  11.190  19.648  0.00  0.00    +0.000 F 
ATOM     29  F   UNL     1      -7.398  12.422  17.857  0.00  0.00    +0.000 F 
ENDBRANCH  26  27
ENDBRANCH  17  18
ENDBRANCH   1  17
TORSDOF 4
ENDMDL
MODEL 6
REMARK VINA RESULT:      -7.4      5.012     11.100
REMARK  Name = 
REMARK  5 active torsions:
REMARK  status: ('A' for Active; 'I' for Inactive)
REMARK    1  A    between atoms: C_1  and  C_2
REMARK    2  A    between atoms: C_2  and  C_3
REMARK    3  A    between atoms: C_2  and  N_15
REMARK    4  A    between atoms: N_11  and  C_12
REMARK    5  A    between atoms: C_18  and  C_19
REMARK                            x       y       z     vdW  Elec       q    Type
REMARK                         _______ _______ _______ _____ _____    ______ ____
ROOT
ATOM      1  N   UNL     1       0.638  12.553  19.293  0.00  0.00    +0.000 NA
ATOM      2  C   UNL     1      -0.190  13.708  18.913  0.00  0.00    +0.000 C 
ATOM      3  C   UNL     1       0.471  15.069  19.124  0.00  0.00    +0.000 C 
ATOM      4  C   UNL     1       1.071  15.225  20.521  0.00  0.00    +0.000 C 
ATOM      5  C   UNL     1       2.044  14.074  20.755  0.00  0.00    +0.000 C 
ATOM      6  C   UNL     1       1.405  12.704  20.542  0.00  0.00    +0.000 C 
ENDROOT
BRANCH   4   7
ATOM      7  C   UNL     1       0.025  15.395  21.610  0.00  0.00    +0.000 A 
ATOM      8  N   UNL     1       0.100  14.975  22.851  0.00  0.00    +0.000 NA
ATOM      9  C   UNL     1      -1.050  15.343  23.561  0.00  0.00    +0.000 A 
ATOM     10  C   UNL     1      -1.342  15.077  24.921  0.00  0.00    +0.000 A 
ATOM     11  C   UNL     1      -2.555  15.513  25.480  0.00  0.00    +0.000 A 
ATOM     12  C   UNL     1      -3.470  16.215  24.709  0.00  0.00    +0.000 A 
ATOM     13  C   UNL     1      -3.206  16.495  23.364  0.00  0.00    +0.000 A 
ATOM     14  C   UNL     1      -1.996  16.050  22.817  0.00  0.00    +0.000 A 
ATOM     15  S   UNL     1      -1.420  16.243  21.213  0.00  0.00    +0.000 S 
ENDBRANCH   4   7
BRANCH   1  17
ATOM     16  C   UNL     1      -1.285  11.209  18.271  0.00  0.00    +0.000 C 
ATOM     17  C   UNL     1      -0.138  11.275  19.315  0.00  0.00    +0.000 C 
BRANCH  17  18
ATOM     18  C   UNL     1       0.766  10.048  19.223  0.00  0.00    +0.000 A 
ATOM     19  N   UNL     1       1.513   9.745  18.173  0.00  0.00    +0.000 NA
ATOM     20  C   UNL     1       2.090   8.531  18.439  0.00  0.00    +0.000 A 
ATOM     21  C   UNL     1       2.952   7.760  17.644  0.00  0.00    +0.000 A 
ATOM     22  C   UNL     1       3.422   6.537  18.139  0.00  0.00    +0.000 A 
ATOM     23  C   UNL     1       3.037   6.087  19.402  0.00  0.00    +0.000 A 
ATOM     24  C   UNL     1       2.169   6.840  20.202  0.00  0.00    +0.000 A 
ATOM     25  C   UNL     1       1.713   8.066  19.691  0.00  0.00    +0.000 A 
ATOM     26  N   UNL     1       0.878   9.052  20.184  0.00  0.00    +0.000 N 
BRANCH  26  27
ATOM     27  C   UNL     1       0.233   9.005  21.480  0.00  0.00    +0.000 C 
ATOM     28  F   UNL     1      -0.633   7.958  21.554  0.00  0.00    +0.000 F 
ATOM     29  F   UNL     1       1.135   8.819  22.489  0.00  0.00    +0.000 F 
ENDBRANCH  26  27
ENDBRANCH  17  18
ENDBRANCH   1  17
TORSDOF 4
ENDMDL
MODEL 7
REMARK VINA RESULT:      -7.4      4.691     10.267
REMARK  Name = 
REMARK  5 active torsions:
REMARK  status: ('A' for Active; 'I' for Inactive)
REMARK    1  A    between atoms: C_1  and  C_2
REMARK    2  A    between atoms: C_2  and  C_3
REMARK    3  A    between atoms: C_2  and  N_15
REMARK    4  A    between atoms: N_11  and  C_12
REMARK    5  A    between atoms: C_18  and  C_19
REMARK                            x       y       z     vdW  Elec       q    Type
REMARK                         _______ _______ _______ _____ _____    ______ ____
ROOT
ATOM      1  N   UNL     1       0.758  10.203  19.797  0.00  0.00    +0.000 NA
ATOM      2  C   UNL     1      -0.688   9.971  19.657  0.00  0.00    +0.000 C 
ATOM      3  C   UNL     1      -1.418  10.977  18.769  0.00  0.00    +0.000 C 
ATOM      4  C   UNL     1      -1.100  12.426  19.132  0.00  0.00    +0.000 C 
ATOM      5  C   UNL     1       0.412  12.612  19.084  0.00  0.00    +0.000 C 
ATOM      6  C   UNL     1       1.162  11.611  19.960  0.00  0.00    +0.000 C 
ENDROOT
BRANCH   4   7
ATOM      7  C   UNL     1      -1.747  12.876  20.432  0.00  0.00    +0.000 A 
ATOM      8  N   UNL     1      -2.283  12.111  21.355  0.00  0.00    +0.000 NA
ATOM      9  C   UNL     1      -2.754  12.890  22.420  0.00  0.00    +0.000 A 
ATOM     10  C   UNL     1      -3.391  12.435  23.601  0.00  0.00    +0.000 A 
ATOM     11  C   UNL     1      -3.813  13.357  24.574  0.00  0.00    +0.000 A 
ATOM     12  C   UNL     1      -3.602  14.716  24.391  0.00  0.00    +0.000 A 
ATOM     13  C   UNL     1      -2.973  15.192  23.236  0.00  0.00    +0.000 A 
ATOM     14  C   UNL     1      -2.561  14.264  22.271  0.00  0.00    +0.000 A 
ATOM     15  S   UNL     1      -1.781  14.564  20.773  0.00  0.00    +0.000 S 
ENDBRANCH   4   7
BRANCH   1  17
ATOM     16  C   UNL     1       0.617   9.410  22.226  0.00  0.00    +0.000 C 
ATOM     17  C   UNL     1       1.371   9.362  20.869  0.00  0.00    +0.000 C 
BRANCH  17  18
ATOM     18  C   UNL     1       1.601   7.922  20.415  0.00  0.00    +0.000 A 
ATOM     19  N   UNL     1       1.328   6.853  21.146  0.00  0.00    +0.000 NA
ATOM     20  C   UNL     1       1.765   5.768  20.434  0.00  0.00    +0.000 A 
ATOM     21  C   UNL     1       1.731   4.406  20.771  0.00  0.00    +0.000 A 
ATOM     22  C   UNL     1       2.241   3.467  19.866  0.00  0.00    +0.000 A 
ATOM     23  C   UNL     1       2.780   3.877  18.647  0.00  0.00    +0.000 A 
ATOM     24  C   UNL     1       2.831   5.234  18.300  0.00  0.00    +0.000 A 
ATOM     25  C   UNL     1       2.310   6.159  19.218  0.00  0.00    +0.000 A 
ATOM     26  N   UNL     1       2.185   7.536  19.216  0.00  0.00    +0.000 N 
BRANCH  26  27
ATOM     27  C   UNL     1       2.623   8.395  18.135  0.00  0.00    +0.000 C 
ATOM     28  F   UNL     1       3.642   7.820  17.440  0.00  0.00    +0.000 F 
ATOM     29  F   UNL     1       1.626   8.616  17.227  0.00  0.00    +0.000 F 
ENDBRANCH  26  27
ENDBRANCH  17  18
ENDBRANCH   1  17
TORSDOF 4
ENDMDL
MODEL 8
REMARK VINA RESULT:      -7.3      4.565     10.170
REMARK  Name = 
REMARK  5 active torsions:
REMARK  status: ('A' for Active; 'I' for Inactive)
REMARK    1  A    between atoms: C_1  and  C_2
REMARK    2  A    between atoms: C_2  and  C_3
REMARK    3  A    between atoms: C_2  and  N_15
REMARK    4  A    between atoms: N_11  and  C_12
REMARK    5  A    between atoms: C_18  and  C_19
REMARK                            x       y       z     vdW  Elec       q    Type
REMARK                         _______ _______ _______ _____ _____    ______ ____
ROOT
ATOM      1  N   UNL     1       0.788  10.171  19.851  0.00  0.00    +0.000 NA
ATOM      2  C   UNL     1      -0.561   9.795  19.399  0.00  0.00    +0.000 C 
ATOM      3  C   UNL     1      -1.237  10.811  18.481  0.00  0.00    +0.000 C 
ATOM      4  C   UNL     1      -1.192  12.233  19.036  0.00  0.00    +0.000 C 
ATOM      5  C   UNL     1       0.264  12.593  19.313  0.00  0.00    +0.000 C 
ATOM      6  C   UNL     1       0.961  11.585  20.225  0.00  0.00    +0.000 C 
ENDROOT
BRANCH   4   7
ATOM      7  C   UNL     1      -2.127  12.449  20.214  0.00  0.00    +0.000 A 
ATOM      8  N   UNL     1      -3.437  12.533  20.179  0.00  0.00    +0.000 NA
ATOM      9  C   UNL     1      -3.949  12.709  21.471  0.00  0.00    +0.000 A 
ATOM     10  C   UNL     1      -5.309  12.838  21.846  0.00  0.00    +0.000 A 
ATOM     11  C   UNL     1      -5.655  13.017  23.196  0.00  0.00    +0.000 A 
ATOM     12  C   UNL     1      -4.670  13.061  24.172  0.00  0.00    +0.000 A 
ATOM     13  C   UNL     1      -3.319  12.932  23.830  0.00  0.00    +0.000 A 
ATOM     14  C   UNL     1      -2.987  12.759  22.480  0.00  0.00    +0.000 A 
ATOM     15  S   UNL     1      -1.430  12.584  21.783  0.00  0.00    +0.000 S 
ENDBRANCH   4   7
BRANCH   1  17
ATOM     16  C   UNL     1       0.421   9.290  22.226  0.00  0.00    +0.000 C 
ATOM     17  C   UNL     1       1.294   9.283  20.941  0.00  0.00    +0.000 C 
BRANCH  17  18
ATOM     18  C   UNL     1       1.551   7.858  20.454  0.00  0.00    +0.000 A 
ATOM     19  N   UNL     1       1.257   6.767  21.143  0.00  0.00    +0.000 NA
ATOM     20  C   UNL     1       1.728   5.705  20.417  0.00  0.00    +0.000 A 
ATOM     21  C   UNL     1       1.691   4.334  20.714  0.00  0.00    +0.000 A 
ATOM     22  C   UNL     1       2.241   3.425  19.802  0.00  0.00    +0.000 A 
ATOM     23  C   UNL     1       2.823   3.873  18.616  0.00  0.00    +0.000 A 
ATOM     24  C   UNL     1       2.879   5.239  18.311  0.00  0.00    +0.000 A 
ATOM     25  C   UNL     1       2.317   6.135  19.235  0.00  0.00    +0.000 A 
ATOM     26  N   UNL     1       2.182   7.510  19.268  0.00  0.00    +0.000 N 
BRANCH  26  27
ATOM     27  C   UNL     1       2.656   8.403  18.229  0.00  0.00    +0.000 C 
ATOM     28  F   UNL     1       3.762   7.896  17.620  0.00  0.00    +0.000 F 
ATOM     29  F   UNL     1       1.726   8.570  17.242  0.00  0.00    +0.000 F 
ENDBRANCH  26  27
ENDBRANCH  17  18
ENDBRANCH   1  17
TORSDOF 4
ENDMDL
MODEL 9
REMARK VINA RESULT:      -7.3      8.383     11.350
REMARK  Name = 
REMARK  5 active torsions:
REMARK  status: ('A' for Active; 'I' for Inactive)
REMARK    1  A    between atoms: C_1  and  C_2
REMARK    2  A    between atoms: C_2  and  C_3
REMARK    3  A    between atoms: C_2  and  N_15
REMARK    4  A    between atoms: N_11  and  C_12
REMARK    5  A    between atoms: C_18  and  C_19
REMARK                            x       y       z     vdW  Elec       q    Type
REMARK                         _______ _______ _______ _____ _____    ______ ____
ROOT
ATOM      1  N   UNL     1      -3.807  13.903  22.921  0.00  0.00    +0.000 NA
ATOM      2  C   UNL     1      -3.540  12.459  23.015  0.00  0.00    +0.000 C 
ATOM      3  C   UNL     1      -2.069  12.069  22.884  0.00  0.00    +0.000 C 
ATOM      4  C   UNL     1      -1.395  12.702  21.667  0.00  0.00    +0.000 C 
ATOM      5  C   UNL     1      -1.581  14.213  21.748  0.00  0.00    +0.000 C 
ATOM      6  C   UNL     1      -3.045  14.624  21.887  0.00  0.00    +0.000 C 
ENDROOT
BRANCH   4   7
ATOM      7  C   UNL     1      -1.833  12.085  20.349  0.00  0.00    +0.000 A 
ATOM      8  N   UNL     1      -2.916  12.369  19.663  0.00  0.00    +0.000 NA
ATOM      9  C   UNL     1      -2.961  11.611  18.486  0.00  0.00    +0.000 A 
ATOM     10  C   UNL     1      -3.964  11.635  17.487  0.00  0.00    +0.000 A 
ATOM     11  C   UNL     1      -3.861  10.798  16.363  0.00  0.00    +0.000 A 
ATOM     12  C   UNL     1      -2.772   9.950  16.219  0.00  0.00    +0.000 A 
ATOM     13  C   UNL     1      -1.765   9.909  17.188  0.00  0.00    +0.000 A 
ATOM     14  C   UNL     1      -1.882  10.744  18.307  0.00  0.00    +0.000 A 
ATOM     15  S   UNL     1      -0.812  10.894  19.639  0.00  0.00    +0.000 S 
ENDBRANCH   4   7
BRANCH   1  17
ATOM     16  C   UNL     1      -5.742  15.412  23.650  0.00  0.00    +0.000 C 
ATOM     17  C   UNL     1      -5.265  14.207  22.794  0.00  0.00    +0.000 C 
BRANCH  17  18
ATOM     18  C   UNL     1      -5.700  14.356  21.338  0.00  0.00    +0.000 A 
ATOM     19  N   UNL     1      -5.647  15.487  20.652  0.00  0.00    +0.000 NA
ATOM     20  C   UNL     1      -6.213  15.233  19.431  0.00  0.00    +0.000 A 
ATOM     21  C   UNL     1      -6.421  16.099  18.346  0.00  0.00    +0.000 A 
ATOM     22  C   UNL     1      -7.024  15.601  17.184  0.00  0.00    +0.000 A 
ATOM     23  C   UNL     1      -7.418  14.266  17.105  0.00  0.00    +0.000 A 
ATOM     24  C   UNL     1      -7.228  13.393  18.183  0.00  0.00    +0.000 A 
ATOM     25  C   UNL     1      -6.616  13.908  19.337  0.00  0.00    +0.000 A 
ATOM     26  N   UNL     1      -6.269  13.359  20.557  0.00  0.00    +0.000 N 
BRANCH  26  27
ATOM     27  C   UNL     1      -6.498  11.976  20.927  0.00  0.00    +0.000 C 
ATOM     28  F   UNL     1      -7.827  11.730  21.086  0.00  0.00    +0.000 F 
ATOM     29  F   UNL     1      -6.070  11.115  19.958  0.00  0.00    +0.000 F 
ENDBRANCH  26  27
ENDBRANCH  17  18
ENDBRANCH   1  17
TORSDOF 4
ENDMDL
