MODEL 1
REMARK VINA RESULT:      -6.2      0.000      0.000
REMARK  Name = 
REMARK  13 active torsions:
REMARK  status: ('A' for Active; 'I' for Inactive)
REMARK    1  A    between atoms: C_1  and  C_2
REMARK    2  A    between atoms: C_2  and  C_3
REMARK    3  A    between atoms: C_3  and  C_4
REMARK    4  A    between atoms: C_4  and  N_5
REMARK    5  A    between atoms: N_5  and  C_6
REMARK    6  A    between atoms: N_5  and  C_8
REMARK    7  A    between atoms: C_6  and  C_7
REMARK    8  A    between atoms: C_10  and  C_11
REMARK    9  A    between atoms: N_17  and  C_18
REMARK   10  A    between atoms: C_22  and  O_23
REMARK   11  A    between atoms: O_23  and  C_24
REMARK   12  A    between atoms: C_26  and  O_27
REMARK   13  A    between atoms: O_27  and  C_28
REMARK                            x       y       z     vdW  Elec       q    Type
REMARK                         _______ _______ _______ _____ _____    ______ ____
ROOT
ATOM      1  C   UNL     1       1.739   7.703  20.183  0.00  0.00    +0.000 A 
ATOM      2  N   UNL     1       1.299   7.933  21.461  0.00  0.00    +0.000 NA
ATOM      3  C   UNL     1       0.803   9.143  21.803  0.00  0.00    +0.000 A 
ATOM      4  C   UNL     1       0.299   9.330  23.202  0.00  0.00    +0.000 C 
ATOM      5  N   UNL     1       0.683  10.203  20.996  0.00  0.00    +0.000 NA
ATOM      6  C   UNL     1       1.046   9.926  19.732  0.00  0.00    +0.000 A 
ATOM      7  C   UNL     1       1.592   8.758  19.261  0.00  0.00    +0.000 A 
ATOM      8  N   UNL     1       1.894   8.894  17.931  0.00  0.00    +0.000 NA
ATOM      9  N   UNL     1       1.567  10.131  17.564  0.00  0.00    +0.000 NA
ATOM     10  N   UNL     1       1.001  10.758  18.630  0.00  0.00    +0.000 N 
ENDROOT
BRANCH  10  11
ATOM     11  C   UNL     1       0.574  12.109  18.613  0.00  0.00    +0.000 A 
ATOM     12  C   UNL     1      -0.791  12.437  18.729  0.00  0.00    +0.000 A 
ATOM     13 BR   UNL     1      -2.226  11.238  18.339  0.00  0.00    +0.000 Br
ATOM     14  C   UNL     1      -1.174  13.754  18.985  0.00  0.00    +0.000 A 
ATOM     15  C   UNL     1      -0.225  14.769  19.045  0.00  0.00    +0.000 A 
ATOM     16  C   UNL     1       1.118  14.464  18.823  0.00  0.00    +0.000 A 
ATOM     17  C   UNL     1       1.538  13.138  18.638  0.00  0.00    +0.000 A 
BRANCH  15  18
ATOM     18  O   UNL     1      -0.727  16.011  19.312  0.00  0.00    +0.000 OA
ATOM     19  C   UNL     1      -0.422  17.039  18.379  0.00  0.00    +0.000 C 
ENDBRANCH  15  18
BRANCH  17  20
ATOM     20  O   UNL     1       2.860  12.796  18.535  0.00  0.00    +0.000 OA
ATOM     21  C   UNL     1       3.792  13.842  18.286  0.00  0.00    +0.000 C 
ENDBRANCH  17  20
ENDBRANCH  10  11
BRANCH   1  22
ATOM     22  N   UNL     1       2.254   6.449  19.849  0.00  0.00    +0.000 N 
BRANCH  22  23
ATOM     23  C   UNL     1       3.524   6.445  19.106  0.00  0.00    +0.000 C 
ATOM     24  C   UNL     1       4.421   5.250  19.423  0.00  0.00    +0.000 C 
ENDBRANCH  22  23
BRANCH  22  25
ATOM     25  C   UNL     1       1.979   5.341  20.768  0.00  0.00    +0.000 C 
BRANCH  25  26
ATOM     26  C   UNL     1       0.900   4.382  20.232  0.00  0.00    +0.000 C 
BRANCH  26  28
ATOM     27  C   UNL     1       1.831   2.607  21.747  0.00  0.00    +0.000 C 
ATOM     28  C   UNL     1       1.241   2.895  20.371  0.00  0.00    +0.000 C 
ENDBRANCH  26  28
ENDBRANCH  25  26
ENDBRANCH  22  25
ENDBRANCH   1  22
TORSDOF 8
ENDMDL
MODEL 2
REMARK VINA RESULT:      -5.9      0.707      1.673
REMARK  Name = 
REMARK  13 active torsions:
REMARK  status: ('A' for Active; 'I' for Inactive)
REMARK    1  A    between atoms: C_1  and  C_2
REMARK    2  A    between atoms: C_2  and  C_3
REMARK    3  A    between atoms: C_3  and  C_4
REMARK    4  A    between atoms: C_4  and  N_5
REMARK    5  A    between atoms: N_5  and  C_6
REMARK    6  A    between atoms: N_5  and  C_8
REMARK    7  A    between atoms: C_6  and  C_7
REMARK    8  A    between atoms: C_10  and  C_11
REMARK    9  A    between atoms: N_17  and  C_18
REMARK   10  A    between atoms: C_22  and  O_23
REMARK   11  A    between atoms: O_23  and  C_24
REMARK   12  A    between atoms: C_26  and  O_27
REMARK   13  A    between atoms: O_27  and  C_28
REMARK                            x       y       z     vdW  Elec       q    Type
REMARK                         _______ _______ _______ _____ _____    ______ ____
ROOT
ATOM      1  C   UNL     1       1.771   7.779  20.099  0.00  0.00    +0.000 A 
ATOM      2  N   UNL     1       1.235   7.959  21.348  0.00  0.00    +0.000 NA
ATOM      3  C   UNL     1       0.697   9.149  21.694  0.00  0.00    +0.000 A 
ATOM      4  C   UNL     1       0.089   9.280  23.057  0.00  0.00    +0.000 C 
ATOM      5  N   UNL     1       0.621  10.235  20.917  0.00  0.00    +0.000 NA
ATOM      6  C   UNL     1       1.080  10.008  19.675  0.00  0.00    +0.000 A 
ATOM      7  C   UNL     1       1.676   8.864  19.206  0.00  0.00    +0.000 A 
ATOM      8  N   UNL     1       2.072   9.050  17.908  0.00  0.00    +0.000 NA
ATOM      9  N   UNL     1       1.755  10.295  17.559  0.00  0.00    +0.000 NA
ATOM     10  N   UNL     1       1.103  10.877  18.601  0.00  0.00    +0.000 N 
ENDROOT
BRANCH  10  11
ATOM     11  C   UNL     1       0.659  12.222  18.599  0.00  0.00    +0.000 A 
ATOM     12  C   UNL     1      -0.713  12.531  18.695  0.00  0.00    +0.000 A 
ATOM     13 BR   UNL     1      -2.124  11.320  18.257  0.00  0.00    +0.000 Br
ATOM     14  C   UNL     1      -1.118  13.838  18.966  0.00  0.00    +0.000 A 
ATOM     15  C   UNL     1      -0.184  14.864  19.061  0.00  0.00    +0.000 A 
ATOM     16  C   UNL     1       1.166  14.581  18.859  0.00  0.00    +0.000 A 
ATOM     17  C   UNL     1       1.608  13.263  18.660  0.00  0.00    +0.000 A 
BRANCH  15  18
ATOM     18  O   UNL     1      -0.707  16.095  19.340  0.00  0.00    +0.000 OA
ATOM     19  C   UNL     1      -0.527  17.105  18.355  0.00  0.00    +0.000 C 
ENDBRANCH  15  18
BRANCH  17  20
ATOM     20  O   UNL     1       2.936  12.941  18.576  0.00  0.00    +0.000 OA
ATOM     21  C   UNL     1       3.857  14.001  18.347  0.00  0.00    +0.000 C 
ENDBRANCH  17  20
ENDBRANCH  10  11
BRANCH   1  22
ATOM     22  N   UNL     1       2.327   6.544  19.762  0.00  0.00    +0.000 N 
BRANCH  22  23
ATOM     23  C   UNL     1       2.167   5.467  20.753  0.00  0.00    +0.000 C 
ATOM     24  C   UNL     1       1.197   4.369  20.320  0.00  0.00    +0.000 C 
ENDBRANCH  22  23
BRANCH  22  25
ATOM     25  C   UNL     1       2.365   6.187  18.342  0.00  0.00    +0.000 C 
BRANCH  25  26
ATOM     26  C   UNL     1       3.789   5.869  17.849  0.00  0.00    +0.000 C 
BRANCH  26  28
ATOM     27  C   UNL     1       4.369   3.496  18.439  0.00  0.00    +0.000 C 
ATOM     28  C   UNL     1       3.977   4.446  17.313  0.00  0.00    +0.000 C 
ENDBRANCH  26  28
ENDBRANCH  25  26
ENDBRANCH  22  25
ENDBRANCH   1  22
TORSDOF 8
ENDMDL
MODEL 3
REMARK VINA RESULT:      -5.6      3.017      4.593
REMARK  Name = 
REMARK  13 active torsions:
REMARK  status: ('A' for Active; 'I' for Inactive)
REMARK    1  A    between atoms: C_1  and  C_2
REMARK    2  A    between atoms: C_2  and  C_3
REMARK    3  A    between atoms: C_3  and  C_4
REMARK    4  A    between atoms: C_4  and  N_5
REMARK    5  A    between atoms: N_5  and  C_6
REMARK    6  A    between atoms: N_5  and  C_8
REMARK    7  A    between atoms: C_6  and  C_7
REMARK    8  A    between atoms: C_10  and  C_11
REMARK    9  A    between atoms: N_17  and  C_18
REMARK   10  A    between atoms: C_22  and  O_23
REMARK   11  A    between atoms: O_23  and  C_24
REMARK   12  A    between atoms: C_26  and  O_27
REMARK   13  A    between atoms: O_27  and  C_28
REMARK                            x       y       z     vdW  Elec       q    Type
REMARK                         _______ _______ _______ _____ _____    ______ ____
ROOT
ATOM      1  C   UNL     1       3.780   6.406  18.203  0.00  0.00    +0.000 A 
ATOM      2  N   UNL     1       3.346   5.483  19.119  0.00  0.00    +0.000 NA
ATOM      3  C   UNL     1       2.331   5.782  19.960  0.00  0.00    +0.000 A 
ATOM      4  C   UNL     1       1.870   4.724  20.915  0.00  0.00    +0.000 C 
ATOM      5  N   UNL     1       1.661   6.939  20.006  0.00  0.00    +0.000 NA
ATOM      6  C   UNL     1       2.051   7.795  19.047  0.00  0.00    +0.000 A 
ATOM      7  C   UNL     1       3.082   7.630  18.156  0.00  0.00    +0.000 A 
ATOM      8  N   UNL     1       3.211   8.756  17.387  0.00  0.00    +0.000 NA
ATOM      9  N   UNL     1       2.295   9.633  17.792  0.00  0.00    +0.000 NA
ATOM     10  N   UNL     1       1.544   9.048  18.764  0.00  0.00    +0.000 N 
ENDROOT
BRANCH  10  11
ATOM     11  C   UNL     1       0.502   9.710  19.458  0.00  0.00    +0.000 A 
ATOM     12  C   UNL     1       0.658  10.088  20.807  0.00  0.00    +0.000 A 
ATOM     13 BR   UNL     1       1.920   9.305  22.007  0.00  0.00    +0.000 Br
ATOM     14  C   UNL     1      -0.249  10.970  21.394  0.00  0.00    +0.000 A 
ATOM     15  C   UNL     1      -1.360  11.420  20.689  0.00  0.00    +0.000 A 
ATOM     16  C   UNL     1      -1.575  10.962  19.389  0.00  0.00    +0.000 A 
ATOM     17  C   UNL     1      -0.640  10.135  18.748  0.00  0.00    +0.000 A 
BRANCH  15  18
ATOM     18  O   UNL     1      -2.165  12.286  21.373  0.00  0.00    +0.000 OA
ATOM     19  C   UNL     1      -2.852  13.264  20.603  0.00  0.00    +0.000 C 
ENDBRANCH  15  18
BRANCH  17  20
ATOM     20  O   UNL     1      -0.767   9.766  17.435  0.00  0.00    +0.000 OA
ATOM     21  C   UNL     1      -2.031   9.966  16.815  0.00  0.00    +0.000 C 
ENDBRANCH  17  20
ENDBRANCH  10  11
BRANCH   1  22
ATOM     22  N   UNL     1       4.834   6.082  17.347  0.00  0.00    +0.000 N 
BRANCH  22  23
ATOM     23  C   UNL     1       6.187   6.397  17.833  0.00  0.00    +0.000 C 
ATOM     24  C   UNL     1       7.008   5.167  18.214  0.00  0.00    +0.000 C 
ENDBRANCH  22  23
BRANCH  22  25
ATOM     25  C   UNL     1       4.658   4.918  16.474  0.00  0.00    +0.000 C 
BRANCH  25  26
ATOM     26  C   UNL     1       5.286   5.123  15.082  0.00  0.00    +0.000 C 
BRANCH  26  28
ATOM     27  C   UNL     1       6.110   3.679  13.198  0.00  0.00    +0.000 C 
ATOM     28  C   UNL     1       6.287   4.040  14.668  0.00  0.00    +0.000 C 
ENDBRANCH  26  28
ENDBRANCH  25  26
ENDBRANCH  22  25
ENDBRANCH   1  22
TORSDOF 8
ENDMDL
MODEL 4
REMARK VINA RESULT:      -5.6      3.856      7.848
REMARK  Name = 
REMARK  13 active torsions:
REMARK  status: ('A' for Active; 'I' for Inactive)
REMARK    1  A    between atoms: C_1  and  C_2
REMARK    2  A    between atoms: C_2  and  C_3
REMARK    3  A    between atoms: C_3  and  C_4
REMARK    4  A    between atoms: C_4  and  N_5
REMARK    5  A    between atoms: N_5  and  C_6
REMARK    6  A    between atoms: N_5  and  C_8
REMARK    7  A    between atoms: C_6  and  C_7
REMARK    8  A    between atoms: C_10  and  C_11
REMARK    9  A    between atoms: N_17  and  C_18
REMARK   10  A    between atoms: C_22  and  O_23
REMARK   11  A    between atoms: O_23  and  C_24
REMARK   12  A    between atoms: C_26  and  O_27
REMARK   13  A    between atoms: O_27  and  C_28
REMARK                            x       y       z     vdW  Elec       q    Type
REMARK                         _______ _______ _______ _____ _____    ______ ____
ROOT
ATOM      1  C   UNL     1       1.416   7.649  20.253  0.00  0.00    +0.000 A 
ATOM      2  N   UNL     1       1.473   6.528  21.041  0.00  0.00    +0.000 NA
ATOM      3  C   UNL     1       2.251   5.483  20.683  0.00  0.00    +0.000 A 
ATOM      4  C   UNL     1       2.308   4.298  21.600  0.00  0.00    +0.000 C 
ATOM      5  N   UNL     1       3.017   5.408  19.589  0.00  0.00    +0.000 NA
ATOM      6  C   UNL     1       3.004   6.548  18.878  0.00  0.00    +0.000 A 
ATOM      7  C   UNL     1       2.240   7.664  19.111  0.00  0.00    +0.000 A 
ATOM      8  N   UNL     1       2.459   8.587  18.122  0.00  0.00    +0.000 NA
ATOM      9  N   UNL     1       3.329   8.063  17.262  0.00  0.00    +0.000 NA
ATOM     10  N   UNL     1       3.714   6.846  17.731  0.00  0.00    +0.000 N 
ENDROOT
BRANCH  10  11
ATOM     11  C   UNL     1       4.601   5.982  17.043  0.00  0.00    +0.000 A 
ATOM     12  C   UNL     1       4.153   4.752  16.523  0.00  0.00    +0.000 A 
ATOM     13 BR   UNL     1       2.595   3.828  17.127  0.00  0.00    +0.000 Br
ATOM     14  C   UNL     1       4.949   4.043  15.621  0.00  0.00    +0.000 A 
ATOM     15  C   UNL     1       6.221   4.496  15.291  0.00  0.00    +0.000 A 
ATOM     16  C   UNL     1       6.711   5.658  15.888  0.00  0.00    +0.000 A 
ATOM     17  C   UNL     1       5.903   6.429  16.739  0.00  0.00    +0.000 A 
BRANCH  15  18
ATOM     18  O   UNL     1       6.894   3.719  14.391  0.00  0.00    +0.000 OA
ATOM     19  C   UNL     1       6.397   3.705  13.060  0.00  0.00    +0.000 C 
ENDBRANCH  15  18
BRANCH  17  20
ATOM     20  O   UNL     1       6.316   7.633  17.245  0.00  0.00    +0.000 OA
ATOM     21  C   UNL     1       7.694   7.774  17.568  0.00  0.00    +0.000 C 
ENDBRANCH  17  20
ENDBRANCH  10  11
BRANCH   1  22
ATOM     22  N   UNL     1       0.601   8.716  20.636  0.00  0.00    +0.000 N 
BRANCH  22  23
ATOM     23  C   UNL     1      -0.301   8.470  21.773  0.00  0.00    +0.000 C 
ATOM     24  C   UNL     1      -0.072   9.407  22.957  0.00  0.00    +0.000 C 
ENDBRANCH  22  23
BRANCH  22  25
ATOM     25  C   UNL     1       1.129  10.069  20.443  0.00  0.00    +0.000 C 
BRANCH  25  26
ATOM     26  C   UNL     1       0.180  10.963  19.624  0.00  0.00    +0.000 C 
BRANCH  26  28
ATOM     27  C   UNL     1      -1.993  10.567  18.425  0.00  0.00    +0.000 C 
ATOM     28  C   UNL     1      -0.499  10.261  18.444  0.00  0.00    +0.000 C 
ENDBRANCH  26  28
ENDBRANCH  25  26
ENDBRANCH  22  25
ENDBRANCH   1  22
TORSDOF 8
ENDMDL
MODEL 5
REMARK VINA RESULT:      -5.5      2.976      4.586
REMARK  Name = 
REMARK  13 active torsions:
REMARK  status: ('A' for Active; 'I' for Inactive)
REMARK    1  A    between atoms: C_1  and  C_2
REMARK    2  A    between atoms: C_2  and  C_3
REMARK    3  A    between atoms: C_3  and  C_4
REMARK    4  A    between atoms: C_4  and  N_5
REMARK    5  A    between atoms: N_5  and  C_6
REMARK    6  A    between atoms: N_5  and  C_8
REMARK    7  A    between atoms: C_6  and  C_7
REMARK    8  A    between atoms: C_10  and  C_11
REMARK    9  A    between atoms: N_17  and  C_18
REMARK   10  A    between atoms: C_22  and  O_23
REMARK   11  A    between atoms: O_23  and  C_24
REMARK   12  A    between atoms: C_26  and  O_27
REMARK   13  A    between atoms: O_27  and  C_28
REMARK                            x       y       z     vdW  Elec       q    Type
REMARK                         _______ _______ _______ _____ _____    ______ ____
ROOT
ATOM      1  C   UNL     1       3.626   6.172  18.221  0.00  0.00    +0.000 A 
ATOM      2  N   UNL     1       3.178   5.289  19.169  0.00  0.00    +0.000 NA
ATOM      3  C   UNL     1       2.203   5.652  20.031  0.00  0.00    +0.000 A 
ATOM      4  C   UNL     1       1.721   4.635  21.022  0.00  0.00    +0.000 C 
ATOM      5  N   UNL     1       1.588   6.839  20.072  0.00  0.00    +0.000 NA
ATOM      6  C   UNL     1       1.989   7.656  19.084  0.00  0.00    +0.000 A 
ATOM      7  C   UNL     1       2.985   7.426  18.167  0.00  0.00    +0.000 A 
ATOM      8  N   UNL     1       3.143   8.529  17.371  0.00  0.00    +0.000 NA
ATOM      9  N   UNL     1       2.281   9.456  17.784  0.00  0.00    +0.000 NA
ATOM     10  N   UNL     1       1.533   8.926  18.789  0.00  0.00    +0.000 N 
ENDROOT
BRANCH  10  11
ATOM     11  C   UNL     1       0.543   9.650  19.498  0.00  0.00    +0.000 A 
ATOM     12  C   UNL     1       0.742  10.018  20.844  0.00  0.00    +0.000 A 
ATOM     13 BR   UNL     1       1.973   9.160  22.026  0.00  0.00    +0.000 Br
ATOM     14  C   UNL     1      -0.101  10.953  21.444  0.00  0.00    +0.000 A 
ATOM     15  C   UNL     1      -1.193  11.469  20.755  0.00  0.00    +0.000 A 
ATOM     16  C   UNL     1      -1.456  11.025  19.459  0.00  0.00    +0.000 A 
ATOM     17  C   UNL     1      -0.582  10.143  18.805  0.00  0.00    +0.000 A 
BRANCH  15  18
ATOM     18  O   UNL     1      -1.934  12.382  21.450  0.00  0.00    +0.000 OA
ATOM     19  C   UNL     1      -2.113  12.139  22.839  0.00  0.00    +0.000 C 
ENDBRANCH  15  18
BRANCH  17  20
ATOM     20  O   UNL     1      -0.751   9.782  17.495  0.00  0.00    +0.000 OA
ATOM     21  C   UNL     1      -2.038   9.976  16.920  0.00  0.00    +0.000 C 
ENDBRANCH  17  20
ENDBRANCH  10  11
BRANCH   1  22
ATOM     22  N   UNL     1       4.638   5.781  17.342  0.00  0.00    +0.000 N 
BRANCH  22  23
ATOM     23  C   UNL     1       4.426   4.510  16.631  0.00  0.00    +0.000 C 
ATOM     24  C   UNL     1       5.345   4.315  15.427  0.00  0.00    +0.000 C 
ENDBRANCH  22  23
BRANCH  22  25
ATOM     25  C   UNL     1       5.392   6.841  16.668  0.00  0.00    +0.000 C 
BRANCH  25  26
ATOM     26  C   UNL     1       6.658   7.252  17.443  0.00  0.00    +0.000 C 
BRANCH  26  28
ATOM     27  C   UNL     1       7.659   5.832  19.258  0.00  0.00    +0.000 C 
ATOM     28  C   UNL     1       7.616   6.099  17.758  0.00  0.00    +0.000 C 
ENDBRANCH  26  28
ENDBRANCH  25  26
ENDBRANCH  22  25
ENDBRANCH   1  22
TORSDOF 8
ENDMDL
MODEL 6
REMARK VINA RESULT:      -5.5      2.638      4.393
REMARK  Name = 
REMARK  13 active torsions:
REMARK  status: ('A' for Active; 'I' for Inactive)
REMARK    1  A    between atoms: C_1  and  C_2
REMARK    2  A    between atoms: C_2  and  C_3
REMARK    3  A    between atoms: C_3  and  C_4
REMARK    4  A    between atoms: C_4  and  N_5
REMARK    5  A    between atoms: N_5  and  C_6
REMARK    6  A    between atoms: N_5  and  C_8
REMARK    7  A    between atoms: C_6  and  C_7
REMARK    8  A    between atoms: C_10  and  C_11
REMARK    9  A    between atoms: N_17  and  C_18
REMARK   10  A    between atoms: C_22  and  O_23
REMARK   11  A    between atoms: O_23  and  C_24
REMARK   12  A    between atoms: C_26  and  O_27
REMARK   13  A    between atoms: O_27  and  C_28
REMARK                            x       y       z     vdW  Elec       q    Type
REMARK                         _______ _______ _______ _____ _____    ______ ____
ROOT
ATOM      1  C   UNL     1       0.578  10.184  19.703  0.00  0.00    +0.000 A 
ATOM      2  N   UNL     1      -0.329   9.996  18.692  0.00  0.00    +0.000 NA
ATOM      3  C   UNL     1      -1.124  11.013  18.291  0.00  0.00    +0.000 A 
ATOM      4  C   UNL     1      -2.070  10.765  17.156  0.00  0.00    +0.000 C 
ATOM      5  N   UNL     1      -1.132  12.253  18.793  0.00  0.00    +0.000 NA
ATOM      6  C   UNL     1      -0.180  12.432  19.726  0.00  0.00    +0.000 A 
ATOM      7  C   UNL     1       0.666  11.483  20.243  0.00  0.00    +0.000 A 
ATOM      8  N   UNL     1       1.440  12.042  21.225  0.00  0.00    +0.000 NA
ATOM      9  N   UNL     1       1.082  13.318  21.349  0.00  0.00    +0.000 NA
ATOM     10  N   UNL     1       0.136  13.590  20.410  0.00  0.00    +0.000 N 
ENDROOT
BRANCH  10  11
ATOM     11  C   UNL     1      -0.508  14.845  20.283  0.00  0.00    +0.000 A 
ATOM     12  C   UNL     1      -0.025  15.816  19.384  0.00  0.00    +0.000 A 
ATOM     13 BR   UNL     1       1.758  15.866  18.703  0.00  0.00    +0.000 Br
ATOM     14  C   UNL     1      -0.811  16.925  19.065  0.00  0.00    +0.000 A 
ATOM     15  C   UNL     1      -2.036  17.129  19.690  0.00  0.00    +0.000 A 
ATOM     16  C   UNL     1      -2.468  16.225  20.661  0.00  0.00    +0.000 A 
ATOM     17  C   UNL     1      -1.733  15.063  20.945  0.00  0.00    +0.000 A 
BRANCH  15  18
ATOM     18  O   UNL     1      -2.712  18.244  19.284  0.00  0.00    +0.000 OA
ATOM     19  C   UNL     1      -4.113  18.110  19.091  0.00  0.00    +0.000 C 
ENDBRANCH  15  18
BRANCH  17  20
ATOM     20  O   UNL     1      -2.190  14.101  21.807  0.00  0.00    +0.000 OA
ATOM     21  C   UNL     1      -3.589  14.057  22.061  0.00  0.00    +0.000 C 
ENDBRANCH  17  20
ENDBRANCH  10  11
BRANCH   1  22
ATOM     22  N   UNL     1       1.386   9.121  20.106  0.00  0.00    +0.000 N 
BRANCH  22  23
ATOM     23  C   UNL     1       1.100   8.555  21.435  0.00  0.00    +0.000 C 
ATOM     24  C   UNL     1      -0.389   8.388  21.727  0.00  0.00    +0.000 C 
ENDBRANCH  22  23
BRANCH  22  25
ATOM     25  C   UNL     1       1.898   8.229  19.063  0.00  0.00    +0.000 C 
BRANCH  25  26
ATOM     26  C   UNL     1       2.338   6.861  19.616  0.00  0.00    +0.000 C 
BRANCH  26  28
ATOM     27  C   UNL     1       2.119   4.893  18.070  0.00  0.00    +0.000 C 
ATOM     28  C   UNL     1       3.060   5.965  18.605  0.00  0.00    +0.000 C 
ENDBRANCH  26  28
ENDBRANCH  25  26
ENDBRANCH  22  25
ENDBRANCH   1  22
TORSDOF 8
ENDMDL
MODEL 7
REMARK VINA RESULT:      -5.5      4.216      6.016
REMARK  Name = 
REMARK  13 active torsions:
REMARK  status: ('A' for Active; 'I' for Inactive)
REMARK    1  A    between atoms: C_1  and  C_2
REMARK    2  A    between atoms: C_2  and  C_3
REMARK    3  A    between atoms: C_3  and  C_4
REMARK    4  A    between atoms: C_4  and  N_5
REMARK    5  A    between atoms: N_5  and  C_6
REMARK    6  A    between atoms: N_5  and  C_8
REMARK    7  A    between atoms: C_6  and  C_7
REMARK    8  A    between atoms: C_10  and  C_11
REMARK    9  A    between atoms: N_17  and  C_18
REMARK   10  A    between atoms: C_22  and  O_23
REMARK   11  A    between atoms: O_23  and  C_24
REMARK   12  A    between atoms: C_26  and  O_27
REMARK   13  A    between atoms: O_27  and  C_28
REMARK                            x       y       z     vdW  Elec       q    Type
REMARK                         _______ _______ _______ _____ _____    ______ ____
ROOT
ATOM      1  C   UNL     1      -0.593  10.912  19.942  0.00  0.00    +0.000 A 
ATOM      2  N   UNL     1      -0.268  10.052  20.959  0.00  0.00    +0.000 NA
ATOM      3  C   UNL     1      -0.240  10.487  22.238  0.00  0.00    +0.000 A 
ATOM      4  C   UNL     1       0.083   9.497  23.315  0.00  0.00    +0.000 C 
ATOM      5  N   UNL     1      -0.508  11.730  22.654  0.00  0.00    +0.000 NA
ATOM      6  C   UNL     1      -0.901  12.531  21.648  0.00  0.00    +0.000 A 
ATOM      7  C   UNL     1      -0.943  12.226  20.311  0.00  0.00    +0.000 A 
ATOM      8  N   UNL     1      -1.328  13.331  19.598  0.00  0.00    +0.000 NA
ATOM      9  N   UNL     1      -1.508  14.329  20.460  0.00  0.00    +0.000 NA
ATOM     10  N   UNL     1      -1.306  13.850  21.717  0.00  0.00    +0.000 N 
ENDROOT
BRANCH  10  11
ATOM     11  C   UNL     1      -1.369  14.651  22.883  0.00  0.00    +0.000 A 
ATOM     12  C   UNL     1      -2.295  14.365  23.907  0.00  0.00    +0.000 A 
ATOM     13 BR   UNL     1      -3.889  13.343  23.666  0.00  0.00    +0.000 Br
ATOM     14  C   UNL     1      -2.167  14.978  25.154  0.00  0.00    +0.000 A 
ATOM     15  C   UNL     1      -1.185  15.935  25.377  0.00  0.00    +0.000 A 
ATOM     16  C   UNL     1      -0.335  16.300  24.333  0.00  0.00    +0.000 A 
ATOM     17  C   UNL     1      -0.392  15.646  23.092  0.00  0.00    +0.000 A 
BRANCH  15  18
ATOM     18  O   UNL     1      -1.159  16.452  26.642  0.00  0.00    +0.000 OA
ATOM     19  C   UNL     1       0.096  16.453  27.308  0.00  0.00    +0.000 C 
ENDBRANCH  15  18
BRANCH  17  20
ATOM     20  O   UNL     1       0.505  15.901  22.088  0.00  0.00    +0.000 OA
ATOM     21  C   UNL     1       1.858  15.522  22.304  0.00  0.00    +0.000 C 
ENDBRANCH  17  20
ENDBRANCH  10  11
BRANCH   1  22
ATOM     22  N   UNL     1      -0.611  10.445  18.627  0.00  0.00    +0.000 N 
BRANCH  22  23
ATOM     23  C   UNL     1       0.561   9.662  18.200  0.00  0.00    +0.000 C 
ATOM     24  C   UNL     1       1.847  10.480  18.100  0.00  0.00    +0.000 C 
ENDBRANCH  22  23
BRANCH  22  25
ATOM     25  C   UNL     1      -1.915  10.125  18.043  0.00  0.00    +0.000 C 
BRANCH  25  26
ATOM     26  C   UNL     1      -2.320  11.105  16.926  0.00  0.00    +0.000 C 
BRANCH  26  28
ATOM     27  C   UNL     1      -3.019  10.120  14.723  0.00  0.00    +0.000 C 
ATOM     28  C   UNL     1      -3.504  10.644  16.070  0.00  0.00    +0.000 C 
ENDBRANCH  26  28
ENDBRANCH  25  26
ENDBRANCH  22  25
ENDBRANCH   1  22
TORSDOF 8
ENDMDL
MODEL 8
REMARK VINA RESULT:      -5.5      3.859      5.749
REMARK  Name = 
REMARK  13 active torsions:
REMARK  status: ('A' for Active; 'I' for Inactive)
REMARK    1  A    between atoms: C_1  and  C_2
REMARK    2  A    between atoms: C_2  and  C_3
REMARK    3  A    between atoms: C_3  and  C_4
REMARK    4  A    between atoms: C_4  and  N_5
REMARK    5  A    between atoms: N_5  and  C_6
REMARK    6  A    between atoms: N_5  and  C_8
REMARK    7  A    between atoms: C_6  and  C_7
REMARK    8  A    between atoms: C_10  and  C_11
REMARK    9  A    between atoms: N_17  and  C_18
REMARK   10  A    between atoms: C_22  and  O_23
REMARK   11  A    between atoms: O_23  and  C_24
REMARK   12  A    between atoms: C_26  and  O_27
REMARK   13  A    between atoms: O_27  and  C_28
REMARK                            x       y       z     vdW  Elec       q    Type
REMARK                         _______ _______ _______ _____ _____    ______ ____
ROOT
ATOM      1  C   UNL     1      -0.261  10.811  19.787  0.00  0.00    +0.000 A 
ATOM      2  N   UNL     1      -1.232  10.685  18.826  0.00  0.00    +0.000 NA
ATOM      3  C   UNL     1      -2.338  11.460  18.868  0.00  0.00    +0.000 A 
ATOM      4  C   UNL     1      -3.348  11.309  17.772  0.00  0.00    +0.000 C 
ATOM      5  N   UNL     1      -2.614  12.391  19.788  0.00  0.00    +0.000 NA
ATOM      6  C   UNL     1      -1.612  12.551  20.670  0.00  0.00    +0.000 A 
ATOM      7  C   UNL     1      -0.458  11.813  20.758  0.00  0.00    +0.000 A 
ATOM      8  N   UNL     1       0.277  12.235  21.835  0.00  0.00    +0.000 NA
ATOM      9  N   UNL     1      -0.403  13.209  22.435  0.00  0.00    +0.000 NA
ATOM     10  N   UNL     1      -1.529  13.453  21.712  0.00  0.00    +0.000 N 
ENDROOT
BRANCH  10  11
ATOM     11  C   UNL     1      -2.515  14.399  22.086  0.00  0.00    +0.000 A 
ATOM     12  C   UNL     1      -2.656  15.612  21.383  0.00  0.00    +0.000 A 
ATOM     13 BR   UNL     1      -1.288  16.404  20.312  0.00  0.00    +0.000 Br
ATOM     14  C   UNL     1      -3.789  16.403  21.576  0.00  0.00    +0.000 A 
ATOM     15  C   UNL     1      -4.747  16.052  22.521  0.00  0.00    +0.000 A 
ATOM     16  C   UNL     1      -4.556  14.908  23.296  0.00  0.00    +0.000 A 
ATOM     17  C   UNL     1      -3.464  14.055  23.070  0.00  0.00    +0.000 A 
BRANCH  15  18
ATOM     18  O   UNL     1      -5.811  16.904  22.607  0.00  0.00    +0.000 OA
ATOM     19  C   UNL     1      -7.032  16.356  23.084  0.00  0.00    +0.000 C 
ENDBRANCH  15  18
BRANCH  17  20
ATOM     20  O   UNL     1      -3.315  12.866  23.734  0.00  0.00    +0.000 OA
ATOM     21  C   UNL     1      -4.344  12.485  24.639  0.00  0.00    +0.000 C 
ENDBRANCH  17  20
ENDBRANCH  10  11
BRANCH   1  22
ATOM     22  N   UNL     1       0.871   9.997  19.731  0.00  0.00    +0.000 N 
BRANCH  22  23
ATOM     23  C   UNL     1       0.810   8.745  20.502  0.00  0.00    +0.000 C 
ATOM     24  C   UNL     1       1.349   8.870  21.925  0.00  0.00    +0.000 C 
ENDBRANCH  22  23
BRANCH  22  25
ATOM     25  C   UNL     1       1.655  10.019  18.494  0.00  0.00    +0.000 C 
BRANCH  25  26
ATOM     26  C   UNL     1       1.667   8.656  17.776  0.00  0.00    +0.000 C 
BRANCH  26  28
ATOM     27  C   UNL     1       2.859   6.480  18.171  0.00  0.00    +0.000 C 
ATOM     28  C   UNL     1       3.023   7.944  17.779  0.00  0.00    +0.000 C 
ENDBRANCH  26  28
ENDBRANCH  25  26
ENDBRANCH  22  25
ENDBRANCH   1  22
TORSDOF 8
ENDMDL
MODEL 9
REMARK VINA RESULT:      -5.4      4.196      6.084
REMARK  Name = 
REMARK  13 active torsions:
REMARK  status: ('A' for Active; 'I' for Inactive)
REMARK    1  A    between atoms: C_1  and  C_2
REMARK    2  A    between atoms: C_2  and  C_3
REMARK    3  A    between atoms: C_3  and  C_4
REMARK    4  A    between atoms: C_4  and  N_5
REMARK    5  A    between atoms: N_5  and  C_6
REMARK    6  A    between atoms: N_5  and  C_8
REMARK    7  A    between atoms: C_6  and  C_7
REMARK    8  A    between atoms: C_10  and  C_11
REMARK    9  A    between atoms: N_17  and  C_18
REMARK   10  A    between atoms: C_22  and  O_23
REMARK   11  A    between atoms: O_23  and  C_24
REMARK   12  A    between atoms: C_26  and  O_27
REMARK   13  A    between atoms: O_27  and  C_28
REMARK                            x       y       z     vdW  Elec       q    Type
REMARK                         _______ _______ _______ _____ _____    ______ ____
ROOT
ATOM      1  C   UNL     1      -0.048  10.911  19.781  0.00  0.00    +0.000 A 
ATOM      2  N   UNL     1       0.156  10.057  20.835  0.00  0.00    +0.000 NA
ATOM      3  C   UNL     1      -0.064  10.472  22.102  0.00  0.00    +0.000 A 
ATOM      4  C   UNL     1       0.136   9.487  23.213  0.00  0.00    +0.000 C 
ATOM      5  N   UNL     1      -0.482  11.688  22.471  0.00  0.00    +0.000 NA
ATOM      6  C   UNL     1      -0.751  12.478  21.418  0.00  0.00    +0.000 A 
ATOM      7  C   UNL     1      -0.543  12.193  20.092  0.00  0.00    +0.000 A 
ATOM      8  N   UNL     1      -0.875  13.282  19.329  0.00  0.00    +0.000 NA
ATOM      9  N   UNL     1      -1.266  14.252  20.153  0.00  0.00    +0.000 NA
ATOM     10  N   UNL     1      -1.250  13.766  21.424  0.00  0.00    +0.000 N 
ENDROOT
BRANCH  10  11
ATOM     11  C   UNL     1      -1.564  14.542  22.566  0.00  0.00    +0.000 A 
ATOM     12  C   UNL     1      -0.750  15.626  22.951  0.00  0.00    +0.000 A 
ATOM     13 BR   UNL     1       1.075  15.841  22.431  0.00  0.00    +0.000 Br
ATOM     14  C   UNL     1      -1.207  16.541  23.899  0.00  0.00    +0.000 A 
ATOM     15  C   UNL     1      -2.429  16.352  24.536  0.00  0.00    +0.000 A 
ATOM     16  C   UNL     1      -3.188  15.221  24.236  0.00  0.00    +0.000 A 
ATOM     17  C   UNL     1      -2.787  14.325  23.233  0.00  0.00    +0.000 A 
BRANCH  15  18
ATOM     18  O   UNL     1      -2.766  17.323  25.435  0.00  0.00    +0.000 OA
ATOM     19  C   UNL     1      -1.702  18.102  25.965  0.00  0.00    +0.000 C 
ENDBRANCH  15  18
BRANCH  17  20
ATOM     20  O   UNL     1      -3.569  13.272  22.837  0.00  0.00    +0.000 OA
ATOM     21  C   UNL     1      -4.835  13.119  23.467  0.00  0.00    +0.000 C 
ENDBRANCH  17  20
ENDBRANCH  10  11
BRANCH   1  22
ATOM     22  N   UNL     1       0.190  10.466  18.480  0.00  0.00    +0.000 N 
BRANCH  22  23
ATOM     23  C   UNL     1       1.591  10.170  18.141  0.00  0.00    +0.000 C 
ATOM     24  C   UNL     1       1.867   8.688  17.894  0.00  0.00    +0.000 C 
ENDBRANCH  22  23
BRANCH  22  25
ATOM     25  C   UNL     1      -0.866   9.685  17.831  0.00  0.00    +0.000 C 
BRANCH  25  26
ATOM     26  C   UNL     1      -1.861  10.566  17.053  0.00  0.00    +0.000 C 
BRANCH  26  28
ATOM     27  C   UNL     1      -3.202  10.472  14.930  0.00  0.00    +0.000 C 
ATOM     28  C   UNL     1      -2.919   9.789  16.263  0.00  0.00    +0.000 C 
ENDBRANCH  26  28
ENDBRANCH  25  26
ENDBRANCH  22  25
ENDBRANCH   1  22
TORSDOF 8
ENDMDL
