MODEL 1
REMARK VINA RESULT:      -7.0      0.000      0.000
REMARK  Name = 
REMARK  10 active torsions:
REMARK  status: ('A' for Active; 'I' for Inactive)
REMARK    1  A    between atoms: C_1  and  C_2
REMARK    2  A    between atoms: C_2  and  O_3
REMARK    3  A    between atoms: O_3  and  C_4
REMARK    4  A    between atoms: C_4  and  C_6
REMARK    5  A    between atoms: C_6  and  C_7
REMARK    6  A    between atoms: C_13  and  C_14
REMARK    7  A    between atoms: C_14  and  O_15
REMARK    8  A    between atoms: O_15  and  C_16
REMARK    9  A    between atoms: C_21  and  O_22
REMARK   10  A    between atoms: O_22  and  C_23
REMARK                            x       y       z     vdW  Elec       q    Type
REMARK                         _______ _______ _______ _____ _____    ______ ____
ROOT
ATOM      1  C   UNL     1       4.983   4.057  17.363  0.00  0.00    +0.000 C 
ATOM      2  O   UNL     1       5.233   3.503  16.286  0.00  0.00    +0.000 OA
ATOM      3  N   UNL     1       3.880   3.695  18.138  0.00  0.00    +0.000 N 
ATOM      4  C   UNL     1       3.205   2.474  17.697  0.00  0.00    +0.000 C 
ATOM      5  C   UNL     1       2.075   2.119  18.650  0.00  0.00    +0.000 C 
ATOM      6  S   UNL     1       1.713   3.616  19.584  0.00  0.00    +0.000 S 
ATOM      7  C   UNL     1       2.898   4.659  18.652  0.00  0.00    +0.000 C 
ENDROOT
BRANCH   1   8
ATOM      8  C   UNL     1       6.002   4.978  17.974  0.00  0.00    +0.000 C 
BRANCH   8   9
ATOM      9  C   UNL     1       7.318   5.031  17.265  0.00  0.00    +0.000 C 
ATOM     10  O   UNL     1       8.178   4.164  17.270  0.00  0.00    +0.000 OA
BRANCH   9  11
ATOM     11  O   UNL     1       7.383   6.210  16.577  0.00  0.00    +0.000 OA
BRANCH  11  13
ATOM     12  C   UNL     1       7.958   8.217  17.732  0.00  0.00    +0.000 C 
ATOM     13  C   UNL     1       6.816   7.359  17.221  0.00  0.00    +0.000 C 
ENDBRANCH  11  13
ENDBRANCH   9  11
ENDBRANCH   8   9
ENDBRANCH   1   8
BRANCH   7  14
ATOM     14  C   UNL     1       3.377   5.825  19.525  0.00  0.00    +0.000 C 
BRANCH  14  15
ATOM     15  O   UNL     1       2.262   6.489  20.151  0.00  0.00    +0.000 OA
BRANCH  15  16
ATOM     16  C   UNL     1       1.967   7.704  19.584  0.00  0.00    +0.000 A 
ATOM     17  C   UNL     1       2.242   7.931  18.223  0.00  0.00    +0.000 A 
ATOM     18  C   UNL     1       2.010   9.172  17.636  0.00  0.00    +0.000 A 
ATOM     19  C   UNL     1       1.452  10.192  18.392  0.00  0.00    +0.000 A 
ATOM     20  C   UNL     1       1.097   9.951  19.719  0.00  0.00    +0.000 A 
ATOM     21  C   UNL     1       1.337   8.710  20.329  0.00  0.00    +0.000 A 
BRANCH  21  22
ATOM     22  O   UNL     1       0.886   8.683  21.621  0.00  0.00    +0.000 OA
ATOM     23  C   UNL     1      -0.474   8.375  21.874  0.00  0.00    +0.000 C 
ENDBRANCH  21  22
ENDBRANCH  15  16
ENDBRANCH  14  15
ENDBRANCH   7  14
TORSDOF 8
ENDMDL
MODEL 2
REMARK VINA RESULT:      -6.9      1.556      1.845
REMARK  Name = 
REMARK  10 active torsions:
REMARK  status: ('A' for Active; 'I' for Inactive)
REMARK    1  A    between atoms: C_1  and  C_2
REMARK    2  A    between atoms: C_2  and  O_3
REMARK    3  A    between atoms: O_3  and  C_4
REMARK    4  A    between atoms: C_4  and  C_6
REMARK    5  A    between atoms: C_6  and  C_7
REMARK    6  A    between atoms: C_13  and  C_14
REMARK    7  A    between atoms: C_14  and  O_15
REMARK    8  A    between atoms: O_15  and  C_16
REMARK    9  A    between atoms: C_21  and  O_22
REMARK   10  A    between atoms: O_22  and  C_23
REMARK                            x       y       z     vdW  Elec       q    Type
REMARK                         _______ _______ _______ _____ _____    ______ ____
ROOT
ATOM      1  C   UNL     1       4.703   3.442  19.533  0.00  0.00    +0.000 C 
ATOM      2  O   UNL     1       5.267   2.343  19.591  0.00  0.00    +0.000 OA
ATOM      3  N   UNL     1       3.407   3.630  20.015  0.00  0.00    +0.000 N 
ATOM      4  C   UNL     1       2.881   2.507  20.791  0.00  0.00    +0.000 C 
ATOM      5  C   UNL     1       1.502   2.840  21.339  0.00  0.00    +0.000 C 
ATOM      6  S   UNL     1       0.895   4.230  20.367  0.00  0.00    +0.000 S 
ATOM      7  C   UNL     1       2.332   4.250  19.229  0.00  0.00    +0.000 C 
ENDROOT
BRANCH   1   8
ATOM      8  C   UNL     1       5.497   4.660  19.153  0.00  0.00    +0.000 C 
BRANCH   8   9
ATOM      9  C   UNL     1       6.396   4.491  17.969  0.00  0.00    +0.000 C 
ATOM     10  O   UNL     1       7.614   4.414  17.991  0.00  0.00    +0.000 OA
BRANCH   9  11
ATOM     11  O   UNL     1       5.614   4.402  16.852  0.00  0.00    +0.000 OA
BRANCH  11  13
ATOM     12  C   UNL     1       5.031   6.582  16.076  0.00  0.00    +0.000 C 
ATOM     13  C   UNL     1       5.877   5.351  15.810  0.00  0.00    +0.000 C 
ENDBRANCH  11  13
ENDBRANCH   9  11
ENDBRANCH   8   9
ENDBRANCH   1   8
BRANCH   7  14
ATOM     14  C   UNL     1       2.536   5.660  18.660  0.00  0.00    +0.000 C 
BRANCH  14  15
ATOM     15  O   UNL     1       2.630   6.632  19.719  0.00  0.00    +0.000 OA
BRANCH  15  16
ATOM     16  C   UNL     1       2.075   7.845  19.391  0.00  0.00    +0.000 A 
ATOM     17  C   UNL     1       2.164   8.326  18.072  0.00  0.00    +0.000 A 
ATOM     18  C   UNL     1       1.664   9.579  17.725  0.00  0.00    +0.000 A 
ATOM     19  C   UNL     1       1.023  10.349  18.684  0.00  0.00    +0.000 A 
ATOM     20  C   UNL     1       0.854   9.844  19.973  0.00  0.00    +0.000 A 
ATOM     21  C   UNL     1       1.364   8.589  20.343  0.00  0.00    +0.000 A 
BRANCH  21  22
ATOM     22  O   UNL     1       1.061   8.279  21.641  0.00  0.00    +0.000 OA
ATOM     23  C   UNL     1       0.530   9.284  22.488  0.00  0.00    +0.000 C 
ENDBRANCH  21  22
ENDBRANCH  15  16
ENDBRANCH  14  15
ENDBRANCH   7  14
TORSDOF 8
ENDMDL
MODEL 3
REMARK VINA RESULT:      -6.8      3.143      5.568
REMARK  Name = 
REMARK  10 active torsions:
REMARK  status: ('A' for Active; 'I' for Inactive)
REMARK    1  A    between atoms: C_1  and  C_2
REMARK    2  A    between atoms: C_2  and  O_3
REMARK    3  A    between atoms: O_3  and  C_4
REMARK    4  A    between atoms: C_4  and  C_6
REMARK    5  A    between atoms: C_6  and  C_7
REMARK    6  A    between atoms: C_13  and  C_14
REMARK    7  A    between atoms: C_14  and  O_15
REMARK    8  A    between atoms: O_15  and  C_16
REMARK    9  A    between atoms: C_21  and  O_22
REMARK   10  A    between atoms: O_22  and  C_23
REMARK                            x       y       z     vdW  Elec       q    Type
REMARK                         _______ _______ _______ _____ _____    ______ ____
ROOT
ATOM      1  C   UNL     1       6.431   5.200  16.548  0.00  0.00    +0.000 C 
ATOM      2  O   UNL     1       7.463   5.830  16.804  0.00  0.00    +0.000 OA
ATOM      3  N   UNL     1       5.171   5.667  16.927  0.00  0.00    +0.000 N 
ATOM      4  C   UNL     1       5.160   7.042  17.425  0.00  0.00    +0.000 C 
ATOM      5  C   UNL     1       3.738   7.484  17.732  0.00  0.00    +0.000 C 
ATOM      6  S   UNL     1       2.759   5.977  17.864  0.00  0.00    +0.000 S 
ATOM      7  C   UNL     1       4.193   4.854  17.663  0.00  0.00    +0.000 C 
ENDROOT
BRANCH   1   8
ATOM      8  C   UNL     1       6.494   4.027  15.610  0.00  0.00    +0.000 C 
BRANCH   8   9
ATOM      9  C   UNL     1       6.585   4.377  14.158  0.00  0.00    +0.000 C 
ATOM     10  O   UNL     1       7.351   5.184  13.656  0.00  0.00    +0.000 OA
BRANCH   9  11
ATOM     11  O   UNL     1       5.682   3.609  13.478  0.00  0.00    +0.000 OA
BRANCH  11  13
ATOM     12  C   UNL     1       5.836   2.071  11.660  0.00  0.00    +0.000 C 
ATOM     13  C   UNL     1       5.848   3.535  12.056  0.00  0.00    +0.000 C 
ENDBRANCH  11  13
ENDBRANCH   9  11
ENDBRANCH   8   9
ENDBRANCH   1   8
BRANCH   7  14
ATOM     14  C   UNL     1       3.737   3.514  17.074  0.00  0.00    +0.000 C 
BRANCH  14  15
ATOM     15  O   UNL     1       3.899   2.450  18.033  0.00  0.00    +0.000 OA
BRANCH  15  16
ATOM     16  C   UNL     1       3.055   2.558  19.110  0.00  0.00    +0.000 A 
ATOM     17  C   UNL     1       1.667   2.674  18.910  0.00  0.00    +0.000 A 
ATOM     18  C   UNL     1       0.794   2.846  19.981  0.00  0.00    +0.000 A 
ATOM     19  C   UNL     1       1.293   2.856  21.274  0.00  0.00    +0.000 A 
ATOM     20  C   UNL     1       2.657   2.655  21.489  0.00  0.00    +0.000 A 
ATOM     21  C   UNL     1       3.552   2.495  20.420  0.00  0.00    +0.000 A 
BRANCH  21  22
ATOM     22  O   UNL     1       4.832   2.284  20.855  0.00  0.00    +0.000 OA
ATOM     23  C   UNL     1       5.298   0.956  21.022  0.00  0.00    +0.000 C 
ENDBRANCH  21  22
ENDBRANCH  15  16
ENDBRANCH  14  15
ENDBRANCH   7  14
TORSDOF 8
ENDMDL
MODEL 4
REMARK VINA RESULT:      -6.7      3.230      5.463
REMARK  Name = 
REMARK  10 active torsions:
REMARK  status: ('A' for Active; 'I' for Inactive)
REMARK    1  A    between atoms: C_1  and  C_2
REMARK    2  A    between atoms: C_2  and  O_3
REMARK    3  A    between atoms: O_3  and  C_4
REMARK    4  A    between atoms: C_4  and  C_6
REMARK    5  A    between atoms: C_6  and  C_7
REMARK    6  A    between atoms: C_13  and  C_14
REMARK    7  A    between atoms: C_14  and  O_15
REMARK    8  A    between atoms: O_15  and  C_16
REMARK    9  A    between atoms: C_21  and  O_22
REMARK   10  A    between atoms: O_22  and  C_23
REMARK                            x       y       z     vdW  Elec       q    Type
REMARK                         _______ _______ _______ _____ _____    ______ ____
ROOT
ATOM      1  C   UNL     1       6.641   4.805  14.786  0.00  0.00    +0.000 C 
ATOM      2  O   UNL     1       7.637   5.075  14.105  0.00  0.00    +0.000 OA
ATOM      3  N   UNL     1       6.475   5.305  16.078  0.00  0.00    +0.000 N 
ATOM      4  C   UNL     1       7.437   6.342  16.454  0.00  0.00    +0.000 C 
ATOM      5  C   UNL     1       7.123   6.879  17.841  0.00  0.00    +0.000 C 
ATOM      6  S   UNL     1       6.059   5.657  18.627  0.00  0.00    +0.000 S 
ATOM      7  C   UNL     1       6.160   4.463  17.240  0.00  0.00    +0.000 C 
ENDROOT
BRANCH   1   8
ATOM      8  C   UNL     1       5.471   4.116  14.142  0.00  0.00    +0.000 C 
BRANCH   8   9
ATOM      9  C   UNL     1       5.678   3.705  12.719  0.00  0.00    +0.000 C 
ATOM     10  O   UNL     1       6.657   3.131  12.267  0.00  0.00    +0.000 OA
BRANCH   9  11
ATOM     11  O   UNL     1       4.564   4.053  12.009  0.00  0.00    +0.000 OA
BRANCH  11  13
ATOM     12  C   UNL     1       3.252   3.736  10.041  0.00  0.00    +0.000 C 
ATOM     13  C   UNL     1       4.003   3.042  11.161  0.00  0.00    +0.000 C 
ENDBRANCH  11  13
ENDBRANCH   9  11
ENDBRANCH   8   9
ENDBRANCH   1   8
BRANCH   7  14
ATOM     14  C   UNL     1       4.906   3.581  17.209  0.00  0.00    +0.000 C 
BRANCH  14  15
ATOM     15  O   UNL     1       3.711   4.386  17.209  0.00  0.00    +0.000 OA
BRANCH  15  16
ATOM     16  C   UNL     1       2.760   3.946  18.095  0.00  0.00    +0.000 A 
ATOM     17  C   UNL     1       2.220   2.653  17.963  0.00  0.00    +0.000 A 
ATOM     18  C   UNL     1       1.211   2.202  18.811  0.00  0.00    +0.000 A 
ATOM     19  C   UNL     1       0.761   3.021  19.834  0.00  0.00    +0.000 A 
ATOM     20  C   UNL     1       1.349   4.271  20.026  0.00  0.00    +0.000 A 
ATOM     21  C   UNL     1       2.357   4.747  19.173  0.00  0.00    +0.000 A 
BRANCH  21  22
ATOM     22  O   UNL     1       2.811   5.979  19.559  0.00  0.00    +0.000 OA
ATOM     23  C   UNL     1       2.453   7.119  18.798  0.00  0.00    +0.000 C 
ENDBRANCH  21  22
ENDBRANCH  15  16
ENDBRANCH  14  15
ENDBRANCH   7  14
TORSDOF 8
ENDMDL
MODEL 5
REMARK VINA RESULT:      -6.6      2.593      4.678
REMARK  Name = 
REMARK  10 active torsions:
REMARK  status: ('A' for Active; 'I' for Inactive)
REMARK    1  A    between atoms: C_1  and  C_2
REMARK    2  A    between atoms: C_2  and  O_3
REMARK    3  A    between atoms: O_3  and  C_4
REMARK    4  A    between atoms: C_4  and  C_6
REMARK    5  A    between atoms: C_6  and  C_7
REMARK    6  A    between atoms: C_13  and  C_14
REMARK    7  A    between atoms: C_14  and  O_15
REMARK    8  A    between atoms: O_15  and  C_16
REMARK    9  A    between atoms: C_21  and  O_22
REMARK   10  A    between atoms: O_22  and  C_23
REMARK                            x       y       z     vdW  Elec       q    Type
REMARK                         _______ _______ _______ _____ _____    ______ ____
ROOT
ATOM      1  C   UNL     1       2.759   3.511  17.499  0.00  0.00    +0.000 C 
ATOM      2  O   UNL     1       2.843   2.365  17.042  0.00  0.00    +0.000 OA
ATOM      3  N   UNL     1       3.789   4.441  17.347  0.00  0.00    +0.000 N 
ATOM      4  C   UNL     1       4.842   4.032  16.417  0.00  0.00    +0.000 C 
ATOM      5  C   UNL     1       5.869   5.141  16.258  0.00  0.00    +0.000 C 
ATOM      6  S   UNL     1       5.644   6.243  17.665  0.00  0.00    +0.000 S 
ATOM      7  C   UNL     1       4.367   5.200  18.464  0.00  0.00    +0.000 C 
ENDROOT
BRANCH   1   8
ATOM      8  C   UNL     1       1.440   4.000  18.030  0.00  0.00    +0.000 C 
BRANCH   8   9
ATOM      9  C   UNL     1       0.781   3.099  19.025  0.00  0.00    +0.000 C 
ATOM     10  O   UNL     1       0.267   2.016  18.791  0.00  0.00    +0.000 OA
BRANCH   9  11
ATOM     11  O   UNL     1       0.881   3.681  20.257  0.00  0.00    +0.000 OA
BRANCH  11  13
ATOM     12  C   UNL     1       2.875   2.703  21.129  0.00  0.00    +0.000 C 
ATOM     13  C   UNL     1       1.378   2.853  21.317  0.00  0.00    +0.000 C 
ENDBRANCH  11  13
ENDBRANCH   9  11
ENDBRANCH   8   9
ENDBRANCH   1   8
BRANCH   7  14
ATOM     14  C   UNL     1       3.450   6.064  19.339  0.00  0.00    +0.000 C 
BRANCH  14  15
ATOM     15  O   UNL     1       2.865   7.132  18.570  0.00  0.00    +0.000 OA
BRANCH  15  16
ATOM     16  C   UNL     1       2.034   7.939  19.308  0.00  0.00    +0.000 A 
ATOM     17  C   UNL     1       1.589   7.519  20.575  0.00  0.00    +0.000 A 
ATOM     18  C   UNL     1       0.699   8.289  21.320  0.00  0.00    +0.000 A 
ATOM     19  C   UNL     1       0.277   9.515  20.827  0.00  0.00    +0.000 A 
ATOM     20  C   UNL     1       0.779   9.978  19.611  0.00  0.00    +0.000 A 
ATOM     21  C   UNL     1       1.667   9.209  18.842  0.00  0.00    +0.000 A 
BRANCH  21  22
ATOM     22  O   UNL     1       2.054   9.864  17.704  0.00  0.00    +0.000 OA
ATOM     23  C   UNL     1       2.341  11.250  17.766  0.00  0.00    +0.000 C 
ENDBRANCH  21  22
ENDBRANCH  15  16
ENDBRANCH  14  15
ENDBRANCH   7  14
TORSDOF 8
ENDMDL
MODEL 6
REMARK VINA RESULT:      -6.5      1.235      1.376
REMARK  Name = 
REMARK  10 active torsions:
REMARK  status: ('A' for Active; 'I' for Inactive)
REMARK    1  A    between atoms: C_1  and  C_2
REMARK    2  A    between atoms: C_2  and  O_3
REMARK    3  A    between atoms: O_3  and  C_4
REMARK    4  A    between atoms: C_4  and  C_6
REMARK    5  A    between atoms: C_6  and  C_7
REMARK    6  A    between atoms: C_13  and  C_14
REMARK    7  A    between atoms: C_14  and  O_15
REMARK    8  A    between atoms: O_15  and  C_16
REMARK    9  A    between atoms: C_21  and  O_22
REMARK   10  A    between atoms: O_22  and  C_23
REMARK                            x       y       z     vdW  Elec       q    Type
REMARK                         _______ _______ _______ _____ _____    ______ ____
ROOT
ATOM      1  C   UNL     1       3.937   3.457  17.830  0.00  0.00    +0.000 C 
ATOM      2  O   UNL     1       4.069   2.300  17.416  0.00  0.00    +0.000 OA
ATOM      3  N   UNL     1       3.214   3.746  18.989  0.00  0.00    +0.000 N 
ATOM      4  C   UNL     1       2.842   2.572  19.779  0.00  0.00    +0.000 C 
ATOM      5  C   UNL     1       2.134   2.995  21.056  0.00  0.00    +0.000 C 
ATOM      6  S   UNL     1       1.586   4.691  20.792  0.00  0.00    +0.000 S 
ATOM      7  C   UNL     1       2.147   4.755  19.048  0.00  0.00    +0.000 C 
ENDROOT
BRANCH   1   8
ATOM      8  C   UNL     1       4.756   4.559  17.218  0.00  0.00    +0.000 C 
BRANCH   8   9
ATOM      9  C   UNL     1       5.996   4.924  17.971  0.00  0.00    +0.000 C 
ATOM     10  O   UNL     1       6.691   4.167  18.631  0.00  0.00    +0.000 OA
BRANCH   9  11
ATOM     11  O   UNL     1       6.242   6.253  17.768  0.00  0.00    +0.000 OA
BRANCH  11  13
ATOM     12  C   UNL     1       7.724   8.107  17.531  0.00  0.00    +0.000 C 
ATOM     13  C   UNL     1       7.546   6.725  18.130  0.00  0.00    +0.000 C 
ENDBRANCH  11  13
ENDBRANCH   9  11
ENDBRANCH   8   9
ENDBRANCH   1   8
BRANCH   7  14
ATOM     14  C   UNL     1       2.459   6.201  18.645  0.00  0.00    +0.000 C 
BRANCH  14  15
ATOM     15  O   UNL     1       2.410   7.075  19.790  0.00  0.00    +0.000 OA
BRANCH  15  16
ATOM     16  C   UNL     1       1.825   8.288  19.522  0.00  0.00    +0.000 A 
ATOM     17  C   UNL     1       2.001   8.891  18.262  0.00  0.00    +0.000 A 
ATOM     18  C   UNL     1       1.469  10.147  17.983  0.00  0.00    +0.000 A 
ATOM     19  C   UNL     1       0.713  10.799  18.945  0.00  0.00    +0.000 A 
ATOM     20  C   UNL     1       0.461  10.172  20.165  0.00  0.00    +0.000 A 
ATOM     21  C   UNL     1       1.001   8.912  20.468  0.00  0.00    +0.000 A 
BRANCH  21  22
ATOM     22  O   UNL     1       0.605   8.473  21.702  0.00  0.00    +0.000 OA
ATOM     23  C   UNL     1       0.066   9.400  22.629  0.00  0.00    +0.000 C 
ENDBRANCH  21  22
ENDBRANCH  15  16
ENDBRANCH  14  15
ENDBRANCH   7  14
TORSDOF 8
ENDMDL
MODEL 7
REMARK VINA RESULT:      -6.5      1.370      1.785
REMARK  Name = 
REMARK  10 active torsions:
REMARK  status: ('A' for Active; 'I' for Inactive)
REMARK    1  A    between atoms: C_1  and  C_2
REMARK    2  A    between atoms: C_2  and  O_3
REMARK    3  A    between atoms: O_3  and  C_4
REMARK    4  A    between atoms: C_4  and  C_6
REMARK    5  A    between atoms: C_6  and  C_7
REMARK    6  A    between atoms: C_13  and  C_14
REMARK    7  A    between atoms: C_14  and  O_15
REMARK    8  A    between atoms: O_15  and  C_16
REMARK    9  A    between atoms: C_21  and  O_22
REMARK   10  A    between atoms: O_22  and  C_23
REMARK                            x       y       z     vdW  Elec       q    Type
REMARK                         _______ _______ _______ _____ _____    ______ ____
ROOT
ATOM      1  C   UNL     1       2.930   3.702  17.415  0.00  0.00    +0.000 C 
ATOM      2  O   UNL     1       2.505   2.865  16.612  0.00  0.00    +0.000 OA
ATOM      3  N   UNL     1       2.651   3.621  18.780  0.00  0.00    +0.000 N 
ATOM      4  C   UNL     1       2.033   2.362  19.197  0.00  0.00    +0.000 C 
ATOM      5  C   UNL     1       1.845   2.337  20.706  0.00  0.00    +0.000 C 
ATOM      6  S   UNL     1       1.961   4.049  21.257  0.00  0.00    +0.000 S 
ATOM      7  C   UNL     1       2.105   4.737  19.564  0.00  0.00    +0.000 C 
ENDROOT
BRANCH   1   8
ATOM      8  C   UNL     1       3.959   4.702  16.965  0.00  0.00    +0.000 C 
BRANCH   8   9
ATOM      9  C   UNL     1       5.340   4.156  16.785  0.00  0.00    +0.000 C 
ATOM     10  O   UNL     1       5.783   3.628  15.777  0.00  0.00    +0.000 OA
BRANCH   9  11
ATOM     11  O   UNL     1       6.040   4.381  17.937  0.00  0.00    +0.000 OA
BRANCH  11  13
ATOM     12  C   UNL     1       7.714   5.861  18.774  0.00  0.00    +0.000 C 
ATOM     13  C   UNL     1       7.418   4.747  17.788  0.00  0.00    +0.000 C 
ENDBRANCH  11  13
ENDBRANCH   9  11
ENDBRANCH   8   9
ENDBRANCH   1   8
BRANCH   7  14
ATOM     14  C   UNL     1       2.861   6.071  19.598  0.00  0.00    +0.000 C 
BRANCH  14  15
ATOM     15  O   UNL     1       2.220   7.001  20.493  0.00  0.00    +0.000 OA
BRANCH  15  16
ATOM     16  C   UNL     1       1.705   8.101  19.852  0.00  0.00    +0.000 A 
ATOM     17  C   UNL     1       2.135   8.424  18.552  0.00  0.00    +0.000 A 
ATOM     18  C   UNL     1       1.675   9.567  17.902  0.00  0.00    +0.000 A 
ATOM     19  C   UNL     1       0.738  10.377  18.526  0.00  0.00    +0.000 A 
ATOM     20  C   UNL     1       0.241  10.018  19.778  0.00  0.00    +0.000 A 
ATOM     21  C   UNL     1       0.705   8.878  20.453  0.00  0.00    +0.000 A 
BRANCH  21  22
ATOM     22  O   UNL     1       0.064   8.699  21.649  0.00  0.00    +0.000 OA
ATOM     23  C   UNL     1       0.374   9.554  22.736  0.00  0.00    +0.000 C 
ENDBRANCH  21  22
ENDBRANCH  15  16
ENDBRANCH  14  15
ENDBRANCH   7  14
TORSDOF 8
ENDMDL
MODEL 8
REMARK VINA RESULT:      -6.5      1.882      5.843
REMARK  Name = 
REMARK  10 active torsions:
REMARK  status: ('A' for Active; 'I' for Inactive)
REMARK    1  A    between atoms: C_1  and  C_2
REMARK    2  A    between atoms: C_2  and  O_3
REMARK    3  A    between atoms: O_3  and  C_4
REMARK    4  A    between atoms: C_4  and  C_6
REMARK    5  A    between atoms: C_6  and  C_7
REMARK    6  A    between atoms: C_13  and  C_14
REMARK    7  A    between atoms: C_14  and  O_15
REMARK    8  A    between atoms: O_15  and  C_16
REMARK    9  A    between atoms: C_21  and  O_22
REMARK   10  A    between atoms: O_22  and  C_23
REMARK                            x       y       z     vdW  Elec       q    Type
REMARK                         _______ _______ _______ _____ _____    ______ ____
ROOT
ATOM      1  C   UNL     1       2.216   6.196  19.570  0.00  0.00    +0.000 C 
ATOM      2  O   UNL     1       1.906   6.959  20.492  0.00  0.00    +0.000 OA
ATOM      3  N   UNL     1       2.514   4.851  19.796  0.00  0.00    +0.000 N 
ATOM      4  C   UNL     1       2.200   4.380  21.145  0.00  0.00    +0.000 C 
ATOM      5  C   UNL     1       2.481   2.891  21.266  0.00  0.00    +0.000 C 
ATOM      6  S   UNL     1       3.568   2.469  19.892  0.00  0.00    +0.000 S 
ATOM      7  C   UNL     1       3.734   4.197  19.303  0.00  0.00    +0.000 C 
ENDROOT
BRANCH   1   8
ATOM      8  C   UNL     1       2.049   6.651  18.147  0.00  0.00    +0.000 C 
BRANCH   8   9
ATOM      9  C   UNL     1       2.908   7.808  17.744  0.00  0.00    +0.000 C 
ATOM     10  O   UNL     1       4.128   7.852  17.787  0.00  0.00    +0.000 OA
BRANCH   9  11
ATOM     11  O   UNL     1       2.093   8.803  17.285  0.00  0.00    +0.000 OA
BRANCH  11  13
ATOM     12  C   UNL     1       0.302   9.989  18.324  0.00  0.00    +0.000 C 
ATOM     13  C   UNL     1       1.809   9.871  18.199  0.00  0.00    +0.000 C 
ENDBRANCH  11  13
ENDBRANCH   9  11
ENDBRANCH   8   9
ENDBRANCH   1   8
BRANCH   7  14
ATOM     14  C   UNL     1       4.040   4.216  17.800  0.00  0.00    +0.000 C 
BRANCH  14  15
ATOM     15  O   UNL     1       5.418   3.876  17.552  0.00  0.00    +0.000 OA
BRANCH  15  16
ATOM     16  C   UNL     1       6.277   4.931  17.733  0.00  0.00    +0.000 A 
ATOM     17  C   UNL     1       6.936   5.099  18.966  0.00  0.00    +0.000 A 
ATOM     18  C   UNL     1       7.766   6.193  19.197  0.00  0.00    +0.000 A 
ATOM     19  C   UNL     1       7.988   7.110  18.182  0.00  0.00    +0.000 A 
ATOM     20  C   UNL     1       7.408   6.906  16.930  0.00  0.00    +0.000 A 
ATOM     21  C   UNL     1       6.558   5.816  16.683  0.00  0.00    +0.000 A 
BRANCH  21  22
ATOM     22  O   UNL     1       6.125   5.792  15.385  0.00  0.00    +0.000 OA
ATOM     23  C   UNL     1       6.706   4.872  14.477  0.00  0.00    +0.000 C 
ENDBRANCH  21  22
ENDBRANCH  15  16
ENDBRANCH  14  15
ENDBRANCH   7  14
TORSDOF 8
ENDMDL
MODEL 9
REMARK VINA RESULT:      -6.5      1.454      1.749
REMARK  Name = 
REMARK  10 active torsions:
REMARK  status: ('A' for Active; 'I' for Inactive)
REMARK    1  A    between atoms: C_1  and  C_2
REMARK    2  A    between atoms: C_2  and  O_3
REMARK    3  A    between atoms: O_3  and  C_4
REMARK    4  A    between atoms: C_4  and  C_6
REMARK    5  A    between atoms: C_6  and  C_7
REMARK    6  A    between atoms: C_13  and  C_14
REMARK    7  A    between atoms: C_14  and  O_15
REMARK    8  A    between atoms: O_15  and  C_16
REMARK    9  A    between atoms: C_21  and  O_22
REMARK   10  A    between atoms: O_22  and  C_23
REMARK                            x       y       z     vdW  Elec       q    Type
REMARK                         _______ _______ _______ _____ _____    ______ ____
ROOT
ATOM      1  C   UNL     1       3.891   4.806  17.532  0.00  0.00    +0.000 C 
ATOM      2  O   UNL     1       3.956   3.925  16.667  0.00  0.00    +0.000 OA
ATOM      3  N   UNL     1       3.364   4.555  18.800  0.00  0.00    +0.000 N 
ATOM      4  C   UNL     1       3.127   3.140  19.087  0.00  0.00    +0.000 C 
ATOM      5  C   UNL     1       2.634   2.964  20.514  0.00  0.00    +0.000 C 
ATOM      6  S   UNL     1       2.048   4.581  21.049  0.00  0.00    +0.000 S 
ATOM      7  C   UNL     1       2.319   5.379  19.422  0.00  0.00    +0.000 C 
ENDROOT
BRANCH   1   8
ATOM      8  C   UNL     1       4.599   6.113  17.310  0.00  0.00    +0.000 C 
BRANCH   8   9
ATOM      9  C   UNL     1       5.684   6.082  16.280  0.00  0.00    +0.000 C 
ATOM     10  O   UNL     1       5.576   6.402  15.106  0.00  0.00    +0.000 OA
BRANCH   9  11
ATOM     11  O   UNL     1       6.834   5.665  16.888  0.00  0.00    +0.000 OA
BRANCH  11  13
ATOM     12  C   UNL     1       7.724   7.792  17.503  0.00  0.00    +0.000 C 
ATOM     13  C   UNL     1       7.279   6.435  18.013  0.00  0.00    +0.000 C 
ENDBRANCH  11  13
ENDBRANCH   9  11
ENDBRANCH   8   9
ENDBRANCH   1   8
BRANCH   7  14
ATOM     14  C   UNL     1       2.560   6.883  19.604  0.00  0.00    +0.000 C 
BRANCH  14  15
ATOM     15  O   UNL     1       1.607   7.448  20.525  0.00  0.00    +0.000 OA
BRANCH  15  16
ATOM     16  C   UNL     1       1.315   8.764  20.264  0.00  0.00    +0.000 A 
ATOM     17  C   UNL     1       1.222   9.214  18.934  0.00  0.00    +0.000 A 
ATOM     18  C   UNL     1       0.987  10.554  18.640  0.00  0.00    +0.000 A 
ATOM     19  C   UNL     1       0.793  11.457  19.674  0.00  0.00    +0.000 A 
ATOM     20  C   UNL     1       0.798  11.006  20.993  0.00  0.00    +0.000 A 
ATOM     21  C   UNL     1       1.047   9.660  21.308  0.00  0.00    +0.000 A 
BRANCH  21  22
ATOM     22  O   UNL     1       0.977   9.431  22.655  0.00  0.00    +0.000 OA
ATOM     23  C   UNL     1      -0.267   9.576  23.319  0.00  0.00    +0.000 C 
ENDBRANCH  21  22
ENDBRANCH  15  16
ENDBRANCH  14  15
ENDBRANCH   7  14
TORSDOF 8
ENDMDL
