MODEL 1
REMARK VINA RESULT:      -8.5      0.000      0.000
REMARK  Name = 
REMARK  3 active torsions:
REMARK  status: ('A' for Active; 'I' for Inactive)
REMARK    1  A    between atoms: C_4  and  C_5
REMARK    2  A    between atoms: C_10  and  C_11
REMARK    3  A    between atoms: N_13  and  C_14
REMARK                            x       y       z     vdW  Elec       q    Type
REMARK                         _______ _______ _______ _____ _____    ______ ____
ROOT
ATOM      1  C   UNL     1       2.755   7.038  19.112  0.00  0.00    +0.000 C 
ATOM      2  C   UNL     1       2.296   7.849  17.887  0.00  0.00    +0.000 C 
ATOM      3  N   UNL     1       1.805   8.869  18.782  0.00  0.00    +0.000 N 
ATOM      4  C   UNL     1       1.832   8.027  19.919  0.00  0.00    +0.000 C 
ENDROOT
BRANCH   3   5
ATOM      5  C   UNL     1       1.174  10.076  18.431  0.00  0.00    +0.000 A 
ATOM      6  N   UNL     1       1.950  11.183  18.513  0.00  0.00    +0.000 NA
ATOM      7  N   UNL     1       1.404  12.431  18.543  0.00  0.00    +0.000 NA
ATOM      8  C   UNL     1       0.086  12.543  18.716  0.00  0.00    +0.000 A 
ATOM      9  C   UNL     1      -0.763  11.479  18.686  0.00  0.00    +0.000 A 
ATOM     10  C   UNL     1      -2.140  11.698  18.881  0.00  0.00    +0.000 A 
ATOM     11  C   UNL     1      -3.027  10.929  18.153  0.00  0.00    +0.000 A 
ATOM     12  C   UNL     1      -2.519   9.932  17.345  0.00  0.00    +0.000 A 
ATOM     13  C   UNL     1      -1.168   9.517  17.456  0.00  0.00    +0.000 A 
ATOM     14  C   UNL     1      -0.241  10.253  18.231  0.00  0.00    +0.000 A 
ENDBRANCH   3   5
BRANCH   1  20
ATOM     15  C   UNL     1       3.191   4.332  18.826  0.00  0.00    +0.000 A 
ATOM     16  N   UNL     1       2.800   3.067  19.195  0.00  0.00    +0.000 NA
ATOM     17  C   UNL     1       1.757   2.937  20.026  0.00  0.00    +0.000 A 
ATOM     18  C   UNL     1       1.078   4.033  20.481  0.00  0.00    +0.000 A 
ATOM     19  N   UNL     1       1.417   5.289  20.124  0.00  0.00    +0.000 NA
ATOM     20  C   UNL     1       2.488   5.473  19.287  0.00  0.00    +0.000 A 
BRANCH  15  24
ATOM     21  C   UNL     1       6.824   4.558  16.507  0.00  0.00    +0.000 A 
ATOM     22  C   UNL     1       6.857   4.721  17.883  0.00  0.00    +0.000 A 
ATOM     23  C   UNL     1       5.680   4.562  18.622  0.00  0.00    +0.000 A 
ATOM     24  C   UNL     1       4.430   4.255  18.014  0.00  0.00    +0.000 A 
ATOM     25  C   UNL     1       4.436   4.081  16.625  0.00  0.00    +0.000 A 
ATOM     26  C   UNL     1       5.621   4.230  15.882  0.00  0.00    +0.000 A 
ENDBRANCH  15  24
ENDBRANCH   1  20
TORSDOF 3
ENDMDL
MODEL 2
REMARK VINA RESULT:      -8.5      0.396      1.018
REMARK  Name = 
REMARK  3 active torsions:
REMARK  status: ('A' for Active; 'I' for Inactive)
REMARK    1  A    between atoms: C_4  and  C_5
REMARK    2  A    between atoms: C_10  and  C_11
REMARK    3  A    between atoms: N_13  and  C_14
REMARK                            x       y       z     vdW  Elec       q    Type
REMARK                         _______ _______ _______ _____ _____    ______ ____
ROOT
ATOM      1  C   UNL     1       2.614   7.376  19.346  0.00  0.00    +0.000 C 
ATOM      2  C   UNL     1       2.225   8.201  18.105  0.00  0.00    +0.000 C 
ATOM      3  N   UNL     1       1.552   9.135  18.974  0.00  0.00    +0.000 N 
ATOM      4  C   UNL     1       1.524   8.248  20.076  0.00  0.00    +0.000 C 
ENDROOT
BRANCH   3   5
ATOM      5  C   UNL     1       0.861  10.301  18.596  0.00  0.00    +0.000 A 
ATOM      6  N   UNL     1       1.533  11.462  18.784  0.00  0.00    +0.000 NA
ATOM      7  N   UNL     1       0.887  12.662  18.795  0.00  0.00    +0.000 NA
ATOM      8  C   UNL     1      -0.446  12.664  18.841  0.00  0.00    +0.000 A 
ATOM      9  C   UNL     1      -1.199  11.539  18.698  0.00  0.00    +0.000 A 
ATOM     10  C   UNL     1      -2.602  11.642  18.763  0.00  0.00    +0.000 A 
ATOM     11  C   UNL     1      -3.350  10.833  17.931  0.00  0.00    +0.000 A 
ATOM     12  C   UNL     1      -2.688   9.908  17.149  0.00  0.00    +0.000 A 
ATOM     13  C   UNL     1      -1.324   9.596  17.381  0.00  0.00    +0.000 A 
ATOM     14  C   UNL     1      -0.538  10.374  18.263  0.00  0.00    +0.000 A 
ENDBRANCH   3   5
BRANCH   1  20
ATOM     15  C   UNL     1       3.254   4.731  18.914  0.00  0.00    +0.000 A 
ATOM     16  N   UNL     1       2.959   3.421  19.210  0.00  0.00    +0.000 NA
ATOM     17  C   UNL     1       1.927   3.167  20.026  0.00  0.00    +0.000 A 
ATOM     18  C   UNL     1       1.166   4.182  20.536  0.00  0.00    +0.000 A 
ATOM     19  N   UNL     1       1.410   5.477  20.250  0.00  0.00    +0.000 NA
ATOM     20  C   UNL     1       2.466   5.787  19.432  0.00  0.00    +0.000 A 
BRANCH  15  24
ATOM     21  C   UNL     1       6.871   4.458  16.575  0.00  0.00    +0.000 A 
ATOM     22  C   UNL     1       5.643   4.156  16.008  0.00  0.00    +0.000 A 
ATOM     23  C   UNL     1       4.477   4.331  16.761  0.00  0.00    +0.000 A 
ATOM     24  C   UNL     1       4.498   4.793  18.107  0.00  0.00    +0.000 A 
ATOM     25  C   UNL     1       5.753   5.104  18.642  0.00  0.00    +0.000 A 
ATOM     26  C   UNL     1       6.925   4.939  17.883  0.00  0.00    +0.000 A 
ENDBRANCH  15  24
ENDBRANCH   1  20
TORSDOF 3
ENDMDL
MODEL 3
REMARK VINA RESULT:      -8.4      2.203      3.847
REMARK  Name = 
REMARK  3 active torsions:
REMARK  status: ('A' for Active; 'I' for Inactive)
REMARK    1  A    between atoms: C_4  and  C_5
REMARK    2  A    between atoms: C_10  and  C_11
REMARK    3  A    between atoms: N_13  and  C_14
REMARK                            x       y       z     vdW  Elec       q    Type
REMARK                         _______ _______ _______ _____ _____    ______ ____
ROOT
ATOM      1  C   UNL     1       3.416   7.635  18.259  0.00  0.00    +0.000 C 
ATOM      2  C   UNL     1       2.361   8.559  17.625  0.00  0.00    +0.000 C 
ATOM      3  N   UNL     1       1.698   8.632  18.903  0.00  0.00    +0.000 N 
ATOM      4  C   UNL     1       2.373   7.507  19.432  0.00  0.00    +0.000 C 
ENDROOT
BRANCH   3   5
ATOM      5  C   UNL     1       0.528   9.348  19.215  0.00  0.00    +0.000 A 
ATOM      6  N   UNL     1      -0.084   9.947  18.166  0.00  0.00    +0.000 NA
ATOM      7  N   UNL     1      -1.002  10.937  18.350  0.00  0.00    +0.000 NA
ATOM      8  C   UNL     1      -1.130  11.463  19.569  0.00  0.00    +0.000 A 
ATOM      9  C   UNL     1      -0.522  10.947  20.672  0.00  0.00    +0.000 A 
ATOM     10  C   UNL     1      -0.716  11.577  21.917  0.00  0.00    +0.000 A 
ATOM     11  C   UNL     1      -0.811  10.776  23.039  0.00  0.00    +0.000 A 
ATOM     12  C   UNL     1      -0.621   9.417  22.891  0.00  0.00    +0.000 A 
ATOM     13  C   UNL     1      -0.078   8.879  21.697  0.00  0.00    +0.000 A 
ATOM     14  C   UNL     1       0.078   9.681  20.542  0.00  0.00    +0.000 A 
ENDBRANCH   3   5
BRANCH   1  20
ATOM     15  C   UNL     1       3.607   4.924  17.805  0.00  0.00    +0.000 A 
ATOM     16  N   UNL     1       4.132   3.933  17.009  0.00  0.00    +0.000 NA
ATOM     17  C   UNL     1       4.934   4.285  15.996  0.00  0.00    +0.000 A 
ATOM     18  C   UNL     1       5.247   5.597  15.768  0.00  0.00    +0.000 A 
ATOM     19  N   UNL     1       4.770   6.594  16.540  0.00  0.00    +0.000 NA
ATOM     20  C   UNL     1       3.932   6.284  17.580  0.00  0.00    +0.000 A 
BRANCH  15  24
ATOM     21  C   UNL     1       1.127   2.859  20.672  0.00  0.00    +0.000 A 
ATOM     22  C   UNL     1       2.284   3.505  21.079  0.00  0.00    +0.000 A 
ATOM     23  C   UNL     1       3.027   4.236  20.146  0.00  0.00    +0.000 A 
ATOM     24  C   UNL     1       2.654   4.332  18.776  0.00  0.00    +0.000 A 
ATOM     25  C   UNL     1       1.472   3.683  18.403  0.00  0.00    +0.000 A 
ATOM     26  C   UNL     1       0.718   2.956  19.341  0.00  0.00    +0.000 A 
ENDBRANCH  15  24
ENDBRANCH   1  20
TORSDOF 3
ENDMDL
MODEL 4
REMARK VINA RESULT:      -8.3      2.188      8.399
REMARK  Name = 
REMARK  3 active torsions:
REMARK  status: ('A' for Active; 'I' for Inactive)
REMARK    1  A    between atoms: C_4  and  C_5
REMARK    2  A    between atoms: C_10  and  C_11
REMARK    3  A    between atoms: N_13  and  C_14
REMARK                            x       y       z     vdW  Elec       q    Type
REMARK                         _______ _______ _______ _____ _____    ______ ____
ROOT
ATOM      1  C   UNL     1       0.992   9.661  18.750  0.00  0.00    +0.000 C 
ATOM      2  C   UNL     1       1.802   8.836  17.734  0.00  0.00    +0.000 C 
ATOM      3  N   UNL     1       1.964   7.812  18.737  0.00  0.00    +0.000 N 
ATOM      4  C   UNL     1       1.592   8.660  19.808  0.00  0.00    +0.000 C 
ENDROOT
BRANCH   3   5
ATOM      5  C   UNL     1       2.652   6.593  18.606  0.00  0.00    +0.000 A 
ATOM      6  N   UNL     1       3.796   6.646  17.882  0.00  0.00    +0.000 NA
ATOM      7  N   UNL     1       4.373   5.516  17.384  0.00  0.00    +0.000 NA
ATOM      8  C   UNL     1       3.680   4.378  17.428  0.00  0.00    +0.000 A 
ATOM      9  C   UNL     1       2.504   4.246  18.100  0.00  0.00    +0.000 A 
ATOM     10  C   UNL     1       1.844   3.002  18.086  0.00  0.00    +0.000 A 
ATOM     11  C   UNL     1       1.192   2.601  19.236  0.00  0.00    +0.000 A 
ATOM     12  C   UNL     1       1.147   3.478  20.301  0.00  0.00    +0.000 A 
ATOM     13  C   UNL     1       1.507   4.841  20.144  0.00  0.00    +0.000 A 
ATOM     14  C   UNL     1       2.134   5.297  18.961  0.00  0.00    +0.000 A 
ENDBRANCH   3   5
BRANCH   1  20
ATOM     15  C   UNL     1       0.631  12.132  19.915  0.00  0.00    +0.000 A 
ATOM     16  N   UNL     1       1.072  13.432  19.996  0.00  0.00    +0.000 NA
ATOM     17  C   UNL     1       2.089  13.812  19.212  0.00  0.00    +0.000 A 
ATOM     18  C   UNL     1       2.665  12.938  18.331  0.00  0.00    +0.000 A 
ATOM     19  N   UNL     1       2.247  11.662  18.207  0.00  0.00    +0.000 NA
ATOM     20  C   UNL     1       1.218  11.222  19.001  0.00  0.00    +0.000 A 
BRANCH  15  24
ATOM     21  C   UNL     1      -2.258  11.824  23.106  0.00  0.00    +0.000 A 
ATOM     22  C   UNL     1      -2.457  12.712  22.061  0.00  0.00    +0.000 A 
ATOM     23  C   UNL     1      -1.549  12.736  20.998  0.00  0.00    +0.000 A 
ATOM     24  C   UNL     1      -0.405  11.890  20.949  0.00  0.00    +0.000 A 
ATOM     25  C   UNL     1      -0.244  10.994  22.011  0.00  0.00    +0.000 A 
ATOM     26  C   UNL     1      -1.162  10.961  23.076  0.00  0.00    +0.000 A 
ENDBRANCH  15  24
ENDBRANCH   1  20
TORSDOF 3
ENDMDL
MODEL 5
REMARK VINA RESULT:      -8.3      1.512      1.829
REMARK  Name = 
REMARK  3 active torsions:
REMARK  status: ('A' for Active; 'I' for Inactive)
REMARK    1  A    between atoms: C_4  and  C_5
REMARK    2  A    between atoms: C_10  and  C_11
REMARK    3  A    between atoms: N_13  and  C_14
REMARK                            x       y       z     vdW  Elec       q    Type
REMARK                         _______ _______ _______ _____ _____    ______ ____
ROOT
ATOM      1  C   UNL     1       2.687   7.703  18.686  0.00  0.00    +0.000 C 
ATOM      2  C   UNL     1       2.400   8.897  17.757  0.00  0.00    +0.000 C 
ATOM      3  N   UNL     1       1.362   9.318  18.667  0.00  0.00    +0.000 N 
ATOM      4  C   UNL     1       1.298   8.070  19.331  0.00  0.00    +0.000 C 
ENDROOT
BRANCH   3   5
ATOM      5  C   UNL     1       0.524  10.441  18.541  0.00  0.00    +0.000 A 
ATOM      6  N   UNL     1       1.016  11.593  19.057  0.00  0.00    +0.000 NA
ATOM      7  N   UNL     1       0.204  12.656  19.319  0.00  0.00    +0.000 NA
ATOM      8  C   UNL     1      -1.116  12.472  19.269  0.00  0.00    +0.000 A 
ATOM      9  C   UNL     1      -1.694  11.333  18.800  0.00  0.00    +0.000 A 
ATOM     10  C   UNL     1      -3.099  11.232  18.790  0.00  0.00    +0.000 A 
ATOM     11  C   UNL     1      -3.693  10.572  17.733  0.00  0.00    +0.000 A 
ATOM     12  C   UNL     1      -2.877   9.970  16.796  0.00  0.00    +0.000 A 
ATOM     13  C   UNL     1      -1.492   9.790  17.039  0.00  0.00    +0.000 A 
ATOM     14  C   UNL     1      -0.858  10.413  18.139  0.00  0.00    +0.000 A 
ENDBRANCH   3   5
BRANCH   1  20
ATOM     15  C   UNL     1       4.047   5.451  17.866  0.00  0.00    +0.000 A 
ATOM     16  N   UNL     1       3.953   4.125  17.513  0.00  0.00    +0.000 NA
ATOM     17  C   UNL     1       2.741   3.555  17.487  0.00  0.00    +0.000 A 
ATOM     18  C   UNL     1       1.616   4.275  17.780  0.00  0.00    +0.000 A 
ATOM     19  N   UNL     1       1.665   5.583  18.108  0.00  0.00    +0.000 NA
ATOM     20  C   UNL     1       2.886   6.206  18.164  0.00  0.00    +0.000 A 
BRANCH  15  24
ATOM     21  C   UNL     1       8.091   6.815  18.507  0.00  0.00    +0.000 A 
ATOM     22  C   UNL     1       7.559   5.800  19.288  0.00  0.00    +0.000 A 
ATOM     23  C   UNL     1       6.275   5.319  19.008  0.00  0.00    +0.000 A 
ATOM     24  C   UNL     1       5.474   5.844  17.955  0.00  0.00    +0.000 A 
ATOM     25  C   UNL     1       6.049   6.855  17.176  0.00  0.00    +0.000 A 
ATOM     26  C   UNL     1       7.343   7.333  17.450  0.00  0.00    +0.000 A 
ENDBRANCH  15  24
ENDBRANCH   1  20
TORSDOF 3
ENDMDL
MODEL 6
REMARK VINA RESULT:      -8.0      1.516      1.642
REMARK  Name = 
REMARK  3 active torsions:
REMARK  status: ('A' for Active; 'I' for Inactive)
REMARK    1  A    between atoms: C_4  and  C_5
REMARK    2  A    between atoms: C_10  and  C_11
REMARK    3  A    between atoms: N_13  and  C_14
REMARK                            x       y       z     vdW  Elec       q    Type
REMARK                         _______ _______ _______ _____ _____    ______ ____
ROOT
ATOM      1  C   UNL     1       2.313   6.628  20.071  0.00  0.00    +0.000 C 
ATOM      2  C   UNL     1       2.174   7.891  19.201  0.00  0.00    +0.000 C 
ATOM      3  N   UNL     1       1.442   8.515  20.277  0.00  0.00    +0.000 N 
ATOM      4  C   UNL     1       1.187   7.296  20.947  0.00  0.00    +0.000 C 
ENDROOT
BRANCH   3   5
ATOM      5  C   UNL     1       0.898   9.812  20.294  0.00  0.00    +0.000 A 
ATOM      6  N   UNL     1       1.325  10.608  21.303  0.00  0.00    +0.000 NA
ATOM      7  N   UNL     1       0.647  11.739  21.650  0.00  0.00    +0.000 NA
ATOM      8  C   UNL     1      -0.565  11.935  21.132  0.00  0.00    +0.000 A 
ATOM      9  C   UNL     1      -1.088  11.161  20.142  0.00  0.00    +0.000 A 
ATOM     10  C   UNL     1      -2.380  11.446  19.660  0.00  0.00    +0.000 A 
ATOM     11  C   UNL     1      -2.620  11.277  18.311  0.00  0.00    +0.000 A 
ATOM     12  C   UNL     1      -1.611  10.755  17.527  0.00  0.00    +0.000 A 
ATOM     13  C   UNL     1      -0.468  10.152  18.111  0.00  0.00    +0.000 A 
ATOM     14  C   UNL     1      -0.214  10.264  19.498  0.00  0.00    +0.000 A 
ENDBRANCH   3   5
BRANCH   1  20
ATOM     15  C   UNL     1       2.661   4.387  18.506  0.00  0.00    +0.000 A 
ATOM     16  N   UNL     1       2.302   3.077  18.290  0.00  0.00    +0.000 NA
ATOM     17  C   UNL     1       1.377   2.528  19.089  0.00  0.00    +0.000 A 
ATOM     18  C   UNL     1       0.783   3.255  20.084  0.00  0.00    +0.000 A 
ATOM     19  N   UNL     1       1.093   4.548  20.311  0.00  0.00    +0.000 NA
ATOM     20  C   UNL     1       2.045   5.149  19.529  0.00  0.00    +0.000 A 
BRANCH  15  24
ATOM     21  C   UNL     1       5.600   5.598  15.587  0.00  0.00    +0.000 A 
ATOM     22  C   UNL     1       4.920   6.546  16.335  0.00  0.00    +0.000 A 
ATOM     23  C   UNL     1       4.033   6.127  17.332  0.00  0.00    +0.000 A 
ATOM     24  C   UNL     1       3.780   4.753  17.603  0.00  0.00    +0.000 A 
ATOM     25  C   UNL     1       4.496   3.823  16.841  0.00  0.00    +0.000 A 
ATOM     26  C   UNL     1       5.397   4.242  15.846  0.00  0.00    +0.000 A 
ENDBRANCH  15  24
ENDBRANCH   1  20
TORSDOF 3
ENDMDL
MODEL 7
REMARK VINA RESULT:      -8.0      1.876      2.865
REMARK  Name = 
REMARK  3 active torsions:
REMARK  status: ('A' for Active; 'I' for Inactive)
REMARK    1  A    between atoms: C_4  and  C_5
REMARK    2  A    between atoms: C_10  and  C_11
REMARK    3  A    between atoms: N_13  and  C_14
REMARK                            x       y       z     vdW  Elec       q    Type
REMARK                         _______ _______ _______ _____ _____    ______ ____
ROOT
ATOM      1  C   UNL     1       2.744   7.798  18.528  0.00  0.00    +0.000 C 
ATOM      2  C   UNL     1       1.976   8.834  17.688  0.00  0.00    +0.000 C 
ATOM      3  N   UNL     1       1.295   9.258  18.887  0.00  0.00    +0.000 N 
ATOM      4  C   UNL     1       1.651   8.101  19.620  0.00  0.00    +0.000 C 
ENDROOT
BRANCH   3   5
ATOM      5  C   UNL     1       0.323  10.269  19.001  0.00  0.00    +0.000 A 
ATOM      6  N   UNL     1      -0.907   9.948  18.533  0.00  0.00    +0.000 NA
ATOM      7  N   UNL     1      -1.835  10.908  18.260  0.00  0.00    +0.000 NA
ATOM      8  C   UNL     1      -1.443  12.182  18.248  0.00  0.00    +0.000 A 
ATOM      9  C   UNL     1      -0.212  12.589  18.665  0.00  0.00    +0.000 A 
ATOM     10  C   UNL     1       0.110  13.959  18.611  0.00  0.00    +0.000 A 
ATOM     11  C   UNL     1       0.887  14.481  19.626  0.00  0.00    +0.000 A 
ATOM     12  C   UNL     1       1.379  13.618  20.584  0.00  0.00    +0.000 A 
ATOM     13  C   UNL     1       1.329  12.213  20.398  0.00  0.00    +0.000 A 
ATOM     14  C   UNL     1       0.581  11.644  19.342  0.00  0.00    +0.000 A 
ENDBRANCH   3   5
BRANCH   1  20
ATOM     15  C   UNL     1       4.104   5.498  17.852  0.00  0.00    +0.000 A 
ATOM     16  N   UNL     1       4.009   4.157  17.565  0.00  0.00    +0.000 NA
ATOM     17  C   UNL     1       2.793   3.593  17.543  0.00  0.00    +0.000 A 
ATOM     18  C   UNL     1       1.668   4.335  17.776  0.00  0.00    +0.000 A 
ATOM     19  N   UNL     1       1.720   5.656  18.038  0.00  0.00    +0.000 NA
ATOM     20  C   UNL     1       2.943   6.275  18.087  0.00  0.00    +0.000 A 
BRANCH  15  24
ATOM     21  C   UNL     1       8.149   6.847  18.522  0.00  0.00    +0.000 A 
ATOM     22  C   UNL     1       7.610   5.830  19.294  0.00  0.00    +0.000 A 
ATOM     23  C   UNL     1       6.327   5.354  19.004  0.00  0.00    +0.000 A 
ATOM     24  C   UNL     1       5.533   5.887  17.951  0.00  0.00    +0.000 A 
ATOM     25  C   UNL     1       6.114   6.901  17.181  0.00  0.00    +0.000 A 
ATOM     26  C   UNL     1       7.408   7.373  17.463  0.00  0.00    +0.000 A 
ENDBRANCH  15  24
ENDBRANCH   1  20
TORSDOF 3
ENDMDL
MODEL 8
REMARK VINA RESULT:      -8.0      1.462      1.876
REMARK  Name = 
REMARK  3 active torsions:
REMARK  status: ('A' for Active; 'I' for Inactive)
REMARK    1  A    between atoms: C_4  and  C_5
REMARK    2  A    between atoms: C_10  and  C_11
REMARK    3  A    between atoms: N_13  and  C_14
REMARK                            x       y       z     vdW  Elec       q    Type
REMARK                         _______ _______ _______ _____ _____    ______ ____
ROOT
ATOM      1  C   UNL     1       2.461   6.104  20.101  0.00  0.00    +0.000 C 
ATOM      2  C   UNL     1       2.475   7.448  19.350  0.00  0.00    +0.000 C 
ATOM      3  N   UNL     1       1.616   7.994  20.373  0.00  0.00    +0.000 N 
ATOM      4  C   UNL     1       1.241   6.727  20.878  0.00  0.00    +0.000 C 
ENDROOT
BRANCH   3   5
ATOM      5  C   UNL     1       1.105   9.303  20.445  0.00  0.00    +0.000 A 
ATOM      6  N   UNL     1       1.435   9.995  21.562  0.00  0.00    +0.000 NA
ATOM      7  N   UNL     1       0.751  11.114  21.931  0.00  0.00    +0.000 NA
ATOM      8  C   UNL     1      -0.390  11.396  21.301  0.00  0.00    +0.000 A 
ATOM      9  C   UNL     1      -0.816  10.728  20.194  0.00  0.00    +0.000 A 
ATOM     10  C   UNL     1      -2.038  11.098  19.600  0.00  0.00    +0.000 A 
ATOM     11  C   UNL     1      -2.128  11.054  18.223  0.00  0.00    +0.000 A 
ATOM     12  C   UNL     1      -1.050  10.565  17.512  0.00  0.00    +0.000 A 
ATOM     13  C   UNL     1       0.005   9.876  18.163  0.00  0.00    +0.000 A 
ATOM     14  C   UNL     1       0.103   9.860  19.574  0.00  0.00    +0.000 A 
ENDBRANCH   3   5
BRANCH   1  20
ATOM     15  C   UNL     1       3.021   3.964  18.457  0.00  0.00    +0.000 A 
ATOM     16  N   UNL     1       2.643   2.705  18.052  0.00  0.00    +0.000 NA
ATOM     17  C   UNL     1       1.531   2.172  18.575  0.00  0.00    +0.000 A 
ATOM     18  C   UNL     1       0.771   2.868  19.475  0.00  0.00    +0.000 A 
ATOM     19  N   UNL     1       1.097   4.112  19.880  0.00  0.00    +0.000 NA
ATOM     20  C   UNL     1       2.236   4.694  19.384  0.00  0.00    +0.000 A 
BRANCH  15  24
ATOM     21  C   UNL     1       6.906   4.520  16.661  0.00  0.00    +0.000 A 
ATOM     22  C   UNL     1       5.816   4.163  15.883  0.00  0.00    +0.000 A 
ATOM     23  C   UNL     1       4.552   4.068  16.474  0.00  0.00    +0.000 A 
ATOM     24  C   UNL     1       4.335   4.308  17.859  0.00  0.00    +0.000 A 
ATOM     25  C   UNL     1       5.453   4.684  18.612  0.00  0.00    +0.000 A 
ATOM     26  C   UNL     1       6.723   4.789  18.018  0.00  0.00    +0.000 A 
ENDBRANCH  15  24
ENDBRANCH   1  20
TORSDOF 3
ENDMDL
MODEL 9
REMARK VINA RESULT:      -7.9      2.118      2.833
REMARK  Name = 
REMARK  3 active torsions:
REMARK  status: ('A' for Active; 'I' for Inactive)
REMARK    1  A    between atoms: C_4  and  C_5
REMARK    2  A    between atoms: C_10  and  C_11
REMARK    3  A    between atoms: N_13  and  C_14
REMARK                            x       y       z     vdW  Elec       q    Type
REMARK                         _______ _______ _______ _____ _____    ______ ____
ROOT
ATOM      1  C   UNL     1       2.098   5.718  19.557  0.00  0.00    +0.000 C 
ATOM      2  C   UNL     1       1.234   6.270  20.705  0.00  0.00    +0.000 C 
ATOM      3  N   UNL     1       1.654   7.602  20.341  0.00  0.00    +0.000 N 
ATOM      4  C   UNL     1       2.744   7.154  19.558  0.00  0.00    +0.000 C 
ENDROOT
BRANCH   3   5
ATOM      5  C   UNL     1       1.281   8.810  20.958  0.00  0.00    +0.000 A 
ATOM      6  N   UNL     1       1.308   8.804  22.312  0.00  0.00    +0.000 NA
ATOM      7  N   UNL     1       0.658   9.757  23.038  0.00  0.00    +0.000 NA
ATOM      8  C   UNL     1      -0.191  10.567  22.405  0.00  0.00    +0.000 A 
ATOM      9  C   UNL     1      -0.310  10.611  21.050  0.00  0.00    +0.000 A 
ATOM     10  C   UNL     1      -1.239  11.499  20.473  0.00  0.00    +0.000 A 
ATOM     11  C   UNL     1      -0.892  12.119  19.288  0.00  0.00    +0.000 A 
ATOM     12  C   UNL     1       0.300  11.766  18.690  0.00  0.00    +0.000 A 
ATOM     13  C   UNL     1       1.021  10.619  19.113  0.00  0.00    +0.000 A 
ATOM     14  C   UNL     1       0.666   9.932  20.297  0.00  0.00    +0.000 A 
ENDBRANCH   3   5
BRANCH   1  20
ATOM     15  C   UNL     1       4.428   4.265  19.328  0.00  0.00    +0.000 A 
ATOM     16  N   UNL     1       5.090   3.107  19.664  0.00  0.00    +0.000 NA
ATOM     17  C   UNL     1       4.440   2.186  20.388  0.00  0.00    +0.000 A 
ATOM     18  C   UNL     1       3.140   2.377  20.769  0.00  0.00    +0.000 A 
ATOM     19  N   UNL     1       2.451   3.489  20.440  0.00  0.00    +0.000 NA
ATOM     20  C   UNL     1       3.079   4.467  19.712  0.00  0.00    +0.000 A 
BRANCH  15  24
ATOM     21  C   UNL     1       7.248   6.618  17.063  0.00  0.00    +0.000 A 
ATOM     22  C   UNL     1       6.018   6.280  16.520  0.00  0.00    +0.000 A 
ATOM     23  C   UNL     1       5.089   5.587  17.303  0.00  0.00    +0.000 A 
ATOM     24  C   UNL     1       5.361   5.193  18.643  0.00  0.00    +0.000 A 
ATOM     25  C   UNL     1       6.605   5.565  19.165  0.00  0.00    +0.000 A 
ATOM     26  C   UNL     1       7.536   6.271  18.383  0.00  0.00    +0.000 A 
ENDBRANCH  15  24
ENDBRANCH   1  20
TORSDOF 3
ENDMDL
