MODEL 1
REMARK VINA RESULT:      -7.8      0.000      0.000
REMARK  Name = 
REMARK  9 active torsions:
REMARK  status: ('A' for Active; 'I' for Inactive)
REMARK    1  A    between atoms: C_1  and  C_2
REMARK    2  A    between atoms: C_4  and  C_5
REMARK    3  A    between atoms: C_6  and  N_7
REMARK    4  A    between atoms: C_8  and  C_10
REMARK    5  A    between atoms: C_13  and  C_14
REMARK    6  A    between atoms: N_25  and  C_26
REMARK    7  A    between atoms: C_28  and  N_29
REMARK    8  A    between atoms: C_30  and  C_31
REMARK    9  A    between atoms: C_30  and  O_32
REMARK                            x       y       z     vdW  Elec       q    Type
REMARK                         _______ _______ _______ _____ _____    ______ ____
ROOT
ATOM      1  C   UNL     1      -0.187  12.258  21.699  0.00  0.00    +0.000 A 
ATOM      2  C   UNL     1      -0.287  10.880  21.653  0.00  0.00    +0.000 A 
ATOM      3  C   UNL     1      -1.090  10.533  22.762  0.00  0.00    +0.000 A 
ATOM      4  N   UNL     1      -1.496  11.599  23.451  0.00  0.00    +0.000 NA
ATOM      5  N   UNL     1      -0.918  12.625  22.807  0.00  0.00    +0.000 N 
ATOM      6  C   UNL     1      -1.072  13.958  23.350  0.00  0.00    +0.000 C 
ENDROOT
BRANCH   1  10
ATOM      7  C   UNL     1       0.240  15.571  19.010  0.00  0.00    +0.000 C 
ATOM      8  C   UNL     1       0.821  14.188  18.713  0.00  0.00    +0.000 C 
ATOM      9  O   UNL     1       0.210  13.173  19.546  0.00  0.00    +0.000 OA
ATOM     10  C   UNL     1       0.606  13.252  20.919  0.00  0.00    +0.000 C 
ATOM     11  C   UNL     1       2.110  13.001  21.054  0.00  0.00    +0.000 C 
ATOM     12  C   UNL     1       2.911  14.027  20.235  0.00  0.00    +0.000 C 
ATOM     13  C   UNL     1       2.367  14.060  18.770  0.00  0.00    +0.000 C 
ATOM     14  C   UNL     1       3.088  15.093  17.900  0.00  0.00    +0.000 C 
BRANCH  12  15
ATOM     15  N   UNL     1       2.962  15.305  20.964  0.00  0.00    +0.000 NA
ATOM     16  H   UNL     1       2.238  15.958  20.682  0.00  0.00    +0.000 HD
ATOM     17  H   UNL     1       3.859  15.768  20.839  0.00  0.00    +0.000 HD
ENDBRANCH  12  15
BRANCH  13  18
ATOM     18  O   UNL     1       2.704  12.781  18.174  0.00  0.00    +0.000 OA
ATOM     19  H   UNL     1       2.065  12.617  17.454  0.00  0.00    +0.000 HD
ENDBRANCH  13  18
ENDBRANCH   1  10
BRANCH   2  20
ATOM     20  N   UNL     1       0.310  10.058  20.717  0.00  0.00    +0.000 N 
ATOM     21  C   UNL     1       1.180   9.044  21.068  0.00  0.00    +0.000 C 
ATOM     22  O   UNL     1       1.547   8.796  22.216  0.00  0.00    +0.000 OA
ATOM     23  H   UNL     1       0.229  10.304  19.733  0.00  0.00    +0.000 HD
BRANCH  21  24
ATOM     24  C   UNL     1       1.714   8.309  19.921  0.00  0.00    +0.000 A 
ATOM     25  C   UNL     1       1.817   8.857  18.657  0.00  0.00    +0.000 A 
ATOM     26  S   UNL     1       2.431   7.701  17.564  0.00  0.00    +0.000 S 
ATOM     27  C   UNL     1       2.537   6.537  18.837  0.00  0.00    +0.000 A 
ATOM     28  N   UNL     1       2.114   6.977  20.009  0.00  0.00    +0.000 NA
BRANCH  27  29
ATOM     29  C   UNL     1       2.966   5.156  18.577  0.00  0.00    +0.000 A 
ATOM     30  C   UNL     1       4.168   4.613  19.055  0.00  0.00    +0.000 A 
ATOM     31  F   UNL     1       4.979   5.316  19.858  0.00  0.00    +0.000 F 
ATOM     32  C   UNL     1       4.573   3.315  18.728  0.00  0.00    +0.000 A 
ATOM     33  C   UNL     1       3.769   2.516  17.924  0.00  0.00    +0.000 A 
ATOM     34  C   UNL     1       2.554   3.017  17.465  0.00  0.00    +0.000 A 
ATOM     35  C   UNL     1       2.164   4.317  17.791  0.00  0.00    +0.000 A 
ATOM     36  F   UNL     1       0.992   4.749  17.298  0.00  0.00    +0.000 F 
ENDBRANCH  27  29
ENDBRANCH  21  24
ENDBRANCH   2  20
TORSDOF 6
ENDMDL
MODEL 2
REMARK VINA RESULT:      -7.7      3.759      9.457
REMARK  Name = 
REMARK  9 active torsions:
REMARK  status: ('A' for Active; 'I' for Inactive)
REMARK    1  A    between atoms: C_1  and  C_2
REMARK    2  A    between atoms: C_4  and  C_5
REMARK    3  A    between atoms: C_6  and  N_7
REMARK    4  A    between atoms: C_8  and  C_10
REMARK    5  A    between atoms: C_13  and  C_14
REMARK    6  A    between atoms: N_25  and  C_26
REMARK    7  A    between atoms: C_28  and  N_29
REMARK    8  A    between atoms: C_30  and  C_31
REMARK    9  A    between atoms: C_30  and  O_32
REMARK                            x       y       z     vdW  Elec       q    Type
REMARK                         _______ _______ _______ _____ _____    ______ ____
ROOT
ATOM      1  C   UNL     1       3.960   5.537  17.475  0.00  0.00    +0.000 A 
ATOM      2  C   UNL     1       3.751   6.901  17.561  0.00  0.00    +0.000 A 
ATOM      3  C   UNL     1       4.581   7.463  16.568  0.00  0.00    +0.000 A 
ATOM      4  N   UNL     1       5.251   6.538  15.879  0.00  0.00    +0.000 NA
ATOM      5  N   UNL     1       4.881   5.388  16.462  0.00  0.00    +0.000 N 
ATOM      6  C   UNL     1       5.500   4.157  16.017  0.00  0.00    +0.000 C 
ENDROOT
BRANCH   1  10
ATOM      7  C   UNL     1       1.214   2.424  18.550  0.00  0.00    +0.000 C 
ATOM      8  C   UNL     1       1.603   3.547  19.511  0.00  0.00    +0.000 C 
ATOM      9  O   UNL     1       2.198   4.661  18.802  0.00  0.00    +0.000 OA
ATOM     10  C   UNL     1       3.510   4.379  18.301  0.00  0.00    +0.000 C 
ATOM     11  C   UNL     1       4.473   4.106  19.459  0.00  0.00    +0.000 C 
ATOM     12  C   UNL     1       3.987   2.917  20.305  0.00  0.00    +0.000 C 
ATOM     13  C   UNL     1       2.497   3.149  20.716  0.00  0.00    +0.000 C 
ATOM     14  C   UNL     1       1.925   1.983  21.528  0.00  0.00    +0.000 C 
BRANCH  12  15
ATOM     15  N   UNL     1       4.308   1.659  19.614  0.00  0.00    +0.000 NA
ATOM     16  H   UNL     1       3.829   1.553  18.726  0.00  0.00    +0.000 HD
ATOM     17  H   UNL     1       4.075   0.850  20.187  0.00  0.00    +0.000 HD
ENDBRANCH  12  15
BRANCH  13  18
ATOM     18  O   UNL     1       2.490   4.272  21.634  0.00  0.00    +0.000 OA
ATOM     19  H   UNL     1       3.103   4.058  22.362  0.00  0.00    +0.000 HD
ENDBRANCH  13  18
ENDBRANCH   1  10
BRANCH   2  20
ATOM     20  N   UNL     1       2.916   7.533  18.463  0.00  0.00    +0.000 N 
ATOM     21  C   UNL     1       2.155   8.634  18.121  0.00  0.00    +0.000 C 
ATOM     22  O   UNL     1       2.170   9.188  17.022  0.00  0.00    +0.000 OA
ATOM     23  H   UNL     1       2.979   7.278  19.445  0.00  0.00    +0.000 HD
BRANCH  21  24
ATOM     24  C   UNL     1       1.358   9.160  19.229  0.00  0.00    +0.000 A 
ATOM     25  C   UNL     1       1.339   8.581  20.484  0.00  0.00    +0.000 A 
ATOM     26  S   UNL     1       0.264   9.427  21.504  0.00  0.00    +0.000 S 
ATOM     27  C   UNL     1      -0.107  10.524  20.222  0.00  0.00    +0.000 A 
ATOM     28  N   UNL     1       0.515  10.261  19.086  0.00  0.00    +0.000 NA
BRANCH  27  29
ATOM     29  C   UNL     1      -1.115  11.581  20.388  0.00  0.00    +0.000 A 
ATOM     30  C   UNL     1      -1.028  12.591  21.358  0.00  0.00    +0.000 A 
ATOM     31  F   UNL     1       0.041  12.695  22.161  0.00  0.00    +0.000 F 
ATOM     32  C   UNL     1      -2.041  13.539  21.529  0.00  0.00    +0.000 A 
ATOM     33  C   UNL     1      -3.166  13.511  20.713  0.00  0.00    +0.000 A 
ATOM     34  C   UNL     1      -3.261  12.543  19.718  0.00  0.00    +0.000 A 
ATOM     35  C   UNL     1      -2.247  11.596  19.563  0.00  0.00    +0.000 A 
ATOM     36  F   UNL     1      -2.409  10.673  18.600  0.00  0.00    +0.000 F 
ENDBRANCH  27  29
ENDBRANCH  21  24
ENDBRANCH   2  20
TORSDOF 6
ENDMDL
MODEL 3
REMARK VINA RESULT:      -7.6      0.991      1.569
REMARK  Name = 
REMARK  9 active torsions:
REMARK  status: ('A' for Active; 'I' for Inactive)
REMARK    1  A    between atoms: C_1  and  C_2
REMARK    2  A    between atoms: C_4  and  C_5
REMARK    3  A    between atoms: C_6  and  N_7
REMARK    4  A    between atoms: C_8  and  C_10
REMARK    5  A    between atoms: C_13  and  C_14
REMARK    6  A    between atoms: N_25  and  C_26
REMARK    7  A    between atoms: C_28  and  N_29
REMARK    8  A    between atoms: C_30  and  C_31
REMARK    9  A    between atoms: C_30  and  O_32
REMARK                            x       y       z     vdW  Elec       q    Type
REMARK                         _______ _______ _______ _____ _____    ______ ____
ROOT
ATOM      1  C   UNL     1      -0.340  12.598  21.812  0.00  0.00    +0.000 A 
ATOM      2  C   UNL     1      -0.507  11.230  21.926  0.00  0.00    +0.000 A 
ATOM      3  C   UNL     1      -1.353  11.055  23.042  0.00  0.00    +0.000 A 
ATOM      4  N   UNL     1      -1.723  12.214  23.589  0.00  0.00    +0.000 NA
ATOM      5  N   UNL     1      -1.079  13.128  22.846  0.00  0.00    +0.000 N 
ATOM      6  C   UNL     1      -1.182  14.522  23.223  0.00  0.00    +0.000 C 
ENDROOT
BRANCH   1  10
ATOM      7  C   UNL     1       0.316  15.543  18.764  0.00  0.00    +0.000 C 
ATOM      8  C   UNL     1       0.836  14.109  18.651  0.00  0.00    +0.000 C 
ATOM      9  O   UNL     1       0.156  13.230  19.579  0.00  0.00    +0.000 OA
ATOM     10  C   UNL     1       0.520  13.454  20.945  0.00  0.00    +0.000 C 
ATOM     11  C   UNL     1       2.006  13.154  21.155  0.00  0.00    +0.000 C 
ATOM     12  C   UNL     1       2.877  14.037  20.246  0.00  0.00    +0.000 C 
ATOM     13  C   UNL     1       2.372  13.919  18.771  0.00  0.00    +0.000 C 
ATOM     14  C   UNL     1       3.165  14.807  17.807  0.00  0.00    +0.000 C 
BRANCH  12  15
ATOM     15  N   UNL     1       2.971  15.389  20.819  0.00  0.00    +0.000 NA
ATOM     16  H   UNL     1       2.504  15.479  21.716  0.00  0.00    +0.000 HD
ATOM     17  H   UNL     1       2.573  16.086  20.194  0.00  0.00    +0.000 HD
ENDBRANCH  12  15
BRANCH  13  18
ATOM     18  O   UNL     1       2.662  12.564  18.341  0.00  0.00    +0.000 OA
ATOM     19  H   UNL     1       2.712  12.008  19.142  0.00  0.00    +0.000 HD
ENDBRANCH  13  18
ENDBRANCH   1  10
BRANCH   2  20
ATOM     20  N   UNL     1       0.073  10.277  21.111  0.00  0.00    +0.000 N 
ATOM     21  C   UNL     1       1.074   9.434  21.554  0.00  0.00    +0.000 C 
ATOM     22  O   UNL     1       1.581   9.469  22.675  0.00  0.00    +0.000 OA
ATOM     23  H   UNL     1      -0.134  10.297  20.116  0.00  0.00    +0.000 HD
BRANCH  21  24
ATOM     24  C   UNL     1       1.559   8.514  20.525  0.00  0.00    +0.000 A 
ATOM     25  C   UNL     1       1.658   8.860  19.191  0.00  0.00    +0.000 A 
ATOM     26  S   UNL     1       2.211   7.529  18.279  0.00  0.00    +0.000 S 
ATOM     27  C   UNL     1       2.299   6.568  19.712  0.00  0.00    +0.000 A 
ATOM     28  N   UNL     1       1.915   7.196  20.810  0.00  0.00    +0.000 NA
BRANCH  27  29
ATOM     29  C   UNL     1       2.675   5.148  19.660  0.00  0.00    +0.000 A 
ATOM     30  C   UNL     1       1.784   4.100  19.930  0.00  0.00    +0.000 A 
ATOM     31  F   UNL     1       0.488   4.334  20.185  0.00  0.00    +0.000 F 
ATOM     32  C   UNL     1       2.197   2.763  19.937  0.00  0.00    +0.000 A 
ATOM     33  C   UNL     1       3.519   2.441  19.652  0.00  0.00    +0.000 A 
ATOM     34  C   UNL     1       4.416   3.460  19.344  0.00  0.00    +0.000 A 
ATOM     35  C   UNL     1       3.993   4.791  19.349  0.00  0.00    +0.000 A 
ATOM     36  F   UNL     1       4.913   5.728  19.067  0.00  0.00    +0.000 F 
ENDBRANCH  27  29
ENDBRANCH  21  24
ENDBRANCH   2  20
TORSDOF 6
ENDMDL
MODEL 4
REMARK VINA RESULT:      -7.6      0.886      1.713
REMARK  Name = 
REMARK  9 active torsions:
REMARK  status: ('A' for Active; 'I' for Inactive)
REMARK    1  A    between atoms: C_1  and  C_2
REMARK    2  A    between atoms: C_4  and  C_5
REMARK    3  A    between atoms: C_6  and  N_7
REMARK    4  A    between atoms: C_8  and  C_10
REMARK    5  A    between atoms: C_13  and  C_14
REMARK    6  A    between atoms: N_25  and  C_26
REMARK    7  A    between atoms: C_28  and  N_29
REMARK    8  A    between atoms: C_30  and  C_31
REMARK    9  A    between atoms: C_30  and  O_32
REMARK                            x       y       z     vdW  Elec       q    Type
REMARK                         _______ _______ _______ _____ _____    ______ ____
ROOT
ATOM      1  C   UNL     1       0.124  12.180  21.596  0.00  0.00    +0.000 A 
ATOM      2  C   UNL     1       0.215  10.804  21.690  0.00  0.00    +0.000 A 
ATOM      3  C   UNL     1      -0.623  10.452  22.770  0.00  0.00    +0.000 A 
ATOM      4  N   UNL     1      -1.226  11.511  23.314  0.00  0.00    +0.000 NA
ATOM      5  N   UNL     1      -0.739  12.543  22.606  0.00  0.00    +0.000 N 
ATOM      6  C   UNL     1      -1.118  13.885  22.993  0.00  0.00    +0.000 C 
ENDROOT
BRANCH   1  10
ATOM      7  C   UNL     1       0.292  15.418  18.790  0.00  0.00    +0.000 C 
ATOM      8  C   UNL     1       0.965  14.069  18.534  0.00  0.00    +0.000 C 
ATOM      9  O   UNL     1       0.435  13.044  19.409  0.00  0.00    +0.000 OA
ATOM     10  C   UNL     1       0.839  13.199  20.774  0.00  0.00    +0.000 C 
ATOM     11  C   UNL     1       2.357  13.058  20.898  0.00  0.00    +0.000 C 
ATOM     12  C   UNL     1       3.076  14.108  20.034  0.00  0.00    +0.000 C 
ATOM     13  C   UNL     1       2.517  14.051  18.576  0.00  0.00    +0.000 C 
ATOM     14  C   UNL     1       3.155  15.100  17.662  0.00  0.00    +0.000 C 
BRANCH  12  15
ATOM     15  N   UNL     1       3.045  15.410  20.718  0.00  0.00    +0.000 NA
ATOM     16  H   UNL     1       2.870  15.338  21.715  0.00  0.00    +0.000 HD
ATOM     17  H   UNL     1       2.331  16.019  20.324  0.00  0.00    +0.000 HD
ENDBRANCH  12  15
BRANCH  13  18
ATOM     18  O   UNL     1       2.936  12.779  18.020  0.00  0.00    +0.000 OA
ATOM     19  H   UNL     1       3.810  12.914  17.607  0.00  0.00    +0.000 HD
ENDBRANCH  13  18
ENDBRANCH   1  10
BRANCH   2  20
ATOM     20  N   UNL     1       0.994   9.991  20.889  0.00  0.00    +0.000 N 
ATOM     21  C   UNL     1       0.600   9.599  19.624  0.00  0.00    +0.000 C 
ATOM     22  O   UNL     1      -0.479   9.882  19.103  0.00  0.00    +0.000 OA
ATOM     23  H   UNL     1       1.810   9.543  21.299  0.00  0.00    +0.000 HD
BRANCH  21  24
ATOM     24  C   UNL     1       1.564   8.725  18.957  0.00  0.00    +0.000 A 
ATOM     25  C   UNL     1       2.400   9.157  17.945  0.00  0.00    +0.000 A 
ATOM     26  S   UNL     1       3.348   7.861  17.371  0.00  0.00    +0.000 S 
ATOM     27  C   UNL     1       2.602   6.797  18.510  0.00  0.00    +0.000 A 
ATOM     28  N   UNL     1       1.677   7.369  19.262  0.00  0.00    +0.000 NA
BRANCH  27  29
ATOM     29  C   UNL     1       2.919   5.362  18.538  0.00  0.00    +0.000 A 
ATOM     30  C   UNL     1       2.106   4.376  17.960  0.00  0.00    +0.000 A 
ATOM     31  F   UNL     1       1.004   4.699  17.268  0.00  0.00    +0.000 F 
ATOM     32  C   UNL     1       2.408   3.014  18.067  0.00  0.00    +0.000 A 
ATOM     33  C   UNL     1       3.550   2.605  18.745  0.00  0.00    +0.000 A 
ATOM     34  C   UNL     1       4.394   3.565  19.297  0.00  0.00    +0.000 A 
ATOM     35  C   UNL     1       4.078   4.920  19.190  0.00  0.00    +0.000 A 
ATOM     36  F   UNL     1       4.920   5.795  19.765  0.00  0.00    +0.000 F 
ENDBRANCH  27  29
ENDBRANCH  21  24
ENDBRANCH   2  20
TORSDOF 6
ENDMDL
MODEL 5
REMARK VINA RESULT:      -7.6      1.025      1.034
REMARK  Name = 
REMARK  9 active torsions:
REMARK  status: ('A' for Active; 'I' for Inactive)
REMARK    1  A    between atoms: C_1  and  C_2
REMARK    2  A    between atoms: C_4  and  C_5
REMARK    3  A    between atoms: C_6  and  N_7
REMARK    4  A    between atoms: C_8  and  C_10
REMARK    5  A    between atoms: C_13  and  C_14
REMARK    6  A    between atoms: N_25  and  C_26
REMARK    7  A    between atoms: C_28  and  N_29
REMARK    8  A    between atoms: C_30  and  C_31
REMARK    9  A    between atoms: C_30  and  O_32
REMARK                            x       y       z     vdW  Elec       q    Type
REMARK                         _______ _______ _______ _____ _____    ______ ____
ROOT
ATOM      1  C   UNL     1      -0.462  12.586  21.806  0.00  0.00    +0.000 A 
ATOM      2  C   UNL     1      -0.610  11.218  21.932  0.00  0.00    +0.000 A 
ATOM      3  C   UNL     1      -1.467  11.042  23.040  0.00  0.00    +0.000 A 
ATOM      4  N   UNL     1      -1.860  12.200  23.570  0.00  0.00    +0.000 NA
ATOM      5  N   UNL     1      -1.221  13.116  22.826  0.00  0.00    +0.000 N 
ATOM      6  C   UNL     1      -1.349  14.512  23.187  0.00  0.00    +0.000 C 
ENDROOT
BRANCH   1  10
ATOM      7  C   UNL     1       0.188  15.519  18.745  0.00  0.00    +0.000 C 
ATOM      8  C   UNL     1       0.724  14.090  18.645  0.00  0.00    +0.000 C 
ATOM      9  O   UNL     1       0.045  13.209  19.573  0.00  0.00    +0.000 OA
ATOM     10  C   UNL     1       0.396  13.446  20.941  0.00  0.00    +0.000 C 
ATOM     11  C   UNL     1       1.883  13.163  21.164  0.00  0.00    +0.000 C 
ATOM     12  C   UNL     1       2.752  14.050  20.256  0.00  0.00    +0.000 C 
ATOM     13  C   UNL     1       2.261  13.917  18.778  0.00  0.00    +0.000 C 
ATOM     14  C   UNL     1       3.051  14.807  17.815  0.00  0.00    +0.000 C 
BRANCH  12  15
ATOM     15  N   UNL     1       2.827  15.406  20.822  0.00  0.00    +0.000 NA
ATOM     16  H   UNL     1       3.460  15.479  21.611  0.00  0.00    +0.000 HD
ATOM     17  H   UNL     1       1.913  15.732  21.130  0.00  0.00    +0.000 HD
ENDBRANCH  12  15
BRANCH  13  18
ATOM     18  O   UNL     1       2.568  12.563  18.360  0.00  0.00    +0.000 OA
ATOM     19  H   UNL     1       2.388  12.505  17.402  0.00  0.00    +0.000 HD
ENDBRANCH  13  18
ENDBRANCH   1  10
BRANCH   2  20
ATOM     20  N   UNL     1      -0.007  10.264  21.135  0.00  0.00    +0.000 N 
ATOM     21  C   UNL     1       1.015   9.454  21.593  0.00  0.00    +0.000 C 
ATOM     22  O   UNL     1       1.520   9.522  22.713  0.00  0.00    +0.000 OA
ATOM     23  H   UNL     1      -0.213  10.262  20.139  0.00  0.00    +0.000 HD
BRANCH  21  24
ATOM     24  C   UNL     1       1.524   8.529  20.580  0.00  0.00    +0.000 A 
ATOM     25  C   UNL     1       1.634   8.860  19.243  0.00  0.00    +0.000 A 
ATOM     26  S   UNL     1       2.213   7.526  18.353  0.00  0.00    +0.000 S 
ATOM     27  C   UNL     1       2.296   6.583  19.799  0.00  0.00    +0.000 A 
ATOM     28  N   UNL     1       1.891   7.219  20.884  0.00  0.00    +0.000 NA
BRANCH  27  29
ATOM     29  C   UNL     1       2.689   5.167  19.767  0.00  0.00    +0.000 A 
ATOM     30  C   UNL     1       3.992   4.728  19.490  0.00  0.00    +0.000 A 
ATOM     31  F   UNL     1       4.995   5.598  19.307  0.00  0.00    +0.000 F 
ATOM     32  C   UNL     1       4.310   3.369  19.402  0.00  0.00    +0.000 A 
ATOM     33  C   UNL     1       3.327   2.409  19.610  0.00  0.00    +0.000 A 
ATOM     34  C   UNL     1       2.033   2.816  19.922  0.00  0.00    +0.000 A 
ATOM     35  C   UNL     1       1.726   4.176  19.999  0.00  0.00    +0.000 A 
ATOM     36  F   UNL     1       0.454   4.503  20.281  0.00  0.00    +0.000 F 
ENDBRANCH  27  29
ENDBRANCH  21  24
ENDBRANCH   2  20
TORSDOF 6
ENDMDL
MODEL 6
REMARK VINA RESULT:      -7.6      3.772      9.566
REMARK  Name = 
REMARK  9 active torsions:
REMARK  status: ('A' for Active; 'I' for Inactive)
REMARK    1  A    between atoms: C_1  and  C_2
REMARK    2  A    between atoms: C_4  and  C_5
REMARK    3  A    between atoms: C_6  and  N_7
REMARK    4  A    between atoms: C_8  and  C_10
REMARK    5  A    between atoms: C_13  and  C_14
REMARK    6  A    between atoms: N_25  and  C_26
REMARK    7  A    between atoms: C_28  and  N_29
REMARK    8  A    between atoms: C_30  and  C_31
REMARK    9  A    between atoms: C_30  and  O_32
REMARK                            x       y       z     vdW  Elec       q    Type
REMARK                         _______ _______ _______ _____ _____    ______ ____
ROOT
ATOM      1  C   UNL     1       4.042   5.487  17.455  0.00  0.00    +0.000 A 
ATOM      2  C   UNL     1       3.770   6.841  17.514  0.00  0.00    +0.000 A 
ATOM      3  C   UNL     1       4.555   7.418  16.493  0.00  0.00    +0.000 A 
ATOM      4  N   UNL     1       5.257   6.510  15.814  0.00  0.00    +0.000 NA
ATOM      5  N   UNL     1       4.951   5.357  16.429  0.00  0.00    +0.000 N 
ATOM      6  C   UNL     1       5.620   4.147  16.002  0.00  0.00    +0.000 C 
ENDROOT
BRANCH   1  10
ATOM      7  C   UNL     1       1.588   2.134  18.517  0.00  0.00    +0.000 C 
ATOM      8  C   UNL     1       1.771   3.344  19.433  0.00  0.00    +0.000 C 
ATOM      9  O   UNL     1       2.291   4.481  18.702  0.00  0.00    +0.000 OA
ATOM     10  C   UNL     1       3.661   4.329  18.316  0.00  0.00    +0.000 C 
ATOM     11  C   UNL     1       4.555   4.231  19.554  0.00  0.00    +0.000 C 
ATOM     12  C   UNL     1       4.141   3.039  20.434  0.00  0.00    +0.000 C 
ATOM     13  C   UNL     1       2.607   3.116  20.722  0.00  0.00    +0.000 C 
ATOM     14  C   UNL     1       2.108   1.935  21.560  0.00  0.00    +0.000 C 
BRANCH  12  15
ATOM     15  N   UNL     1       4.655   1.793  19.846  0.00  0.00    +0.000 NA
ATOM     16  H   UNL     1       5.402   1.941  19.175  0.00  0.00    +0.000 HD
ATOM     17  H   UNL     1       3.918   1.273  19.374  0.00  0.00    +0.000 HD
ENDBRANCH  12  15
BRANCH  13  18
ATOM     18  O   UNL     1       2.401   4.277  21.566  0.00  0.00    +0.000 OA
ATOM     19  H   UNL     1       1.893   3.983  22.347  0.00  0.00    +0.000 HD
ENDBRANCH  13  18
ENDBRANCH   1  10
BRANCH   2  20
ATOM     20  N   UNL     1       2.921   7.454  18.416  0.00  0.00    +0.000 N 
ATOM     21  C   UNL     1       2.224   8.607  18.110  0.00  0.00    +0.000 C 
ATOM     22  O   UNL     1       2.314   9.226  17.050  0.00  0.00    +0.000 OA
ATOM     23  H   UNL     1       2.927   7.137  19.382  0.00  0.00    +0.000 HD
BRANCH  21  24
ATOM     24  C   UNL     1       1.399   9.100  19.213  0.00  0.00    +0.000 A 
ATOM     25  C   UNL     1       1.390   8.517  20.466  0.00  0.00    +0.000 A 
ATOM     26  S   UNL     1       0.277   9.320  21.479  0.00  0.00    +0.000 S 
ATOM     27  C   UNL     1      -0.124  10.406  20.197  0.00  0.00    +0.000 A 
ATOM     28  N   UNL     1       0.517  10.170  19.066  0.00  0.00    +0.000 NA
BRANCH  27  29
ATOM     29  C   UNL     1      -1.171  11.426  20.357  0.00  0.00    +0.000 A 
ATOM     30  C   UNL     1      -2.289  11.529  19.517  0.00  0.00    +0.000 A 
ATOM     31  F   UNL     1      -2.511  10.638  18.540  0.00  0.00    +0.000 F 
ATOM     32  C   UNL     1      -3.227  12.556  19.660  0.00  0.00    +0.000 A 
ATOM     33  C   UNL     1      -3.078  13.500  20.669  0.00  0.00    +0.000 A 
ATOM     34  C   UNL     1      -1.998  13.400  21.541  0.00  0.00    +0.000 A 
ATOM     35  C   UNL     1      -1.063  12.375  21.382  0.00  0.00    +0.000 A 
ATOM     36  F   UNL     1      -0.031  12.347  22.241  0.00  0.00    +0.000 F 
ENDBRANCH  27  29
ENDBRANCH  21  24
ENDBRANCH   2  20
TORSDOF 6
ENDMDL
MODEL 7
REMARK VINA RESULT:      -7.6      3.624      8.950
REMARK  Name = 
REMARK  9 active torsions:
REMARK  status: ('A' for Active; 'I' for Inactive)
REMARK    1  A    between atoms: C_1  and  C_2
REMARK    2  A    between atoms: C_4  and  C_5
REMARK    3  A    between atoms: C_6  and  N_7
REMARK    4  A    between atoms: C_8  and  C_10
REMARK    5  A    between atoms: C_13  and  C_14
REMARK    6  A    between atoms: N_25  and  C_26
REMARK    7  A    between atoms: C_28  and  N_29
REMARK    8  A    between atoms: C_30  and  C_31
REMARK    9  A    between atoms: C_30  and  O_32
REMARK                            x       y       z     vdW  Elec       q    Type
REMARK                         _______ _______ _______ _____ _____    ______ ____
ROOT
ATOM      1  C   UNL     1       3.848   4.058  19.440  0.00  0.00    +0.000 A 
ATOM      2  C   UNL     1       2.850   4.888  19.914  0.00  0.00    +0.000 A 
ATOM      3  C   UNL     1       2.182   4.133  20.902  0.00  0.00    +0.000 A 
ATOM      4  N   UNL     1       2.721   2.925  21.072  0.00  0.00    +0.000 NA
ATOM      5  N   UNL     1       3.707   2.893  20.162  0.00  0.00    +0.000 N 
ATOM      6  C   UNL     1       4.460   1.668  20.001  0.00  0.00    +0.000 C 
ENDROOT
BRANCH   1  10
ATOM      7  C   UNL     1       7.760   4.694  17.802  0.00  0.00    +0.000 C 
ATOM      8  C   UNL     1       6.569   5.590  17.463  0.00  0.00    +0.000 C 
ATOM      9  O   UNL     1       5.499   5.428  18.426  0.00  0.00    +0.000 OA
ATOM     10  C   UNL     1       4.825   4.170  18.317  0.00  0.00    +0.000 C 
ATOM     11  C   UNL     1       4.134   4.053  16.957  0.00  0.00    +0.000 C 
ATOM     12  C   UNL     1       5.153   4.182  15.813  0.00  0.00    +0.000 C 
ATOM     13  C   UNL     1       6.004   5.476  16.021  0.00  0.00    +0.000 C 
ATOM     14  C   UNL     1       7.076   5.652  14.941  0.00  0.00    +0.000 C 
BRANCH  12  15
ATOM     15  N   UNL     1       5.881   2.913  15.659  0.00  0.00    +0.000 NA
ATOM     16  H   UNL     1       5.283   2.095  15.716  0.00  0.00    +0.000 HD
ATOM     17  H   UNL     1       6.606   2.812  16.367  0.00  0.00    +0.000 HD
ENDBRANCH  12  15
BRANCH  13  18
ATOM     18  O   UNL     1       5.106   6.598  15.832  0.00  0.00    +0.000 OA
ATOM     19  H   UNL     1       4.239   6.344  16.201  0.00  0.00    +0.000 HD
ENDBRANCH  13  18
ENDBRANCH   1  10
BRANCH   2  20
ATOM     20  N   UNL     1       2.584   6.168  19.465  0.00  0.00    +0.000 N 
ATOM     21  C   UNL     1       1.854   7.077  20.206  0.00  0.00    +0.000 C 
ATOM     22  O   UNL     1       1.332   6.840  21.295  0.00  0.00    +0.000 OA
ATOM     23  H   UNL     1       2.800   6.398  18.498  0.00  0.00    +0.000 HD
BRANCH  21  24
ATOM     24  C   UNL     1       1.674   8.365  19.537  0.00  0.00    +0.000 A 
ATOM     25  C   UNL     1       2.252   8.669  18.319  0.00  0.00    +0.000 A 
ATOM     26  S   UNL     1       1.870  10.269  17.870  0.00  0.00    +0.000 S 
ATOM     27  C   UNL     1       0.946  10.466  19.317  0.00  0.00    +0.000 A 
ATOM     28  N   UNL     1       0.942   9.406  20.106  0.00  0.00    +0.000 NA
BRANCH  27  29
ATOM     29  C   UNL     1       0.321  11.753  19.657  0.00  0.00    +0.000 A 
ATOM     30  C   UNL     1       1.037  12.863  20.127  0.00  0.00    +0.000 A 
ATOM     31  F   UNL     1       2.374  12.840  20.226  0.00  0.00    +0.000 F 
ATOM     32  C   UNL     1       0.396  14.048  20.505  0.00  0.00    +0.000 A 
ATOM     33  C   UNL     1      -0.986  14.156  20.401  0.00  0.00    +0.000 A 
ATOM     34  C   UNL     1      -1.717  13.082  19.903  0.00  0.00    +0.000 A 
ATOM     35  C   UNL     1      -1.067  11.902  19.538  0.00  0.00    +0.000 A 
ATOM     36  F   UNL     1      -1.832  10.893  19.087  0.00  0.00    +0.000 F 
ENDBRANCH  27  29
ENDBRANCH  21  24
ENDBRANCH   2  20
TORSDOF 6
ENDMDL
MODEL 8
REMARK VINA RESULT:      -7.6      3.601      9.416
REMARK  Name = 
REMARK  9 active torsions:
REMARK  status: ('A' for Active; 'I' for Inactive)
REMARK    1  A    between atoms: C_1  and  C_2
REMARK    2  A    between atoms: C_4  and  C_5
REMARK    3  A    between atoms: C_6  and  N_7
REMARK    4  A    between atoms: C_8  and  C_10
REMARK    5  A    between atoms: C_13  and  C_14
REMARK    6  A    between atoms: N_25  and  C_26
REMARK    7  A    between atoms: C_28  and  N_29
REMARK    8  A    between atoms: C_30  and  C_31
REMARK    9  A    between atoms: C_30  and  O_32
REMARK                            x       y       z     vdW  Elec       q    Type
REMARK                         _______ _______ _______ _____ _____    ______ ____
ROOT
ATOM      1  C   UNL     1       4.339   5.362  17.246  0.00  0.00    +0.000 A 
ATOM      2  C   UNL     1       4.274   6.743  17.264  0.00  0.00    +0.000 A 
ATOM      3  C   UNL     1       5.049   7.161  16.160  0.00  0.00    +0.000 A 
ATOM      4  N   UNL     1       5.551   6.136  15.471  0.00  0.00    +0.000 NA
ATOM      5  N   UNL     1       5.131   5.063  16.160  0.00  0.00    +0.000 N 
ATOM      6  C   UNL     1       5.578   3.752  15.738  0.00  0.00    +0.000 C 
ENDROOT
BRANCH   1  10
ATOM      7  C   UNL     1       1.648   2.269  18.505  0.00  0.00    +0.000 C 
ATOM      8  C   UNL     1       1.892   3.535  19.327  0.00  0.00    +0.000 C 
ATOM      9  O   UNL     1       2.500   4.574  18.523  0.00  0.00    +0.000 OA
ATOM     10  C   UNL     1       3.865   4.304  18.185  0.00  0.00    +0.000 C 
ATOM     11  C   UNL     1       4.724   4.249  19.450  0.00  0.00    +0.000 C 
ATOM     12  C   UNL     1       4.215   3.161  20.411  0.00  0.00    +0.000 C 
ATOM     13  C   UNL     1       2.683   3.359  20.651  0.00  0.00    +0.000 C 
ATOM     14  C   UNL     1       2.090   2.284  21.566  0.00  0.00    +0.000 C 
BRANCH  12  15
ATOM     15  N   UNL     1       4.658   1.841  19.937  0.00  0.00    +0.000 NA
ATOM     16  H   UNL     1       5.632   1.644  20.145  0.00  0.00    +0.000 HD
ATOM     17  H   UNL     1       4.534   1.746  18.931  0.00  0.00    +0.000 HD
ENDBRANCH  12  15
BRANCH  13  18
ATOM     18  O   UNL     1       2.536   4.594  21.395  0.00  0.00    +0.000 OA
ATOM     19  H   UNL     1       3.396   5.056  21.369  0.00  0.00    +0.000 HD
ENDBRANCH  13  18
ENDBRANCH   1  10
BRANCH   2  20
ATOM     20  N   UNL     1       3.603   7.507  18.199  0.00  0.00    +0.000 N 
ATOM     21  C   UNL     1       2.237   7.711  18.146  0.00  0.00    +0.000 C 
ATOM     22  O   UNL     1       1.495   7.289  17.259  0.00  0.00    +0.000 OA
ATOM     23  H   UNL     1       4.147   8.060  18.856  0.00  0.00    +0.000 HD
BRANCH  21  24
ATOM     24  C   UNL     1       1.733   8.566  19.221  0.00  0.00    +0.000 A 
ATOM     25  C   UNL     1       1.637   8.148  20.534  0.00  0.00    +0.000 A 
ATOM     26  S   UNL     1       0.962   9.384  21.496  0.00  0.00    +0.000 S 
ATOM     27  C   UNL     1       0.845  10.413  20.113  0.00  0.00    +0.000 A 
ATOM     28  N   UNL     1       1.263   9.858  18.988  0.00  0.00    +0.000 NA
BRANCH  27  29
ATOM     29  C   UNL     1       0.230  11.745  20.199  0.00  0.00    +0.000 A 
ATOM     30  C   UNL     1       0.905  12.883  20.665  0.00  0.00    +0.000 A 
ATOM     31  F   UNL     1       2.204  12.835  20.996  0.00  0.00    +0.000 F 
ATOM     32  C   UNL     1       0.265  14.119  20.797  0.00  0.00    +0.000 A 
ATOM     33  C   UNL     1      -1.074  14.251  20.445  0.00  0.00    +0.000 A 
ATOM     34  C   UNL     1      -1.758  13.146  19.945  0.00  0.00    +0.000 A 
ATOM     35  C   UNL     1      -1.109  11.916  19.826  0.00  0.00    +0.000 A 
ATOM     36  F   UNL     1      -1.831  10.884  19.360  0.00  0.00    +0.000 F 
ENDBRANCH  27  29
ENDBRANCH  21  24
ENDBRANCH   2  20
TORSDOF 6
ENDMDL
MODEL 9
REMARK VINA RESULT:      -7.5      3.624      9.052
REMARK  Name = 
REMARK  9 active torsions:
REMARK  status: ('A' for Active; 'I' for Inactive)
REMARK    1  A    between atoms: C_1  and  C_2
REMARK    2  A    between atoms: C_4  and  C_5
REMARK    3  A    between atoms: C_6  and  N_7
REMARK    4  A    between atoms: C_8  and  C_10
REMARK    5  A    between atoms: C_13  and  C_14
REMARK    6  A    between atoms: N_25  and  C_26
REMARK    7  A    between atoms: C_28  and  N_29
REMARK    8  A    between atoms: C_30  and  C_31
REMARK    9  A    between atoms: C_30  and  O_32
REMARK                            x       y       z     vdW  Elec       q    Type
REMARK                         _______ _______ _______ _____ _____    ______ ____
ROOT
ATOM      1  C   UNL     1       3.842   4.118  19.458  0.00  0.00    +0.000 A 
ATOM      2  C   UNL     1       2.850   4.961  19.923  0.00  0.00    +0.000 A 
ATOM      3  C   UNL     1       2.180   4.224  20.923  0.00  0.00    +0.000 A 
ATOM      4  N   UNL     1       2.710   3.014  21.107  0.00  0.00    +0.000 NA
ATOM      5  N   UNL     1       3.693   2.963  20.195  0.00  0.00    +0.000 N 
ATOM      6  C   UNL     1       4.437   1.730  20.048  0.00  0.00    +0.000 C 
ENDROOT
BRANCH   1  10
ATOM      7  C   UNL     1       7.760   4.674  17.806  0.00  0.00    +0.000 C 
ATOM      8  C   UNL     1       6.585   5.593  17.469  0.00  0.00    +0.000 C 
ATOM      9  O   UNL     1       5.516   5.453  18.436  0.00  0.00    +0.000 OA
ATOM     10  C   UNL     1       4.816   4.208  18.332  0.00  0.00    +0.000 C 
ATOM     11  C   UNL     1       4.118   4.102  16.975  0.00  0.00    +0.000 C 
ATOM     12  C   UNL     1       5.136   4.208  15.827  0.00  0.00    +0.000 C 
ATOM     13  C   UNL     1       6.013   5.486  16.029  0.00  0.00    +0.000 C 
ATOM     14  C   UNL     1       7.084   5.639  14.945  0.00  0.00    +0.000 C 
BRANCH  12  15
ATOM     15  N   UNL     1       5.840   2.925  15.673  0.00  0.00    +0.000 NA
ATOM     16  H   UNL     1       5.699   2.293  16.455  0.00  0.00    +0.000 HD
ATOM     17  H   UNL     1       6.842   3.061  15.566  0.00  0.00    +0.000 HD
ENDBRANCH  12  15
BRANCH  13  18
ATOM     18  O   UNL     1       5.136   6.625  15.840  0.00  0.00    +0.000 OA
ATOM     19  H   UNL     1       4.220   6.312  15.962  0.00  0.00    +0.000 HD
ENDBRANCH  13  18
ENDBRANCH   1  10
BRANCH   2  20
ATOM     20  N   UNL     1       2.593   6.237  19.459  0.00  0.00    +0.000 N 
ATOM     21  C   UNL     1       1.838   7.147  20.173  0.00  0.00    +0.000 C 
ATOM     22  O   UNL     1       1.284   6.915  21.247  0.00  0.00    +0.000 OA
ATOM     23  H   UNL     1       2.837   6.462  18.498  0.00  0.00    +0.000 HD
BRANCH  21  24
ATOM     24  C   UNL     1       1.673   8.431  19.490  0.00  0.00    +0.000 A 
ATOM     25  C   UNL     1       2.258   8.718  18.272  0.00  0.00    +0.000 A 
ATOM     26  S   UNL     1       1.893  10.317  17.807  0.00  0.00    +0.000 S 
ATOM     27  C   UNL     1       0.965  10.537  19.248  0.00  0.00    +0.000 A 
ATOM     28  N   UNL     1       0.948   9.484  20.047  0.00  0.00    +0.000 NA
BRANCH  27  29
ATOM     29  C   UNL     1       0.350  11.832  19.572  0.00  0.00    +0.000 A 
ATOM     30  C   UNL     1      -1.033  12.061  19.552  0.00  0.00    +0.000 A 
ATOM     31  F   UNL     1      -1.900  11.070  19.300  0.00  0.00    +0.000 F 
ATOM     32  C   UNL     1      -1.575  13.326  19.800  0.00  0.00    +0.000 A 
ATOM     33  C   UNL     1      -0.738  14.396  20.097  0.00  0.00    +0.000 A 
ATOM     34  C   UNL     1       0.637  14.189  20.160  0.00  0.00    +0.000 A 
ATOM     35  C   UNL     1       1.166  12.922  19.902  0.00  0.00    +0.000 A 
ATOM     36  F   UNL     1       2.501  12.793  19.955  0.00  0.00    +0.000 F 
ENDBRANCH  27  29
ENDBRANCH  21  24
ENDBRANCH   2  20
TORSDOF 6
ENDMDL
