MODEL 1
REMARK VINA RESULT:      -6.7      0.000      0.000
REMARK  Name = 
REMARK  7 active torsions:
REMARK  status: ('A' for Active; 'I' for Inactive)
REMARK    1  A    between atoms: C_2  and  C_3
REMARK    2  A    between atoms: C_3  and  O_4
REMARK    3  A    between atoms: C_3  and  C_11
REMARK    4  A    between atoms: O_4  and  C_5
REMARK    5  A    between atoms: C_6  and  C_7
REMARK    6  A    between atoms: C_7  and  O_9
REMARK    7  A    between atoms: O_9  and  C_10
REMARK                            x       y       z     vdW  Elec       q    Type
REMARK                         _______ _______ _______ _____ _____    ______ ____
ROOT
ATOM      1  C   UNL     1       3.492   5.779  18.204  0.00  0.00    +0.000 C 
ENDROOT
BRANCH   1   2
ATOM      2  C   UNL     1       2.501   4.791  18.782  0.00  0.00    +0.000 A 
ATOM      3  C   UNL     1       2.087   4.901  20.117  0.00  0.00    +0.000 A 
ATOM      4  C   UNL     1       1.193   3.975  20.656  0.00  0.00    +0.000 A 
ATOM      5  C   UNL     1       0.690   2.945  19.864  0.00  0.00    +0.000 A 
ATOM      6  C   UNL     1       1.085   2.827  18.534  0.00  0.00    +0.000 A 
ATOM      7  C   UNL     1       1.990   3.742  17.997  0.00  0.00    +0.000 A 
ENDBRANCH   1   2
BRANCH   1   9
ATOM      8  C   UNL     1       2.291   8.323  17.958  0.00  0.00    +0.000 C 
ATOM      9  C   UNL     1       2.846   7.148  18.071  0.00  0.00    +0.000 C 
ENDBRANCH   1   9
BRANCH   1  10
ATOM     10  O   UNL     1       4.621   5.851  19.125  0.00  0.00    +0.000 OA
BRANCH  10  11
ATOM     11  C   UNL     1       5.862   5.491  18.648  0.00  0.00    +0.000 C 
ATOM     12  C   UNL     1       6.041   4.953  17.432  0.00  0.00    +0.000 C 
BRANCH  12  13
ATOM     13  C   UNL     1       7.395   4.575  16.957  0.00  0.00    +0.000 C 
ATOM     14  O   UNL     1       8.272   4.124  17.673  0.00  0.00    +0.000 OA
BRANCH  13  15
ATOM     15  O   UNL     1       7.496   4.812  15.621  0.00  0.00    +0.000 OA
ATOM     16  C   UNL     1       6.524   4.117  14.827  0.00  0.00    +0.000 C 
ENDBRANCH  13  15
ENDBRANCH  12  13
ENDBRANCH  10  11
ENDBRANCH   1  10
TORSDOF 6
ENDMDL
MODEL 2
REMARK VINA RESULT:      -6.3      1.108      1.284
REMARK  Name = 
REMARK  7 active torsions:
REMARK  status: ('A' for Active; 'I' for Inactive)
REMARK    1  A    between atoms: C_2  and  C_3
REMARK    2  A    between atoms: C_3  and  O_4
REMARK    3  A    between atoms: C_3  and  C_11
REMARK    4  A    between atoms: O_4  and  C_5
REMARK    5  A    between atoms: C_6  and  C_7
REMARK    6  A    between atoms: C_7  and  O_9
REMARK    7  A    between atoms: O_9  and  C_10
REMARK                            x       y       z     vdW  Elec       q    Type
REMARK                         _______ _______ _______ _____ _____    ______ ____
ROOT
ATOM      1  C   UNL     1       3.259   6.039  17.874  0.00  0.00    +0.000 C 
ENDROOT
BRANCH   1   2
ATOM      2  C   UNL     1       2.468   5.053  18.707  0.00  0.00    +0.000 A 
ATOM      3  C   UNL     1       2.395   5.199  20.099  0.00  0.00    +0.000 A 
ATOM      4  C   UNL     1       1.687   4.276  20.869  0.00  0.00    +0.000 A 
ATOM      5  C   UNL     1       1.030   3.211  20.255  0.00  0.00    +0.000 A 
ATOM      6  C   UNL     1       1.085   3.058  18.872  0.00  0.00    +0.000 A 
ATOM      7  C   UNL     1       1.804   3.970  18.102  0.00  0.00    +0.000 A 
ENDBRANCH   1   2
BRANCH   1   9
ATOM      8  C   UNL     1       2.215   8.642  18.204  0.00  0.00    +0.000 C 
ATOM      9  C   UNL     1       2.697   7.440  18.052  0.00  0.00    +0.000 C 
ENDBRANCH   1   9
BRANCH   1  10
ATOM     10  O   UNL     1       4.639   5.997  18.343  0.00  0.00    +0.000 OA
BRANCH  10  11
ATOM     11  C   UNL     1       5.622   5.700  17.424  0.00  0.00    +0.000 C 
ATOM     12  C   UNL     1       5.346   5.233  16.198  0.00  0.00    +0.000 C 
BRANCH  12  13
ATOM     13  C   UNL     1       6.433   4.922  15.237  0.00  0.00    +0.000 C 
ATOM     14  O   UNL     1       7.455   5.576  15.123  0.00  0.00    +0.000 OA
BRANCH  13  15
ATOM     15  O   UNL     1       6.110   3.812  14.520  0.00  0.00    +0.000 OA
ATOM     16  C   UNL     1       6.490   3.875  13.138  0.00  0.00    +0.000 C 
ENDBRANCH  13  15
ENDBRANCH  12  13
ENDBRANCH  10  11
ENDBRANCH   1  10
TORSDOF 6
ENDMDL
MODEL 3
REMARK VINA RESULT:      -6.3      1.315      1.968
REMARK  Name = 
REMARK  7 active torsions:
REMARK  status: ('A' for Active; 'I' for Inactive)
REMARK    1  A    between atoms: C_2  and  C_3
REMARK    2  A    between atoms: C_3  and  O_4
REMARK    3  A    between atoms: C_3  and  C_11
REMARK    4  A    between atoms: O_4  and  C_5
REMARK    5  A    between atoms: C_6  and  C_7
REMARK    6  A    between atoms: C_7  and  O_9
REMARK    7  A    between atoms: O_9  and  C_10
REMARK                            x       y       z     vdW  Elec       q    Type
REMARK                         _______ _______ _______ _____ _____    ______ ____
ROOT
ATOM      1  C   UNL     1       3.088   5.452  17.872  0.00  0.00    +0.000 C 
ENDROOT
BRANCH   1   2
ATOM      2  C   UNL     1       2.416   4.612  18.938  0.00  0.00    +0.000 A 
ATOM      3  C   UNL     1       1.478   3.633  18.582  0.00  0.00    +0.000 A 
ATOM      4  C   UNL     1       0.840   2.877  19.565  0.00  0.00    +0.000 A 
ATOM      5  C   UNL     1       1.145   3.078  20.910  0.00  0.00    +0.000 A 
ATOM      6  C   UNL     1       2.081   4.042  21.279  0.00  0.00    +0.000 A 
ATOM      7  C   UNL     1       2.709   4.809  20.299  0.00  0.00    +0.000 A 
ENDBRANCH   1   2
BRANCH   1   9
ATOM      8  C   UNL     1       2.371   8.166  18.182  0.00  0.00    +0.000 C 
ATOM      9  C   UNL     1       2.703   6.912  18.039  0.00  0.00    +0.000 C 
ENDBRANCH   1   9
BRANCH   1  10
ATOM     10  O   UNL     1       4.529   5.298  18.042  0.00  0.00    +0.000 OA
BRANCH  10  11
ATOM     11  C   UNL     1       5.255   4.826  16.971  0.00  0.00    +0.000 C 
ATOM     12  C   UNL     1       5.564   5.591  15.914  0.00  0.00    +0.000 C 
BRANCH  12  13
ATOM     13  C   UNL     1       6.345   5.043  14.778  0.00  0.00    +0.000 C 
ATOM     14  O   UNL     1       7.525   5.276  14.581  0.00  0.00    +0.000 OA
BRANCH  13  15
ATOM     15  O   UNL     1       5.547   4.256  14.007  0.00  0.00    +0.000 OA
ATOM     16  C   UNL     1       6.233   3.594  12.935  0.00  0.00    +0.000 C 
ENDBRANCH  13  15
ENDBRANCH  12  13
ENDBRANCH  10  11
ENDBRANCH   1  10
TORSDOF 6
ENDMDL
MODEL 4
REMARK VINA RESULT:      -6.1      0.755      1.512
REMARK  Name = 
REMARK  7 active torsions:
REMARK  status: ('A' for Active; 'I' for Inactive)
REMARK    1  A    between atoms: C_2  and  C_3
REMARK    2  A    between atoms: C_3  and  O_4
REMARK    3  A    between atoms: C_3  and  C_11
REMARK    4  A    between atoms: O_4  and  C_5
REMARK    5  A    between atoms: C_6  and  C_7
REMARK    6  A    between atoms: C_7  and  O_9
REMARK    7  A    between atoms: O_9  and  C_10
REMARK                            x       y       z     vdW  Elec       q    Type
REMARK                         _______ _______ _______ _____ _____    ______ ____
ROOT
ATOM      1  C   UNL     1       3.277   5.815  18.276  0.00  0.00    +0.000 C 
ENDROOT
BRANCH   1   2
ATOM      2  C   UNL     1       2.349   4.755  18.832  0.00  0.00    +0.000 A 
ATOM      3  C   UNL     1       1.880   3.722  18.009  0.00  0.00    +0.000 A 
ATOM      4  C   UNL     1       1.005   2.760  18.514  0.00  0.00    +0.000 A 
ATOM      5  C   UNL     1       0.606   2.809  19.849  0.00  0.00    +0.000 A 
ATOM      6  C   UNL     1       1.071   3.825  20.681  0.00  0.00    +0.000 A 
ATOM      7  C   UNL     1       1.933   4.796  20.175  0.00  0.00    +0.000 A 
ENDBRANCH   1   2
BRANCH   1   9
ATOM      8  C   UNL     1       2.012   8.339  18.339  0.00  0.00    +0.000 C 
ATOM      9  C   UNL     1       2.596   7.174  18.310  0.00  0.00    +0.000 C 
ENDBRANCH   1   9
BRANCH   1  10
ATOM     10  O   UNL     1       4.467   5.837  19.120  0.00  0.00    +0.000 OA
BRANCH  10  11
ATOM     11  C   UNL     1       5.696   5.826  18.497  0.00  0.00    +0.000 C 
ATOM     12  C   UNL     1       5.831   5.904  17.165  0.00  0.00    +0.000 C 
BRANCH  12  13
ATOM     13  C   UNL     1       7.173   5.886  16.532  0.00  0.00    +0.000 C 
ATOM     14  O   UNL     1       7.903   6.858  16.443  0.00  0.00    +0.000 OA
BRANCH  13  15
ATOM     15  O   UNL     1       7.450   4.634  16.077  0.00  0.00    +0.000 OA
ATOM     16  C   UNL     1       6.445   4.090  15.209  0.00  0.00    +0.000 C 
ENDBRANCH  13  15
ENDBRANCH  12  13
ENDBRANCH  10  11
ENDBRANCH   1  10
TORSDOF 6
ENDMDL
MODEL 5
REMARK VINA RESULT:      -6.1      0.926      1.052
REMARK  Name = 
REMARK  7 active torsions:
REMARK  status: ('A' for Active; 'I' for Inactive)
REMARK    1  A    between atoms: C_2  and  C_3
REMARK    2  A    between atoms: C_3  and  O_4
REMARK    3  A    between atoms: C_3  and  C_11
REMARK    4  A    between atoms: O_4  and  C_5
REMARK    5  A    between atoms: C_6  and  C_7
REMARK    6  A    between atoms: C_7  and  O_9
REMARK    7  A    between atoms: O_9  and  C_10
REMARK                            x       y       z     vdW  Elec       q    Type
REMARK                         _______ _______ _______ _____ _____    ______ ____
ROOT
ATOM      1  C   UNL     1       2.985   6.810  17.595  0.00  0.00    +0.000 C 
ENDROOT
BRANCH   1   2
ATOM      2  C   UNL     1       2.326   5.763  18.468  0.00  0.00    +0.000 A 
ATOM      3  C   UNL     1       2.237   5.951  19.854  0.00  0.00    +0.000 A 
ATOM      4  C   UNL     1       1.652   4.974  20.662  0.00  0.00    +0.000 A 
ATOM      5  C   UNL     1       1.135   3.813  20.091  0.00  0.00    +0.000 A 
ATOM      6  C   UNL     1       1.209   3.616  18.714  0.00  0.00    +0.000 A 
ATOM      7  C   UNL     1       1.806   4.583  17.907  0.00  0.00    +0.000 A 
ENDBRANCH   1   2
BRANCH   1   9
ATOM      8  C   UNL     1       1.882   9.354  18.133  0.00  0.00    +0.000 C 
ATOM      9  C   UNL     1       2.392   8.179  17.885  0.00  0.00    +0.000 C 
ENDBRANCH   1   9
BRANCH   1  10
ATOM     10  O   UNL     1       4.409   6.810  17.915  0.00  0.00    +0.000 OA
BRANCH  10  11
ATOM     11  C   UNL     1       5.155   5.722  17.521  0.00  0.00    +0.000 C 
ATOM     12  C   UNL     1       6.439   5.824  17.146  0.00  0.00    +0.000 C 
BRANCH  12  13
ATOM     13  C   UNL     1       7.208   4.627  16.725  0.00  0.00    +0.000 C 
ATOM     14  O   UNL     1       8.203   4.216  17.295  0.00  0.00    +0.000 OA
BRANCH  13  15
ATOM     15  O   UNL     1       6.634   4.075  15.621  0.00  0.00    +0.000 OA
ATOM     16  C   UNL     1       6.934   4.763  14.398  0.00  0.00    +0.000 C 
ENDBRANCH  13  15
ENDBRANCH  12  13
ENDBRANCH  10  11
ENDBRANCH   1  10
TORSDOF 6
ENDMDL
MODEL 6
REMARK VINA RESULT:      -6.1      1.113      1.819
REMARK  Name = 
REMARK  7 active torsions:
REMARK  status: ('A' for Active; 'I' for Inactive)
REMARK    1  A    between atoms: C_2  and  C_3
REMARK    2  A    between atoms: C_3  and  O_4
REMARK    3  A    between atoms: C_3  and  C_11
REMARK    4  A    between atoms: O_4  and  C_5
REMARK    5  A    between atoms: C_6  and  C_7
REMARK    6  A    between atoms: C_7  and  O_9
REMARK    7  A    between atoms: O_9  and  C_10
REMARK                            x       y       z     vdW  Elec       q    Type
REMARK                         _______ _______ _______ _____ _____    ______ ____
ROOT
ATOM      1  C   UNL     1       3.045   6.758  17.615  0.00  0.00    +0.000 C 
ENDROOT
BRANCH   1   2
ATOM      2  C   UNL     1       2.384   5.706  18.480  0.00  0.00    +0.000 A 
ATOM      3  C   UNL     1       1.868   4.536  17.904  0.00  0.00    +0.000 A 
ATOM      4  C   UNL     1       1.236   3.579  18.698  0.00  0.00    +0.000 A 
ATOM      5  C   UNL     1       1.131   3.770  20.075  0.00  0.00    +0.000 A 
ATOM      6  C   UNL     1       1.646   4.923  20.663  0.00  0.00    +0.000 A 
ATOM      7  C   UNL     1       2.264   5.888  19.869  0.00  0.00    +0.000 A 
ENDBRANCH   1   2
BRANCH   1   9
ATOM      8  C   UNL     1       1.822   9.268  18.039  0.00  0.00    +0.000 C 
ATOM      9  C   UNL     1       2.387   8.109  17.843  0.00  0.00    +0.000 C 
ENDBRANCH   1   9
BRANCH   1  10
ATOM     10  O   UNL     1       4.450   6.820  18.003  0.00  0.00    +0.000 OA
BRANCH  10  11
ATOM     11  C   UNL     1       5.311   5.900  17.446  0.00  0.00    +0.000 C 
ATOM     12  C   UNL     1       5.530   5.823  16.125  0.00  0.00    +0.000 C 
BRANCH  12  13
ATOM     13  C   UNL     1       6.463   4.814  15.564  0.00  0.00    +0.000 C 
ATOM     14  O   UNL     1       7.665   4.809  15.760  0.00  0.00    +0.000 OA
BRANCH  13  15
ATOM     15  O   UNL     1       5.771   3.917  14.810  0.00  0.00    +0.000 OA
ATOM     16  C   UNL     1       6.222   3.821  13.451  0.00  0.00    +0.000 C 
ENDBRANCH  13  15
ENDBRANCH  12  13
ENDBRANCH  10  11
ENDBRANCH   1  10
TORSDOF 6
ENDMDL
MODEL 7
REMARK VINA RESULT:      -6.1      1.353      2.046
REMARK  Name = 
REMARK  7 active torsions:
REMARK  status: ('A' for Active; 'I' for Inactive)
REMARK    1  A    between atoms: C_2  and  C_3
REMARK    2  A    between atoms: C_3  and  O_4
REMARK    3  A    between atoms: C_3  and  C_11
REMARK    4  A    between atoms: O_4  and  C_5
REMARK    5  A    between atoms: C_6  and  C_7
REMARK    6  A    between atoms: C_7  and  O_9
REMARK    7  A    between atoms: O_9  and  C_10
REMARK                            x       y       z     vdW  Elec       q    Type
REMARK                         _______ _______ _______ _____ _____    ______ ____
ROOT
ATOM      1  C   UNL     1       2.305   5.000  17.719  0.00  0.00    +0.000 C 
ENDROOT
BRANCH   1   2
ATOM      2  C   UNL     1       2.110   4.261  19.026  0.00  0.00    +0.000 A 
ATOM      3  C   UNL     1       1.684   2.926  19.029  0.00  0.00    +0.000 A 
ATOM      4  C   UNL     1       1.480   2.253  20.234  0.00  0.00    +0.000 A 
ATOM      5  C   UNL     1       1.717   2.900  21.445  0.00  0.00    +0.000 A 
ATOM      6  C   UNL     1       2.150   4.224  21.459  0.00  0.00    +0.000 A 
ATOM      7  C   UNL     1       2.340   4.903  20.257  0.00  0.00    +0.000 A 
ENDBRANCH   1   2
BRANCH   1   9
ATOM      8  C   UNL     1       2.766   7.742  18.217  0.00  0.00    +0.000 C 
ATOM      9  C   UNL     1       2.553   6.476  17.987  0.00  0.00    +0.000 C 
ENDBRANCH   1   9
BRANCH   1  10
ATOM     10  O   UNL     1       3.467   4.416  17.058  0.00  0.00    +0.000 OA
BRANCH  10  11
ATOM     11  C   UNL     1       4.714   4.863  17.436  0.00  0.00    +0.000 C 
ATOM     12  C   UNL     1       5.837   4.487  16.807  0.00  0.00    +0.000 C 
BRANCH  12  13
ATOM     13  C   UNL     1       7.162   4.989  17.247  0.00  0.00    +0.000 C 
ATOM     14  O   UNL     1       7.863   4.438  18.078  0.00  0.00    +0.000 OA
BRANCH  13  15
ATOM     15  O   UNL     1       7.460   6.141  16.587  0.00  0.00    +0.000 OA
ATOM     16  C   UNL     1       7.517   7.302  17.429  0.00  0.00    +0.000 C 
ENDBRANCH  13  15
ENDBRANCH  12  13
ENDBRANCH  10  11
ENDBRANCH   1  10
TORSDOF 6
ENDMDL
MODEL 8
REMARK VINA RESULT:      -6.0      2.373      6.150
REMARK  Name = 
REMARK  7 active torsions:
REMARK  status: ('A' for Active; 'I' for Inactive)
REMARK    1  A    between atoms: C_2  and  C_3
REMARK    2  A    between atoms: C_3  and  O_4
REMARK    3  A    between atoms: C_3  and  C_11
REMARK    4  A    between atoms: O_4  and  C_5
REMARK    5  A    between atoms: C_6  and  C_7
REMARK    6  A    between atoms: C_7  and  O_9
REMARK    7  A    between atoms: O_9  and  C_10
REMARK                            x       y       z     vdW  Elec       q    Type
REMARK                         _______ _______ _______ _____ _____    ______ ____
ROOT
ATOM      1  C   UNL     1       4.928   4.733  16.227  0.00  0.00    +0.000 C 
ENDROOT
BRANCH   1   2
ATOM      2  C   UNL     1       5.990   5.444  17.040  0.00  0.00    +0.000 A 
ATOM      3  C   UNL     1       6.248   6.806  16.834  0.00  0.00    +0.000 A 
ATOM      4  C   UNL     1       7.244   7.455  17.565  0.00  0.00    +0.000 A 
ATOM      5  C   UNL     1       7.978   6.754  18.521  0.00  0.00    +0.000 A 
ATOM      6  C   UNL     1       7.728   5.402  18.743  0.00  0.00    +0.000 A 
ATOM      7  C   UNL     1       6.744   4.749  18.003  0.00  0.00    +0.000 A 
ENDBRANCH   1   2
BRANCH   1   9
ATOM      8  C   UNL     1       6.009   3.871  13.765  0.00  0.00    +0.000 C 
ATOM      9  C   UNL     1       5.510   4.269  14.902  0.00  0.00    +0.000 C 
ENDBRANCH   1   9
BRANCH   1  10
ATOM     10  O   UNL     1       4.485   3.581  17.004  0.00  0.00    +0.000 OA
BRANCH  10  11
ATOM     11  C   UNL     1       3.279   3.675  17.662  0.00  0.00    +0.000 C 
ATOM     12  C   UNL     1       2.526   2.603  17.949  0.00  0.00    +0.000 C 
BRANCH  12  13
ATOM     13  C   UNL     1       1.230   2.747  18.657  0.00  0.00    +0.000 C 
ATOM     14  O   UNL     1       0.241   2.077  18.419  0.00  0.00    +0.000 OA
BRANCH  13  15
ATOM     15  O   UNL     1       1.324   3.730  19.593  0.00  0.00    +0.000 OA
ATOM     16  C   UNL     1       1.372   3.251  20.944  0.00  0.00    +0.000 C 
ENDBRANCH  13  15
ENDBRANCH  12  13
ENDBRANCH  10  11
ENDBRANCH   1  10
TORSDOF 6
ENDMDL
MODEL 9
REMARK VINA RESULT:      -6.0      1.179      2.143
REMARK  Name = 
REMARK  7 active torsions:
REMARK  status: ('A' for Active; 'I' for Inactive)
REMARK    1  A    between atoms: C_2  and  C_3
REMARK    2  A    between atoms: C_3  and  O_4
REMARK    3  A    between atoms: C_3  and  C_11
REMARK    4  A    between atoms: O_4  and  C_5
REMARK    5  A    between atoms: C_6  and  C_7
REMARK    6  A    between atoms: C_7  and  O_9
REMARK    7  A    between atoms: O_9  and  C_10
REMARK                            x       y       z     vdW  Elec       q    Type
REMARK                         _______ _______ _______ _____ _____    ______ ____
ROOT
ATOM      1  C   UNL     1       2.822   7.009  17.551  0.00  0.00    +0.000 C 
ENDROOT
BRANCH   1   2
ATOM      2  C   UNL     1       2.301   5.897  18.436  0.00  0.00    +0.000 A 
ATOM      3  C   UNL     1       1.876   4.685  17.875  0.00  0.00    +0.000 A 
ATOM      4  C   UNL     1       1.372   3.669  18.688  0.00  0.00    +0.000 A 
ATOM      5  C   UNL     1       1.306   3.847  20.069  0.00  0.00    +0.000 A 
ATOM      6  C   UNL     1       1.732   5.043  20.642  0.00  0.00    +0.000 A 
ATOM      7  C   UNL     1       2.222   6.064  19.830  0.00  0.00    +0.000 A 
ENDBRANCH   1   2
BRANCH   1   9
ATOM      8  C   UNL     1       1.489   9.426  18.148  0.00  0.00    +0.000 C 
ATOM      9  C   UNL     1       2.104   8.310  17.872  0.00  0.00    +0.000 C 
ENDBRANCH   1   9
BRANCH   1  10
ATOM     10  O   UNL     1       4.248   7.151  17.825  0.00  0.00    +0.000 OA
BRANCH  10  11
ATOM     11  C   UNL     1       5.132   6.760  16.843  0.00  0.00    +0.000 C 
ATOM     12  C   UNL     1       5.790   5.592  16.886  0.00  0.00    +0.000 C 
BRANCH  12  13
ATOM     13  C   UNL     1       6.737   5.210  15.810  0.00  0.00    +0.000 C 
ATOM     14  O   UNL     1       6.548   5.417  14.625  0.00  0.00    +0.000 OA
BRANCH  13  15
ATOM     15  O   UNL     1       7.828   4.602  16.351  0.00  0.00    +0.000 OA
ATOM     16  C   UNL     1       7.790   4.493  17.782  0.00  0.00    +0.000 C 
ENDBRANCH  13  15
ENDBRANCH  12  13
ENDBRANCH  10  11
ENDBRANCH   1  10
TORSDOF 6
ENDMDL
