MODEL 1
REMARK VINA RESULT:      -8.9      0.000      0.000
REMARK  Name = 
REMARK  10 active torsions:
REMARK  status: ('A' for Active; 'I' for Inactive)
REMARK    1  A    between atoms: C_1  and  C_2
REMARK    2  A    between atoms: C_2  and  O_3
REMARK    3  A    between atoms: O_3  and  C_4
REMARK    4  A    between atoms: C_4  and  C_6
REMARK    5  A    between atoms: C_6  and  C_7
REMARK    6  A    between atoms: C_6  and  C_20
REMARK    7  A    between atoms: C_7  and  O_9
REMARK    8  A    between atoms: O_9  and  C_10
REMARK    9  A    between atoms: N_17  and  C_18
REMARK   10  A    between atoms: N_17  and  C_19
REMARK                            x       y       z     vdW  Elec       q    Type
REMARK                         _______ _______ _______ _____ _____    ______ ____
ROOT
ATOM      1  C   UNL     1       5.062   5.831  16.050  0.00  0.00    +0.000 C 
ATOM      2  O   UNL     1       5.138   6.969  15.607  0.00  0.00    +0.000 OA
ENDROOT
BRANCH   1   3
ATOM      3  C   UNL     1       6.131   4.756  15.853  0.00  0.00    +0.000 C 
BRANCH   3   4
ATOM      4  C   UNL     1       6.430   4.469  14.367  0.00  0.00    +0.000 A 
ATOM      5  C   UNL     1       7.480   5.155  13.746  0.00  0.00    +0.000 A 
ATOM      6  C   UNL     1       7.772   4.938  12.396  0.00  0.00    +0.000 A 
ATOM      7  C   UNL     1       7.014   4.043  11.646  0.00  0.00    +0.000 A 
ATOM      8  C   UNL     1       5.979   3.337  12.255  0.00  0.00    +0.000 A 
ATOM      9  C   UNL     1       5.680   3.562  13.602  0.00  0.00    +0.000 A 
ENDBRANCH   3   4
BRANCH   3  10
ATOM     10  C   UNL     1       7.381   5.053  16.654  0.00  0.00    +0.000 C 
ATOM     11  O   UNL     1       8.060   4.235  17.260  0.00  0.00    +0.000 OA
BRANCH  10  12
ATOM     12  O   UNL     1       7.581   6.409  16.694  0.00  0.00    +0.000 OA
BRANCH  12  14
ATOM     13  C   UNL     1       7.864   8.504  17.787  0.00  0.00    +0.000 C 
ATOM     14  C   UNL     1       7.773   7.002  17.988  0.00  0.00    +0.000 C 
ENDBRANCH  12  14
ENDBRANCH  10  12
ENDBRANCH   3  10
ENDBRANCH   1   3
BRANCH   1  15
ATOM     15  O   UNL     1       4.032   5.395  16.808  0.00  0.00    +0.000 OA
BRANCH  15  16
ATOM     16  C   UNL     1       3.794   5.914  18.136  0.00  0.00    +0.000 C 
ATOM     17  C   UNL     1       4.515   5.113  19.234  0.00  0.00    +0.000 C 
ATOM     18  C   UNL     1       4.048   3.556  19.331  0.00  0.00    +0.000 C 
ATOM     19  C   UNL     1       3.530   2.635  18.106  0.00  0.00    +0.000 C 
ATOM     20  C   UNL     1       2.300   3.316  17.495  0.00  0.00    +0.000 C 
ATOM     21  C   UNL     1       1.827   4.342  18.537  0.00  0.00    +0.000 C 
ATOM     22  C   UNL     1       2.284   5.796  18.323  0.00  0.00    +0.000 C 
ATOM     23  N   UNL     1       2.494   3.789  19.796  0.00  0.00    +0.000 N 
ATOM     24  C   UNL     1       2.312   4.606  21.090  0.00  0.00    +0.000 C 
ATOM     25  C   UNL     1       1.724   2.465  20.205  0.00  0.00    +0.000 C 
ENDBRANCH  15  16
ENDBRANCH   1  15
TORSDOF 7
ENDMDL
MODEL 2
REMARK VINA RESULT:      -8.5      0.684      1.667
REMARK  Name = 
REMARK  10 active torsions:
REMARK  status: ('A' for Active; 'I' for Inactive)
REMARK    1  A    between atoms: C_1  and  C_2
REMARK    2  A    between atoms: C_2  and  O_3
REMARK    3  A    between atoms: O_3  and  C_4
REMARK    4  A    between atoms: C_4  and  C_6
REMARK    5  A    between atoms: C_6  and  C_7
REMARK    6  A    between atoms: C_6  and  C_20
REMARK    7  A    between atoms: C_7  and  O_9
REMARK    8  A    between atoms: O_9  and  C_10
REMARK    9  A    between atoms: N_17  and  C_18
REMARK   10  A    between atoms: N_17  and  C_19
REMARK                            x       y       z     vdW  Elec       q    Type
REMARK                         _______ _______ _______ _____ _____    ______ ____
ROOT
ATOM      1  C   UNL     1       5.109   5.642  16.069  0.00  0.00    +0.000 C 
ATOM      2  O   UNL     1       4.995   6.747  15.556  0.00  0.00    +0.000 OA
ENDROOT
BRANCH   1   3
ATOM      3  C   UNL     1       6.267   4.682  15.800  0.00  0.00    +0.000 C 
BRANCH   3   4
ATOM      4  C   UNL     1       6.587   4.529  14.298  0.00  0.00    +0.000 A 
ATOM      5  C   UNL     1       5.876   3.583  13.552  0.00  0.00    +0.000 A 
ATOM      6  C   UNL     1       6.147   3.400  12.192  0.00  0.00    +0.000 A 
ATOM      7  C   UNL     1       7.138   4.150  11.564  0.00  0.00    +0.000 A 
ATOM      8  C   UNL     1       7.841   5.109  12.289  0.00  0.00    +0.000 A 
ATOM      9  C   UNL     1       7.577   5.286  13.651  0.00  0.00    +0.000 A 
ENDBRANCH   3   4
BRANCH   3  10
ATOM     10  C   UNL     1       7.488   5.028  16.624  0.00  0.00    +0.000 C 
ATOM     11  O   UNL     1       8.195   4.237  17.235  0.00  0.00    +0.000 OA
BRANCH  10  12
ATOM     12  O   UNL     1       7.624   6.391  16.682  0.00  0.00    +0.000 OA
BRANCH  12  14
ATOM     13  C   UNL     1       7.968   8.469  17.791  0.00  0.00    +0.000 C 
ATOM     14  C   UNL     1       7.726   6.984  17.987  0.00  0.00    +0.000 C 
ENDBRANCH  12  14
ENDBRANCH  10  12
ENDBRANCH   3  10
ENDBRANCH   1   3
BRANCH   1  15
ATOM     15  O   UNL     1       4.237   5.150  16.976  0.00  0.00    +0.000 OA
BRANCH  15  16
ATOM     16  C   UNL     1       4.645   4.197  17.983  0.00  0.00    +0.000 C 
ATOM     17  C   UNL     1       3.831   2.893  17.945  0.00  0.00    +0.000 C 
ATOM     18  C   UNL     1       2.240   3.099  18.222  0.00  0.00    +0.000 C 
ATOM     19  C   UNL     1       1.365   4.408  17.847  0.00  0.00    +0.000 C 
ATOM     20  C   UNL     1       1.989   5.610  18.566  0.00  0.00    +0.000 C 
ATOM     21  C   UNL     1       2.903   5.021  19.652  0.00  0.00    +0.000 C 
ATOM     22  C   UNL     1       4.399   4.917  19.306  0.00  0.00    +0.000 C 
ATOM     23  N   UNL     1       2.320   3.613  19.776  0.00  0.00    +0.000 N 
ATOM     24  C   UNL     1       3.032   2.653  20.748  0.00  0.00    +0.000 C 
ATOM     25  C   UNL     1       0.915   3.737  20.501  0.00  0.00    +0.000 C 
ENDBRANCH  15  16
ENDBRANCH   1  15
TORSDOF 7
ENDMDL
MODEL 3
REMARK VINA RESULT:      -8.4      0.812      1.398
REMARK  Name = 
REMARK  10 active torsions:
REMARK  status: ('A' for Active; 'I' for Inactive)
REMARK    1  A    between atoms: C_1  and  C_2
REMARK    2  A    between atoms: C_2  and  O_3
REMARK    3  A    between atoms: O_3  and  C_4
REMARK    4  A    between atoms: C_4  and  C_6
REMARK    5  A    between atoms: C_6  and  C_7
REMARK    6  A    between atoms: C_6  and  C_20
REMARK    7  A    between atoms: C_7  and  O_9
REMARK    8  A    between atoms: O_9  and  C_10
REMARK    9  A    between atoms: N_17  and  C_18
REMARK   10  A    between atoms: N_17  and  C_19
REMARK                            x       y       z     vdW  Elec       q    Type
REMARK                         _______ _______ _______ _____ _____    ______ ____
ROOT
ATOM      1  C   UNL     1       4.830   5.327  16.380  0.00  0.00    +0.000 C 
ATOM      2  O   UNL     1       4.827   6.537  16.194  0.00  0.00    +0.000 OA
ENDROOT
BRANCH   1   3
ATOM      3  C   UNL     1       6.027   4.417  16.108  0.00  0.00    +0.000 C 
BRANCH   3   4
ATOM      4  C   UNL     1       6.468   4.426  14.629  0.00  0.00    +0.000 A 
ATOM      5  C   UNL     1       5.854   3.538  13.739  0.00  0.00    +0.000 A 
ATOM      6  C   UNL     1       6.237   3.501  12.394  0.00  0.00    +0.000 A 
ATOM      7  C   UNL     1       7.243   4.341  11.924  0.00  0.00    +0.000 A 
ATOM      8  C   UNL     1       7.849   5.244  12.794  0.00  0.00    +0.000 A 
ATOM      9  C   UNL     1       7.474   5.274  14.141  0.00  0.00    +0.000 A 
ENDBRANCH   3   4
BRANCH   3  10
ATOM     10  C   UNL     1       7.172   4.692  17.060  0.00  0.00    +0.000 C 
ATOM     11  O   UNL     1       8.258   4.129  17.064  0.00  0.00    +0.000 OA
BRANCH  10  12
ATOM     12  O   UNL     1       6.766   5.599  18.004  0.00  0.00    +0.000 OA
BRANCH  12  14
ATOM     13  C   UNL     1       7.738   7.742  17.645  0.00  0.00    +0.000 C 
ATOM     14  C   UNL     1       7.760   6.499  18.516  0.00  0.00    +0.000 C 
ENDBRANCH  12  14
ENDBRANCH  10  12
ENDBRANCH   3  10
ENDBRANCH   1   3
BRANCH   1  15
ATOM     15  O   UNL     1       3.779   4.650  16.892  0.00  0.00    +0.000 OA
BRANCH  15  16
ATOM     16  C   UNL     1       2.781   5.302  17.710  0.00  0.00    +0.000 C 
ATOM     17  C   UNL     1       3.317   5.728  19.088  0.00  0.00    +0.000 C 
ATOM     18  C   UNL     1       3.831   4.488  20.009  0.00  0.00    +0.000 C 
ATOM     19  C   UNL     1       4.475   3.102  19.475  0.00  0.00    +0.000 C 
ATOM     20  C   UNL     1       3.447   2.432  18.555  0.00  0.00    +0.000 C 
ATOM     21  C   UNL     1       2.107   3.123  18.849  0.00  0.00    +0.000 C 
ATOM     22  C   UNL     1       1.691   4.249  17.886  0.00  0.00    +0.000 C 
ATOM     23  N   UNL     1       2.397   3.724  20.225  0.00  0.00    +0.000 N 
ATOM     24  C   UNL     1       1.284   4.584  20.852  0.00  0.00    +0.000 C 
ATOM     25  C   UNL     1       2.437   2.532  21.270  0.00  0.00    +0.000 C 
ENDBRANCH  15  16
ENDBRANCH   1  15
TORSDOF 7
ENDMDL
MODEL 4
REMARK VINA RESULT:      -8.3      0.843      2.050
REMARK  Name = 
REMARK  10 active torsions:
REMARK  status: ('A' for Active; 'I' for Inactive)
REMARK    1  A    between atoms: C_1  and  C_2
REMARK    2  A    between atoms: C_2  and  O_3
REMARK    3  A    between atoms: O_3  and  C_4
REMARK    4  A    between atoms: C_4  and  C_6
REMARK    5  A    between atoms: C_6  and  C_7
REMARK    6  A    between atoms: C_6  and  C_20
REMARK    7  A    between atoms: C_7  and  O_9
REMARK    8  A    between atoms: O_9  and  C_10
REMARK    9  A    between atoms: N_17  and  C_18
REMARK   10  A    between atoms: N_17  and  C_19
REMARK                            x       y       z     vdW  Elec       q    Type
REMARK                         _______ _______ _______ _____ _____    ______ ____
ROOT
ATOM      1  C   UNL     1       4.890   5.704  16.347  0.00  0.00    +0.000 C 
ATOM      2  O   UNL     1       4.878   6.805  15.813  0.00  0.00    +0.000 OA
ENDROOT
BRANCH   1   3
ATOM      3  C   UNL     1       5.971   4.647  16.121  0.00  0.00    +0.000 C 
BRANCH   3   4
ATOM      4  C   UNL     1       6.406   4.537  14.645  0.00  0.00    +0.000 A 
ATOM      5  C   UNL     1       5.730   3.642  13.809  0.00  0.00    +0.000 A 
ATOM      6  C   UNL     1       6.104   3.498  12.469  0.00  0.00    +0.000 A 
ATOM      7  C   UNL     1       7.165   4.236  11.951  0.00  0.00    +0.000 A 
ATOM      8  C   UNL     1       7.836   5.145  12.766  0.00  0.00    +0.000 A 
ATOM      9  C   UNL     1       7.468   5.282  14.108  0.00  0.00    +0.000 A 
ENDBRANCH   3   4
BRANCH   3  10
ATOM     10  C   UNL     1       7.142   4.830  17.063  0.00  0.00    +0.000 C 
ATOM     11  O   UNL     1       8.177   4.178  17.062  0.00  0.00    +0.000 OA
BRANCH  10  12
ATOM     12  O   UNL     1       6.821   5.772  18.006  0.00  0.00    +0.000 OA
BRANCH  12  14
ATOM     13  C   UNL     1       7.751   7.919  17.570  0.00  0.00    +0.000 C 
ATOM     14  C   UNL     1       7.866   6.666  18.419  0.00  0.00    +0.000 C 
ENDBRANCH  12  14
ENDBRANCH  10  12
ENDBRANCH   3  10
ENDBRANCH   1   3
BRANCH   1  15
ATOM     15  O   UNL     1       3.960   5.301  17.241  0.00  0.00    +0.000 OA
BRANCH  15  16
ATOM     16  C   UNL     1       3.357   3.990  17.171  0.00  0.00    +0.000 C 
ATOM     17  C   UNL     1       1.849   4.004  17.475  0.00  0.00    +0.000 C 
ATOM     18  C   UNL     1       1.482   4.525  18.973  0.00  0.00    +0.000 C 
ATOM     19  C   UNL     1       2.317   5.605  19.842  0.00  0.00    +0.000 C 
ATOM     20  C   UNL     1       3.742   5.065  20.015  0.00  0.00    +0.000 C 
ATOM     21  C   UNL     1       3.670   3.570  19.666  0.00  0.00    +0.000 C 
ATOM     22  C   UNL     1       4.088   3.179  18.237  0.00  0.00    +0.000 C 
ATOM     23  N   UNL     1       2.172   3.315  19.836  0.00  0.00    +0.000 N 
ATOM     24  C   UNL     1       1.670   1.899  19.497  0.00  0.00    +0.000 C 
ATOM     25  C   UNL     1       1.853   3.349  21.389  0.00  0.00    +0.000 C 
ENDBRANCH  15  16
ENDBRANCH   1  15
TORSDOF 7
ENDMDL
MODEL 5
REMARK VINA RESULT:      -8.2      1.387      3.905
REMARK  Name = 
REMARK  10 active torsions:
REMARK  status: ('A' for Active; 'I' for Inactive)
REMARK    1  A    between atoms: C_1  and  C_2
REMARK    2  A    between atoms: C_2  and  O_3
REMARK    3  A    between atoms: O_3  and  C_4
REMARK    4  A    between atoms: C_4  and  C_6
REMARK    5  A    between atoms: C_6  and  C_7
REMARK    6  A    between atoms: C_6  and  C_20
REMARK    7  A    between atoms: C_7  and  O_9
REMARK    8  A    between atoms: O_9  and  C_10
REMARK    9  A    between atoms: N_17  and  C_18
REMARK   10  A    between atoms: N_17  and  C_19
REMARK                            x       y       z     vdW  Elec       q    Type
REMARK                         _______ _______ _______ _____ _____    ______ ____
ROOT
ATOM      1  C   UNL     1       5.083   3.960  16.393  0.00  0.00    +0.000 C 
ATOM      2  O   UNL     1       5.616   2.858  16.408  0.00  0.00    +0.000 OA
ENDROOT
BRANCH   1   3
ATOM      3  C   UNL     1       5.754   5.235  15.884  0.00  0.00    +0.000 C 
BRANCH   3   4
ATOM      4  C   UNL     1       6.650   5.909  16.943  0.00  0.00    +0.000 A 
ATOM      5  C   UNL     1       6.892   7.283  16.845  0.00  0.00    +0.000 A 
ATOM      6  C   UNL     1       7.714   7.929  17.774  0.00  0.00    +0.000 A 
ATOM      7  C   UNL     1       8.313   7.210  18.805  0.00  0.00    +0.000 A 
ATOM      8  C   UNL     1       8.067   5.845  18.928  0.00  0.00    +0.000 A 
ATOM      9  C   UNL     1       7.253   5.197  17.993  0.00  0.00    +0.000 A 
ENDBRANCH   3   4
BRANCH   3  10
ATOM     10  C   UNL     1       6.471   5.008  14.571  0.00  0.00    +0.000 C 
ATOM     11  O   UNL     1       7.613   5.357  14.302  0.00  0.00    +0.000 OA
BRANCH  10  12
ATOM     12  O   UNL     1       5.603   4.444  13.672  0.00  0.00    +0.000 OA
BRANCH  12  14
ATOM     13  C   UNL     1       5.039   3.100  11.790  0.00  0.00    +0.000 C 
ATOM     14  C   UNL     1       6.138   3.461  12.773  0.00  0.00    +0.000 C 
ENDBRANCH  12  14
ENDBRANCH  10  12
ENDBRANCH   3  10
ENDBRANCH   1   3
BRANCH   1  15
ATOM     15  O   UNL     1       3.810   4.175  16.791  0.00  0.00    +0.000 OA
BRANCH  15  16
ATOM     16  C   UNL     1       3.487   5.143  17.815  0.00  0.00    +0.000 C 
ATOM     17  C   UNL     1       4.133   4.821  19.173  0.00  0.00    +0.000 C 
ATOM     18  C   UNL     1       3.656   3.401  19.811  0.00  0.00    +0.000 C 
ATOM     19  C   UNL     1       3.216   2.081  18.985  0.00  0.00    +0.000 C 
ATOM     20  C   UNL     1       2.030   2.461  18.091  0.00  0.00    +0.000 C 
ATOM     21  C   UNL     1       1.494   3.789  18.647  0.00  0.00    +0.000 C 
ATOM     22  C   UNL     1       1.968   5.070  17.938  0.00  0.00    +0.000 C 
ATOM     23  N   UNL     1       2.075   3.756  20.061  0.00  0.00    +0.000 N 
ATOM     24  C   UNL     1       1.813   4.989  20.945  0.00  0.00    +0.000 C 
ATOM     25  C   UNL     1       1.277   2.661  20.883  0.00  0.00    +0.000 C 
ENDBRANCH  15  16
ENDBRANCH   1  15
TORSDOF 7
ENDMDL
MODEL 6
REMARK VINA RESULT:      -8.0      1.385      4.261
REMARK  Name = 
REMARK  10 active torsions:
REMARK  status: ('A' for Active; 'I' for Inactive)
REMARK    1  A    between atoms: C_1  and  C_2
REMARK    2  A    between atoms: C_2  and  O_3
REMARK    3  A    between atoms: O_3  and  C_4
REMARK    4  A    between atoms: C_4  and  C_6
REMARK    5  A    between atoms: C_6  and  C_7
REMARK    6  A    between atoms: C_6  and  C_20
REMARK    7  A    between atoms: C_7  and  O_9
REMARK    8  A    between atoms: O_9  and  C_10
REMARK    9  A    between atoms: N_17  and  C_18
REMARK   10  A    between atoms: N_17  and  C_19
REMARK                            x       y       z     vdW  Elec       q    Type
REMARK                         _______ _______ _______ _____ _____    ______ ____
ROOT
ATOM      1  C   UNL     1       5.260   3.758  16.167  0.00  0.00    +0.000 C 
ATOM      2  O   UNL     1       5.774   2.670  15.944  0.00  0.00    +0.000 OA
ENDROOT
BRANCH   1   3
ATOM      3  C   UNL     1       5.858   5.098  15.739  0.00  0.00    +0.000 C 
BRANCH   3   4
ATOM      4  C   UNL     1       6.685   5.773  16.852  0.00  0.00    +0.000 A 
ATOM      5  C   UNL     1       6.914   7.151  16.780  0.00  0.00    +0.000 A 
ATOM      6  C   UNL     1       7.675   7.799  17.759  0.00  0.00    +0.000 A 
ATOM      7  C   UNL     1       8.225   7.078  18.815  0.00  0.00    +0.000 A 
ATOM      8  C   UNL     1       7.989   5.708  18.912  0.00  0.00    +0.000 A 
ATOM      9  C   UNL     1       7.238   5.059  17.928  0.00  0.00    +0.000 A 
ENDBRANCH   3   4
BRANCH   3  10
ATOM     10  C   UNL     1       6.618   4.983  14.435  0.00  0.00    +0.000 C 
ATOM     11  O   UNL     1       7.772   5.337  14.239  0.00  0.00    +0.000 OA
BRANCH  10  12
ATOM     12  O   UNL     1       5.773   4.522  13.458  0.00  0.00    +0.000 OA
BRANCH  12  14
ATOM     13  C   UNL     1       5.139   3.053  11.696  0.00  0.00    +0.000 C 
ATOM     14  C   UNL     1       6.292   3.527  12.561  0.00  0.00    +0.000 C 
ENDBRANCH  12  14
ENDBRANCH  10  12
ENDBRANCH   3  10
ENDBRANCH   1   3
BRANCH   1  15
ATOM     15  O   UNL     1       4.070   3.905  16.791  0.00  0.00    +0.000 OA
BRANCH  15  16
ATOM     16  C   UNL     1       3.600   2.947  17.765  0.00  0.00    +0.000 C 
ATOM     17  C   UNL     1       2.071   2.963  17.936  0.00  0.00    +0.000 C 
ATOM     18  C   UNL     1       1.481   4.384  18.467  0.00  0.00    +0.000 C 
ATOM     19  C   UNL     1       2.106   5.849  18.176  0.00  0.00    +0.000 C 
ATOM     20  C   UNL     1       3.542   5.861  18.713  0.00  0.00    +0.000 C 
ATOM     21  C   UNL     1       3.647   4.654  19.658  0.00  0.00    +0.000 C 
ATOM     22  C   UNL     1       4.267   3.374  19.069  0.00  0.00    +0.000 C 
ATOM     23  N   UNL     1       2.168   4.402  19.955  0.00  0.00    +0.000 N 
ATOM     24  C   UNL     1       1.839   3.186  20.843  0.00  0.00    +0.000 C 
ATOM     25  C   UNL     1       1.663   5.570  20.900  0.00  0.00    +0.000 C 
ENDBRANCH  15  16
ENDBRANCH   1  15
TORSDOF 7
ENDMDL
MODEL 7
REMARK VINA RESULT:      -7.9      1.083      1.956
REMARK  Name = 
REMARK  10 active torsions:
REMARK  status: ('A' for Active; 'I' for Inactive)
REMARK    1  A    between atoms: C_1  and  C_2
REMARK    2  A    between atoms: C_2  and  O_3
REMARK    3  A    between atoms: O_3  and  C_4
REMARK    4  A    between atoms: C_4  and  C_6
REMARK    5  A    between atoms: C_6  and  C_7
REMARK    6  A    between atoms: C_6  and  C_20
REMARK    7  A    between atoms: C_7  and  O_9
REMARK    8  A    between atoms: O_9  and  C_10
REMARK    9  A    between atoms: N_17  and  C_18
REMARK   10  A    between atoms: N_17  and  C_19
REMARK                            x       y       z     vdW  Elec       q    Type
REMARK                         _______ _______ _______ _____ _____    ______ ____
ROOT
ATOM      1  C   UNL     1       6.631   4.656  17.675  0.00  0.00    +0.000 C 
ATOM      2  O   UNL     1       7.606   4.164  18.229  0.00  0.00    +0.000 OA
ENDROOT
BRANCH   1   3
ATOM      3  C   UNL     1       6.709   5.664  16.528  0.00  0.00    +0.000 C 
BRANCH   3   4
ATOM      4  C   UNL     1       6.582   5.006  15.139  0.00  0.00    +0.000 A 
ATOM      5  C   UNL     1       7.518   5.331  14.152  0.00  0.00    +0.000 A 
ATOM      6  C   UNL     1       7.428   4.772  12.873  0.00  0.00    +0.000 A 
ATOM      7  C   UNL     1       6.397   3.890  12.561  0.00  0.00    +0.000 A 
ATOM      8  C   UNL     1       5.468   3.541  13.538  0.00  0.00    +0.000 A 
ATOM      9  C   UNL     1       5.552   4.108  14.813  0.00  0.00    +0.000 A 
ENDBRANCH   3   4
BRANCH   3  10
ATOM     10  C   UNL     1       5.741   6.812  16.722  0.00  0.00    +0.000 C 
ATOM     11  O   UNL     1       4.543   6.794  16.478  0.00  0.00    +0.000 OA
BRANCH  10  12
ATOM     12  O   UNL     1       6.436   7.928  17.110  0.00  0.00    +0.000 OA
BRANCH  12  14
ATOM     13  C   UNL     1       8.289   9.074  18.069  0.00  0.00    +0.000 C 
ATOM     14  C   UNL     1       7.782   7.733  17.572  0.00  0.00    +0.000 C 
ENDBRANCH  12  14
ENDBRANCH  10  12
ENDBRANCH   3  10
ENDBRANCH   1   3
BRANCH   1  15
ATOM     15  O   UNL     1       5.357   4.334  17.987  0.00  0.00    +0.000 OA
BRANCH  15  16
ATOM     16  C   UNL     1       4.918   4.215  19.359  0.00  0.00    +0.000 C 
ATOM     17  C   UNL     1       4.619   2.763  19.772  0.00  0.00    +0.000 C 
ATOM     18  C   UNL     1       3.423   2.066  18.916  0.00  0.00    +0.000 C 
ATOM     19  C   UNL     1       3.039   2.383  17.376  0.00  0.00    +0.000 C 
ATOM     20  C   UNL     1       2.696   3.874  17.276  0.00  0.00    +0.000 C 
ATOM     21  C   UNL     1       2.454   4.347  18.718  0.00  0.00    +0.000 C 
ATOM     22  C   UNL     1       3.636   5.040  19.419  0.00  0.00    +0.000 C 
ATOM     23  N   UNL     1       2.177   3.011  19.408  0.00  0.00    +0.000 N 
ATOM     24  C   UNL     1       1.949   3.053  20.930  0.00  0.00    +0.000 C 
ATOM     25  C   UNL     1       0.748   2.514  18.935  0.00  0.00    +0.000 C 
ENDBRANCH  15  16
ENDBRANCH   1  15
TORSDOF 7
ENDMDL
MODEL 8
REMARK VINA RESULT:      -7.8      1.046      2.111
REMARK  Name = 
REMARK  10 active torsions:
REMARK  status: ('A' for Active; 'I' for Inactive)
REMARK    1  A    between atoms: C_1  and  C_2
REMARK    2  A    between atoms: C_2  and  O_3
REMARK    3  A    between atoms: O_3  and  C_4
REMARK    4  A    between atoms: C_4  and  C_6
REMARK    5  A    between atoms: C_6  and  C_7
REMARK    6  A    between atoms: C_6  and  C_20
REMARK    7  A    between atoms: C_7  and  O_9
REMARK    8  A    between atoms: O_9  and  C_10
REMARK    9  A    between atoms: N_17  and  C_18
REMARK   10  A    between atoms: N_17  and  C_19
REMARK                            x       y       z     vdW  Elec       q    Type
REMARK                         _______ _______ _______ _____ _____    ______ ____
ROOT
ATOM      1  C   UNL     1       6.798   4.670  17.423  0.00  0.00    +0.000 C 
ATOM      2  O   UNL     1       7.759   4.064  17.878  0.00  0.00    +0.000 OA
ENDROOT
BRANCH   1   3
ATOM      3  C   UNL     1       6.880   5.686  16.284  0.00  0.00    +0.000 C 
BRANCH   3   4
ATOM      4  C   UNL     1       6.752   5.040  14.890  0.00  0.00    +0.000 A 
ATOM      5  C   UNL     1       5.706   4.139  14.659  0.00  0.00    +0.000 A 
ATOM      6  C   UNL     1       5.565   3.516  13.415  0.00  0.00    +0.000 A 
ATOM      7  C   UNL     1       6.470   3.776  12.390  0.00  0.00    +0.000 A 
ATOM      8  C   UNL     1       7.505   4.686  12.598  0.00  0.00    +0.000 A 
ATOM      9  C   UNL     1       7.652   5.300  13.845  0.00  0.00    +0.000 A 
ENDBRANCH   3   4
BRANCH   3  10
ATOM     10  C   UNL     1       5.916   6.836  16.486  0.00  0.00    +0.000 C 
ATOM     11  O   UNL     1       4.914   7.063  15.822  0.00  0.00    +0.000 OA
BRANCH  10  12
ATOM     12  O   UNL     1       6.400   7.665  17.466  0.00  0.00    +0.000 OA
BRANCH  12  14
ATOM     13  C   UNL     1       8.080   9.295  17.901  0.00  0.00    +0.000 C 
ATOM     14  C   UNL     1       7.823   7.847  17.524  0.00  0.00    +0.000 C 
ENDBRANCH  12  14
ENDBRANCH  10  12
ENDBRANCH   3  10
ENDBRANCH   1   3
BRANCH   1  15
ATOM     15  O   UNL     1       5.530   4.483  17.851  0.00  0.00    +0.000 OA
BRANCH  15  16
ATOM     16  C   UNL     1       5.206   4.408  19.258  0.00  0.00    +0.000 C 
ATOM     17  C   UNL     1       4.847   2.985  19.719  0.00  0.00    +0.000 C 
ATOM     18  C   UNL     1       3.537   2.362  18.981  0.00  0.00    +0.000 C 
ATOM     19  C   UNL     1       3.041   2.689  17.475  0.00  0.00    +0.000 C 
ATOM     20  C   UNL     1       2.793   4.199  17.381  0.00  0.00    +0.000 C 
ATOM     21  C   UNL     1       2.710   4.702  18.830  0.00  0.00    +0.000 C 
ATOM     22  C   UNL     1       3.992   5.320  19.415  0.00  0.00    +0.000 C 
ATOM     23  N   UNL     1       2.406   3.395  19.563  0.00  0.00    +0.000 N 
ATOM     24  C   UNL     1       2.315   3.469  21.099  0.00  0.00    +0.000 C 
ATOM     25  C   UNL     1       0.910   2.992  19.225  0.00  0.00    +0.000 C 
ENDBRANCH  15  16
ENDBRANCH   1  15
TORSDOF 7
ENDMDL
MODEL 9
REMARK VINA RESULT:      -7.7      1.452      4.286
REMARK  Name = 
REMARK  10 active torsions:
REMARK  status: ('A' for Active; 'I' for Inactive)
REMARK    1  A    between atoms: C_1  and  C_2
REMARK    2  A    between atoms: C_2  and  O_3
REMARK    3  A    between atoms: O_3  and  C_4
REMARK    4  A    between atoms: C_4  and  C_6
REMARK    5  A    between atoms: C_6  and  C_7
REMARK    6  A    between atoms: C_6  and  C_20
REMARK    7  A    between atoms: C_7  and  O_9
REMARK    8  A    between atoms: O_9  and  C_10
REMARK    9  A    between atoms: N_17  and  C_18
REMARK   10  A    between atoms: N_17  and  C_19
REMARK                            x       y       z     vdW  Elec       q    Type
REMARK                         _______ _______ _______ _____ _____    ______ ____
ROOT
ATOM      1  C   UNL     1       5.282   4.016  16.194  0.00  0.00    +0.000 C 
ATOM      2  O   UNL     1       5.578   2.879  15.851  0.00  0.00    +0.000 OA
ENDROOT
BRANCH   1   3
ATOM      3  C   UNL     1       5.987   5.278  15.696  0.00  0.00    +0.000 C 
BRANCH   3   4
ATOM      4  C   UNL     1       6.810   5.981  16.794  0.00  0.00    +0.000 A 
ATOM      5  C   UNL     1       7.277   5.225  17.875  0.00  0.00    +0.000 A 
ATOM      6  C   UNL     1       8.011   5.827  18.901  0.00  0.00    +0.000 A 
ATOM      7  C   UNL     1       8.280   7.193  18.868  0.00  0.00    +0.000 A 
ATOM      8  C   UNL     1       7.839   7.956  17.788  0.00  0.00    +0.000 A 
ATOM      9  C   UNL     1       7.096   7.356  16.767  0.00  0.00    +0.000 A 
ENDBRANCH   3   4
BRANCH   3  10
ATOM     10  C   UNL     1       6.791   5.014  14.441  0.00  0.00    +0.000 C 
ATOM     11  O   UNL     1       7.949   5.355  14.241  0.00  0.00    +0.000 OA
BRANCH  10  12
ATOM     12  O   UNL     1       5.984   4.427  13.501  0.00  0.00    +0.000 OA
BRANCH  12  14
ATOM     13  C   UNL     1       5.578   2.770  11.841  0.00  0.00    +0.000 C 
ATOM     14  C   UNL     1       6.629   3.671  12.465  0.00  0.00    +0.000 C 
ENDBRANCH  12  14
ENDBRANCH  10  12
ENDBRANCH   3  10
ENDBRANCH   1   3
BRANCH   1  15
ATOM     15  O   UNL     1       4.260   4.298  17.032  0.00  0.00    +0.000 OA
BRANCH  15  16
ATOM     16  C   UNL     1       3.053   3.503  17.053  0.00  0.00    +0.000 C 
ATOM     17  C   UNL     1       1.831   4.277  17.576  0.00  0.00    +0.000 C 
ATOM     18  C   UNL     1       1.986   4.796  19.112  0.00  0.00    +0.000 C 
ATOM     19  C   UNL     1       3.366   5.212  19.846  0.00  0.00    +0.000 C 
ATOM     20  C   UNL     1       4.302   3.999  19.807  0.00  0.00    +0.000 C 
ATOM     21  C   UNL     1       3.411   2.792  19.475  0.00  0.00    +0.000 C 
ATOM     22  C   UNL     1       3.376   2.351  18.001  0.00  0.00    +0.000 C 
ATOM     23  N   UNL     1       2.039   3.341  19.865  0.00  0.00    +0.000 N 
ATOM     24  C   UNL     1       0.828   2.425  19.606  0.00  0.00    +0.000 C 
ATOM     25  C   UNL     1       1.985   3.417  21.447  0.00  0.00    +0.000 C 
ENDBRANCH  15  16
ENDBRANCH   1  15
TORSDOF 7
ENDMDL
