MODEL 1
REMARK VINA RESULT:      -8.0      0.000      0.000
REMARK  Name = 
REMARK  9 active torsions:
REMARK  status: ('A' for Active; 'I' for Inactive)
REMARK    1  A    between atoms: C_1  and  O_2
REMARK    2  A    between atoms: O_2  and  C_3
REMARK    3  A    between atoms: C_3  and  C_4
REMARK    4  A    between atoms: C_4  and  O_5
REMARK    5  A    between atoms: O_5  and  C_6
REMARK    6  A    between atoms: C_8  and  C_9
REMARK    7  A    between atoms: N_16  and  C_17
REMARK    8  A    between atoms: C_20  and  N_21
REMARK    9  A    between atoms: C_22  and  C_24
REMARK                            x       y       z     vdW  Elec       q    Type
REMARK                         _______ _______ _______ _____ _____    ______ ____
ROOT
ATOM      1  C   UNL     1       5.413   5.963  16.856  0.00  0.00    +0.000 A 
ATOM      2  N   UNL     1       4.933   4.835  17.444  0.00  0.00    +0.000 NA
ATOM      3  C   UNL     1       3.815   5.239  18.022  0.00  0.00    +0.000 A 
ATOM      4  N   UNL     1       3.721   6.628  17.875  0.00  0.00    +0.000 N 
ATOM      5  N   UNL     1       4.699   7.067  17.046  0.00  0.00    +0.000 NA
ENDROOT
BRANCH   3   6
ATOM      6  C   UNL     1       2.802   4.331  18.591  0.00  0.00    +0.000 A 
ATOM      7  C   UNL     1       1.766   3.844  17.783  0.00  0.00    +0.000 A 
ATOM      8  C   UNL     1       0.808   2.962  18.297  0.00  0.00    +0.000 A 
ATOM      9  C   UNL     1       0.885   2.545  19.624  0.00  0.00    +0.000 A 
ATOM     10  C   UNL     1       1.895   3.039  20.441  0.00  0.00    +0.000 A 
ATOM     11 CL   UNL     1       2.024   2.506  22.071  0.00  0.00    +0.000 Cl
ATOM     12  C   UNL     1       2.820   3.955  19.942  0.00  0.00    +0.000 A 
ENDBRANCH   3   6
BRANCH   4  13
ATOM     13  C   UNL     1       2.740   7.528  18.375  0.00  0.00    +0.000 A 
ATOM     14  C   UNL     1       2.306   8.615  17.611  0.00  0.00    +0.000 A 
ATOM     15  C   UNL     1       1.509   9.608  18.187  0.00  0.00    +0.000 A 
ATOM     16  C   UNL     1       1.107   9.516  19.518  0.00  0.00    +0.000 A 
ATOM     17  C   UNL     1       1.476   8.383  20.258  0.00  0.00    +0.000 A 
ATOM     18  C   UNL     1       2.272   7.380  19.686  0.00  0.00    +0.000 A 
BRANCH  16  19
ATOM     19  N   UNL     1       0.347  10.508  20.171  0.00  0.00    +0.000 N 
ATOM     20  C   UNL     1      -0.929  10.942  19.848  0.00  0.00    +0.000 C 
ATOM     21  O   UNL     1      -1.624  10.513  18.928  0.00  0.00    +0.000 OA
ATOM     22  H   UNL     1       0.803  11.005  20.931  0.00  0.00    +0.000 HD
BRANCH  20  23
ATOM     23  C   UNL     1      -1.520  11.960  20.810  0.00  0.00    +0.000 C 
ATOM     24 CL   UNL     1      -1.011  11.675  22.488  0.00  0.00    +0.000 Cl
ENDBRANCH  20  23
ENDBRANCH  16  19
ENDBRANCH   4  13
BRANCH   1  25
ATOM     25  O   UNL     1       6.493   6.090  16.063  0.00  0.00    +0.000 OA
BRANCH  25  26
ATOM     26  C   UNL     1       6.961   4.817  15.623  0.00  0.00    +0.000 C 
BRANCH  26  27
ATOM     27  C   UNL     1       6.915   4.763  14.098  0.00  0.00    +0.000 C 
BRANCH  27  29
ATOM     28  C   UNL     1       6.001   3.364  12.425  0.00  0.00    +0.000 C 
ATOM     29  O   UNL     1       5.794   3.977  13.690  0.00  0.00    +0.000 OA
ENDBRANCH  27  29
ENDBRANCH  26  27
ENDBRANCH  25  26
ENDBRANCH   1  25
TORSDOF 8
ENDMDL
MODEL 2
REMARK VINA RESULT:      -7.9      1.776      2.341
REMARK  Name = 
REMARK  9 active torsions:
REMARK  status: ('A' for Active; 'I' for Inactive)
REMARK    1  A    between atoms: C_1  and  O_2
REMARK    2  A    between atoms: O_2  and  C_3
REMARK    3  A    between atoms: C_3  and  C_4
REMARK    4  A    between atoms: C_4  and  O_5
REMARK    5  A    between atoms: O_5  and  C_6
REMARK    6  A    between atoms: C_8  and  C_9
REMARK    7  A    between atoms: N_16  and  C_17
REMARK    8  A    between atoms: C_20  and  N_21
REMARK    9  A    between atoms: C_22  and  C_24
REMARK                            x       y       z     vdW  Elec       q    Type
REMARK                         _______ _______ _______ _____ _____    ______ ____
ROOT
ATOM      1  C   UNL     1       4.997   6.351  16.879  0.00  0.00    +0.000 A 
ATOM      2  N   UNL     1       4.596   5.174  17.429  0.00  0.00    +0.000 NA
ATOM      3  C   UNL     1       3.497   5.499  18.088  0.00  0.00    +0.000 A 
ATOM      4  N   UNL     1       3.339   6.889  18.022  0.00  0.00    +0.000 N 
ATOM      5  N   UNL     1       4.251   7.412  17.167  0.00  0.00    +0.000 NA
ENDROOT
BRANCH   3   6
ATOM      6  C   UNL     1       2.554   4.520  18.659  0.00  0.00    +0.000 A 
ATOM      7  C   UNL     1       1.503   4.020  17.878  0.00  0.00    +0.000 A 
ATOM      8  C   UNL     1       0.612   3.072  18.393  0.00  0.00    +0.000 A 
ATOM      9  C   UNL     1       0.771   2.601  19.695  0.00  0.00    +0.000 A 
ATOM     10  C   UNL     1       1.795   3.107  20.488  0.00  0.00    +0.000 A 
ATOM     11 CL   UNL     1       2.024   2.510  22.084  0.00  0.00    +0.000 Cl
ATOM     12  C   UNL     1       2.653   4.086  19.990  0.00  0.00    +0.000 A 
ENDBRANCH   3   6
BRANCH   4  13
ATOM     13  C   UNL     1       2.353   7.718  18.623  0.00  0.00    +0.000 A 
ATOM     14  C   UNL     1       1.755   8.758  17.905  0.00  0.00    +0.000 A 
ATOM     15  C   UNL     1       0.951   9.696  18.560  0.00  0.00    +0.000 A 
ATOM     16  C   UNL     1       0.707   9.592  19.927  0.00  0.00    +0.000 A 
ATOM     17  C   UNL     1       1.241   8.501  20.628  0.00  0.00    +0.000 A 
ATOM     18  C   UNL     1       2.044   7.553  19.978  0.00  0.00    +0.000 A 
BRANCH  16  19
ATOM     19  N   UNL     1      -0.051  10.533  20.655  0.00  0.00    +0.000 N 
ATOM     20  C   UNL     1       0.389  11.724  21.210  0.00  0.00    +0.000 C 
ATOM     21  O   UNL     1       1.535  12.168  21.145  0.00  0.00    +0.000 OA
ATOM     22  H   UNL     1      -1.019  10.289  20.846  0.00  0.00    +0.000 HD
BRANCH  20  23
ATOM     23  C   UNL     1      -0.698  12.571  21.851  0.00  0.00    +0.000 C 
ATOM     24 CL   UNL     1      -1.883  13.157  20.664  0.00  0.00    +0.000 Cl
ENDBRANCH  20  23
ENDBRANCH  16  19
ENDBRANCH   4  13
BRANCH   1  25
ATOM     25  O   UNL     1       6.025   6.565  16.038  0.00  0.00    +0.000 OA
BRANCH  25  26
ATOM     26  C   UNL     1       7.275   6.339  16.684  0.00  0.00    +0.000 C 
BRANCH  26  27
ATOM     27  C   UNL     1       7.614   7.541  17.562  0.00  0.00    +0.000 C 
BRANCH  27  29
ATOM     28  C   UNL     1       7.788   5.771  19.120  0.00  0.00    +0.000 C 
ATOM     29  O   UNL     1       8.215   7.082  18.775  0.00  0.00    +0.000 OA
ENDBRANCH  27  29
ENDBRANCH  26  27
ENDBRANCH  25  26
ENDBRANCH   1  25
TORSDOF 8
ENDMDL
MODEL 3
REMARK VINA RESULT:      -7.9      1.870      2.680
REMARK  Name = 
REMARK  9 active torsions:
REMARK  status: ('A' for Active; 'I' for Inactive)
REMARK    1  A    between atoms: C_1  and  O_2
REMARK    2  A    between atoms: O_2  and  C_3
REMARK    3  A    between atoms: C_3  and  C_4
REMARK    4  A    between atoms: C_4  and  O_5
REMARK    5  A    between atoms: O_5  and  C_6
REMARK    6  A    between atoms: C_8  and  C_9
REMARK    7  A    between atoms: N_16  and  C_17
REMARK    8  A    between atoms: C_20  and  N_21
REMARK    9  A    between atoms: C_22  and  C_24
REMARK                            x       y       z     vdW  Elec       q    Type
REMARK                         _______ _______ _______ _____ _____    ______ ____
ROOT
ATOM      1  C   UNL     1       5.129   6.428  17.194  0.00  0.00    +0.000 A 
ATOM      2  N   UNL     1       4.693   5.234  17.676  0.00  0.00    +0.000 NA
ATOM      3  C   UNL     1       3.545   5.536  18.260  0.00  0.00    +0.000 A 
ATOM      4  N   UNL     1       3.387   6.926  18.225  0.00  0.00    +0.000 N 
ATOM      5  N   UNL     1       4.359   7.478  17.459  0.00  0.00    +0.000 NA
ENDROOT
BRANCH   3   6
ATOM      6  C   UNL     1       2.567   4.537  18.727  0.00  0.00    +0.000 A 
ATOM      7  C   UNL     1       1.618   4.015  17.837  0.00  0.00    +0.000 A 
ATOM      8  C   UNL     1       0.696   3.048  18.254  0.00  0.00    +0.000 A 
ATOM      9  C   UNL     1       0.722   2.581  19.567  0.00  0.00    +0.000 A 
ATOM     10  C   UNL     1       1.642   3.109  20.465  0.00  0.00    +0.000 A 
ATOM     11 CL   UNL     1       1.708   2.518  22.079  0.00  0.00    +0.000 Cl
ATOM     12  C   UNL     1       2.529   4.106  20.062  0.00  0.00    +0.000 A 
ENDBRANCH   3   6
BRANCH   4  13
ATOM     13  C   UNL     1       2.355   7.734  18.776  0.00  0.00    +0.000 A 
ATOM     14  C   UNL     1       1.759   8.750  18.022  0.00  0.00    +0.000 A 
ATOM     15  C   UNL     1       0.905   9.672  18.633  0.00  0.00    +0.000 A 
ATOM     16  C   UNL     1       0.607   9.576  19.991  0.00  0.00    +0.000 A 
ATOM     17  C   UNL     1       1.141   8.507  20.725  0.00  0.00    +0.000 A 
ATOM     18  C   UNL     1       1.995   7.575  20.119  0.00  0.00    +0.000 A 
BRANCH  16  19
ATOM     19  N   UNL     1      -0.206  10.502  20.676  0.00  0.00    +0.000 N 
ATOM     20  C   UNL     1       0.183  11.701  21.253  0.00  0.00    +0.000 C 
ATOM     21  O   UNL     1       1.322  12.165  21.249  0.00  0.00    +0.000 OA
ATOM     22  H   UNL     1      -1.178  10.241  20.815  0.00  0.00    +0.000 HD
BRANCH  20  23
ATOM     23  C   UNL     1      -0.952  12.528  21.834  0.00  0.00    +0.000 C 
ATOM     24 CL   UNL     1      -1.945  11.599  22.977  0.00  0.00    +0.000 Cl
ENDBRANCH  20  23
ENDBRANCH  16  19
ENDBRANCH   4  13
BRANCH   1  25
ATOM     25  O   UNL     1       6.217   6.670  16.440  0.00  0.00    +0.000 OA
BRANCH  25  26
ATOM     26  C   UNL     1       7.389   6.774  17.245  0.00  0.00    +0.000 C 
BRANCH  26  27
ATOM     27  C   UNL     1       7.742   8.247  17.433  0.00  0.00    +0.000 C 
BRANCH  27  29
ATOM     28  C   UNL     1       8.964   9.734  18.809  0.00  0.00    +0.000 C 
ATOM     29  O   UNL     1       8.563   8.387  18.595  0.00  0.00    +0.000 OA
ENDBRANCH  27  29
ENDBRANCH  26  27
ENDBRANCH  25  26
ENDBRANCH   1  25
TORSDOF 8
ENDMDL
MODEL 4
REMARK VINA RESULT:      -7.9      1.032      1.374
REMARK  Name = 
REMARK  9 active torsions:
REMARK  status: ('A' for Active; 'I' for Inactive)
REMARK    1  A    between atoms: C_1  and  O_2
REMARK    2  A    between atoms: O_2  and  C_3
REMARK    3  A    between atoms: C_3  and  C_4
REMARK    4  A    between atoms: C_4  and  O_5
REMARK    5  A    between atoms: O_5  and  C_6
REMARK    6  A    between atoms: C_8  and  C_9
REMARK    7  A    between atoms: N_16  and  C_17
REMARK    8  A    between atoms: C_20  and  N_21
REMARK    9  A    between atoms: C_22  and  C_24
REMARK                            x       y       z     vdW  Elec       q    Type
REMARK                         _______ _______ _______ _____ _____    ______ ____
ROOT
ATOM      1  C   UNL     1       4.975   6.112  16.334  0.00  0.00    +0.000 A 
ATOM      2  N   UNL     1       4.556   4.971  16.944  0.00  0.00    +0.000 NA
ATOM      3  C   UNL     1       3.592   5.386  17.748  0.00  0.00    +0.000 A 
ATOM      4  N   UNL     1       3.545   6.784  17.693  0.00  0.00    +0.000 N 
ATOM      5  N   UNL     1       4.369   7.231  16.715  0.00  0.00    +0.000 NA
ENDROOT
BRANCH   3   6
ATOM      6  C   UNL     1       2.658   4.489  18.453  0.00  0.00    +0.000 A 
ATOM      7  C   UNL     1       1.484   4.061  17.819  0.00  0.00    +0.000 A 
ATOM      8  C   UNL     1       0.597   3.189  18.462  0.00  0.00    +0.000 A 
ATOM      9  C   UNL     1       0.883   2.724  19.745  0.00  0.00    +0.000 A 
ATOM     10  C   UNL     1       2.033   3.160  20.392  0.00  0.00    +0.000 A 
ATOM     11 CL   UNL     1       2.417   2.568  21.960  0.00  0.00    +0.000 Cl
ATOM     12  C   UNL     1       2.891   4.065  19.770  0.00  0.00    +0.000 A 
ENDBRANCH   3   6
BRANCH   4  13
ATOM     13  C   UNL     1       2.726   7.692  18.419  0.00  0.00    +0.000 A 
ATOM     14  C   UNL     1       2.399   7.451  19.757  0.00  0.00    +0.000 A 
ATOM     15  C   UNL     1       1.427   8.228  20.395  0.00  0.00    +0.000 A 
ATOM     16  C   UNL     1       0.795   9.271  19.723  0.00  0.00    +0.000 A 
ATOM     17  C   UNL     1       1.185   9.562  18.407  0.00  0.00    +0.000 A 
ATOM     18  C   UNL     1       2.163   8.791  17.761  0.00  0.00    +0.000 A 
BRANCH  16  19
ATOM     19  N   UNL     1      -0.228  10.057  20.293  0.00  0.00    +0.000 N 
ATOM     20  C   UNL     1      -0.082  11.181  21.092  0.00  0.00    +0.000 C 
ATOM     21  O   UNL     1       0.985  11.691  21.428  0.00  0.00    +0.000 OA
ATOM     22  H   UNL     1      -1.182   9.736  20.153  0.00  0.00    +0.000 HD
BRANCH  20  23
ATOM     23  C   UNL     1      -1.384  11.869  21.470  0.00  0.00    +0.000 C 
ATOM     24 CL   UNL     1      -2.108  12.740  20.101  0.00  0.00    +0.000 Cl
ENDBRANCH  20  23
ENDBRANCH  16  19
ENDBRANCH   4  13
BRANCH   1  25
ATOM     25  O   UNL     1       5.890   6.240  15.355  0.00  0.00    +0.000 OA
BRANCH  25  26
ATOM     26  C   UNL     1       6.836   5.174  15.391  0.00  0.00    +0.000 C 
BRANCH  26  27
ATOM     27  C   UNL     1       7.079   4.667  13.972  0.00  0.00    +0.000 C 
BRANCH  27  29
ATOM     28  C   UNL     1       6.044   3.343  12.309  0.00  0.00    +0.000 C 
ATOM     29  O   UNL     1       6.187   3.584  13.702  0.00  0.00    +0.000 OA
ENDBRANCH  27  29
ENDBRANCH  26  27
ENDBRANCH  25  26
ENDBRANCH   1  25
TORSDOF 8
ENDMDL
MODEL 5
REMARK VINA RESULT:      -7.8      2.761      4.906
REMARK  Name = 
REMARK  9 active torsions:
REMARK  status: ('A' for Active; 'I' for Inactive)
REMARK    1  A    between atoms: C_1  and  O_2
REMARK    2  A    between atoms: O_2  and  C_3
REMARK    3  A    between atoms: C_3  and  C_4
REMARK    4  A    between atoms: C_4  and  O_5
REMARK    5  A    between atoms: O_5  and  C_6
REMARK    6  A    between atoms: C_8  and  C_9
REMARK    7  A    between atoms: N_16  and  C_17
REMARK    8  A    between atoms: C_20  and  N_21
REMARK    9  A    between atoms: C_22  and  C_24
REMARK                            x       y       z     vdW  Elec       q    Type
REMARK                         _______ _______ _______ _____ _____    ______ ____
ROOT
ATOM      1  C   UNL     1       2.484   3.678  17.673  0.00  0.00    +0.000 A 
ATOM      2  N   UNL     1       3.806   3.876  17.426  0.00  0.00    +0.000 NA
ATOM      3  C   UNL     1       4.007   5.129  17.797  0.00  0.00    +0.000 A 
ATOM      4  N   UNL     1       2.770   5.690  18.136  0.00  0.00    +0.000 N 
ATOM      5  N   UNL     1       1.817   4.726  18.144  0.00  0.00    +0.000 NA
ENDROOT
BRANCH   3   6
ATOM      6  C   UNL     1       5.337   5.745  17.948  0.00  0.00    +0.000 A 
ATOM      7  C   UNL     1       5.712   6.816  17.125  0.00  0.00    +0.000 A 
ATOM      8  C   UNL     1       6.961   7.430  17.268  0.00  0.00    +0.000 A 
ATOM      9  C   UNL     1       7.847   6.989  18.249  0.00  0.00    +0.000 A 
ATOM     10  C   UNL     1       7.496   5.913  19.056  0.00  0.00    +0.000 A 
ATOM     11 CL   UNL     1       8.564   5.379  20.294  0.00  0.00    +0.000 Cl
ATOM     12  C   UNL     1       6.272   5.270  18.881  0.00  0.00    +0.000 A 
ENDBRANCH   3   6
BRANCH   4  13
ATOM     13  C   UNL     1       2.456   7.019  18.533  0.00  0.00    +0.000 A 
ATOM     14  C   UNL     1       2.106   7.309  19.856  0.00  0.00    +0.000 A 
ATOM     15  C   UNL     1       1.595   8.567  20.189  0.00  0.00    +0.000 A 
ATOM     16  C   UNL     1       1.456   9.559  19.221  0.00  0.00    +0.000 A 
ATOM     17  C   UNL     1       1.885   9.291  17.913  0.00  0.00    +0.000 A 
ATOM     18  C   UNL     1       2.404   8.033  17.571  0.00  0.00    +0.000 A 
BRANCH  16  19
ATOM     19  N   UNL     1       0.901  10.828  19.482  0.00  0.00    +0.000 N 
ATOM     20  C   UNL     1      -0.277  11.355  18.975  0.00  0.00    +0.000 C 
ATOM     21  O   UNL     1      -1.049  10.782  18.207  0.00  0.00    +0.000 OA
ATOM     22  H   UNL     1       1.449  11.455  20.064  0.00  0.00    +0.000 HD
BRANCH  20  23
ATOM     23  C   UNL     1      -0.658  12.719  19.528  0.00  0.00    +0.000 C 
ATOM     24 CL   UNL     1       0.137  13.062  21.079  0.00  0.00    +0.000 Cl
ENDBRANCH  20  23
ENDBRANCH  16  19
ENDBRANCH   4  13
BRANCH   1  25
ATOM     25  O   UNL     1       1.779   2.539  17.547  0.00  0.00    +0.000 OA
BRANCH  25  26
ATOM     26  C   UNL     1       0.903   2.351  18.655  0.00  0.00    +0.000 C 
BRANCH  26  27
ATOM     27  C   UNL     1       1.727   2.068  19.909  0.00  0.00    +0.000 C 
BRANCH  27  29
ATOM     28  C   UNL     1       2.188   3.640  21.614  0.00  0.00    +0.000 C 
ATOM     29  O   UNL     1       1.198   2.826  20.998  0.00  0.00    +0.000 OA
ENDBRANCH  27  29
ENDBRANCH  26  27
ENDBRANCH  25  26
ENDBRANCH   1  25
TORSDOF 8
ENDMDL
MODEL 6
REMARK VINA RESULT:      -7.8      2.955      5.001
REMARK  Name = 
REMARK  9 active torsions:
REMARK  status: ('A' for Active; 'I' for Inactive)
REMARK    1  A    between atoms: C_1  and  O_2
REMARK    2  A    between atoms: O_2  and  C_3
REMARK    3  A    between atoms: C_3  and  C_4
REMARK    4  A    between atoms: C_4  and  O_5
REMARK    5  A    between atoms: O_5  and  C_6
REMARK    6  A    between atoms: C_8  and  C_9
REMARK    7  A    between atoms: N_16  and  C_17
REMARK    8  A    between atoms: C_20  and  N_21
REMARK    9  A    between atoms: C_22  and  C_24
REMARK                            x       y       z     vdW  Elec       q    Type
REMARK                         _______ _______ _______ _____ _____    ______ ____
ROOT
ATOM      1  C   UNL     1       2.482   3.735  17.609  0.00  0.00    +0.000 A 
ATOM      2  N   UNL     1       3.809   3.922  17.380  0.00  0.00    +0.000 NA
ATOM      3  C   UNL     1       4.016   5.170  17.764  0.00  0.00    +0.000 A 
ATOM      4  N   UNL     1       2.781   5.740  18.092  0.00  0.00    +0.000 N 
ATOM      5  N   UNL     1       1.819   4.785  18.080  0.00  0.00    +0.000 NA
ENDROOT
BRANCH   3   6
ATOM      6  C   UNL     1       5.351   5.773  17.936  0.00  0.00    +0.000 A 
ATOM      7  C   UNL     1       5.748   6.843  17.122  0.00  0.00    +0.000 A 
ATOM      8  C   UNL     1       7.001   7.444  17.285  0.00  0.00    +0.000 A 
ATOM      9  C   UNL     1       7.868   6.991  18.277  0.00  0.00    +0.000 A 
ATOM     10  C   UNL     1       7.495   5.915  19.075  0.00  0.00    +0.000 A 
ATOM     11 CL   UNL     1       8.540   5.367  20.326  0.00  0.00    +0.000 Cl
ATOM     12  C   UNL     1       6.267   5.286  18.881  0.00  0.00    +0.000 A 
ENDBRANCH   3   6
BRANCH   4  13
ATOM     13  C   UNL     1       2.474   7.069  18.496  0.00  0.00    +0.000 A 
ATOM     14  C   UNL     1       2.070   7.346  19.805  0.00  0.00    +0.000 A 
ATOM     15  C   UNL     1       1.568   8.608  20.135  0.00  0.00    +0.000 A 
ATOM     16  C   UNL     1       1.492   9.617  19.178  0.00  0.00    +0.000 A 
ATOM     17  C   UNL     1       1.975   9.360  17.886  0.00  0.00    +0.000 A 
ATOM     18  C   UNL     1       2.485   8.098  17.548  0.00  0.00    +0.000 A 
BRANCH  16  19
ATOM     19  N   UNL     1       0.949  10.893  19.434  0.00  0.00    +0.000 N 
ATOM     20  C   UNL     1       0.806  11.518  20.663  0.00  0.00    +0.000 C 
ATOM     21  O   UNL     1       1.149  11.055  21.750  0.00  0.00    +0.000 OA
ATOM     22  H   UNL     1       0.566  11.394  18.637  0.00  0.00    +0.000 HD
BRANCH  20  23
ATOM     23  C   UNL     1       0.274  12.940  20.598  0.00  0.00    +0.000 C 
ATOM     24 CL   UNL     1       0.779  13.781  19.117  0.00  0.00    +0.000 Cl
ENDBRANCH  20  23
ENDBRANCH  16  19
ENDBRANCH   4  13
BRANCH   1  25
ATOM     25  O   UNL     1       1.768   2.603  17.466  0.00  0.00    +0.000 OA
BRANCH  25  26
ATOM     26  C   UNL     1       0.988   2.336  18.628  0.00  0.00    +0.000 C 
BRANCH  26  27
ATOM     27  C   UNL     1       1.916   2.078  19.812  0.00  0.00    +0.000 C 
BRANCH  27  29
ATOM     28  C   UNL     1       2.146   3.655  21.559  0.00  0.00    +0.000 C 
ATOM     29  O   UNL     1       1.335   2.634  20.993  0.00  0.00    +0.000 OA
ENDBRANCH  27  29
ENDBRANCH  26  27
ENDBRANCH  25  26
ENDBRANCH   1  25
TORSDOF 8
ENDMDL
MODEL 7
REMARK VINA RESULT:      -7.6      1.544      2.007
REMARK  Name = 
REMARK  9 active torsions:
REMARK  status: ('A' for Active; 'I' for Inactive)
REMARK    1  A    between atoms: C_1  and  O_2
REMARK    2  A    between atoms: O_2  and  C_3
REMARK    3  A    between atoms: C_3  and  C_4
REMARK    4  A    between atoms: C_4  and  O_5
REMARK    5  A    between atoms: O_5  and  C_6
REMARK    6  A    between atoms: C_8  and  C_9
REMARK    7  A    between atoms: N_16  and  C_17
REMARK    8  A    between atoms: C_20  and  N_21
REMARK    9  A    between atoms: C_22  and  C_24
REMARK                            x       y       z     vdW  Elec       q    Type
REMARK                         _______ _______ _______ _____ _____    ______ ____
ROOT
ATOM      1  C   UNL     1       5.056   6.233  16.980  0.00  0.00    +0.000 A 
ATOM      2  N   UNL     1       4.603   5.085  17.551  0.00  0.00    +0.000 NA
ATOM      3  C   UNL     1       3.485   5.458  18.151  0.00  0.00    +0.000 A 
ATOM      4  N   UNL     1       3.366   6.848  18.032  0.00  0.00    +0.000 N 
ATOM      5  N   UNL     1       4.326   7.320  17.201  0.00  0.00    +0.000 NA
ENDROOT
BRANCH   3   6
ATOM      6  C   UNL     1       2.495   4.522  18.713  0.00  0.00    +0.000 A 
ATOM      7  C   UNL     1       1.462   4.026  17.905  0.00  0.00    +0.000 A 
ATOM      8  C   UNL     1       0.526   3.117  18.413  0.00  0.00    +0.000 A 
ATOM      9  C   UNL     1       0.621   2.683  19.734  0.00  0.00    +0.000 A 
ATOM     10  C   UNL     1       1.627   3.186  20.551  0.00  0.00    +0.000 A 
ATOM     11 CL   UNL     1       1.779   2.632  22.172  0.00  0.00    +0.000 Cl
ATOM     12  C   UNL     1       2.530   4.126  20.059  0.00  0.00    +0.000 A 
ENDBRANCH   3   6
BRANCH   4  13
ATOM     13  C   UNL     1       2.376   7.720  18.563  0.00  0.00    +0.000 A 
ATOM     14  C   UNL     1       1.804   8.722  17.772  0.00  0.00    +0.000 A 
ATOM     15  C   UNL     1       0.998   9.705  18.355  0.00  0.00    +0.000 A 
ATOM     16  C   UNL     1       0.724   9.684  19.720  0.00  0.00    +0.000 A 
ATOM     17  C   UNL     1       1.232   8.631  20.495  0.00  0.00    +0.000 A 
ATOM     18  C   UNL     1       2.038   7.639  19.918  0.00  0.00    +0.000 A 
BRANCH  16  19
ATOM     19  N   UNL     1      -0.038  10.673  20.375  0.00  0.00    +0.000 N 
ATOM     20  C   UNL     1      -1.190  11.292  19.916  0.00  0.00    +0.000 C 
ATOM     21  O   UNL     1      -1.751  11.065  18.845  0.00  0.00    +0.000 OA
ATOM     22  H   UNL     1       0.323  11.015  21.261  0.00  0.00    +0.000 HD
BRANCH  20  23
ATOM     23  C   UNL     1      -1.838  12.249  20.904  0.00  0.00    +0.000 C 
ATOM     24 CL   UNL     1      -3.499  12.674  20.439  0.00  0.00    +0.000 Cl
ENDBRANCH  20  23
ENDBRANCH  16  19
ENDBRANCH   4  13
BRANCH   1  25
ATOM     25  O   UNL     1       6.124   6.393  16.177  0.00  0.00    +0.000 OA
BRANCH  25  26
ATOM     26  C   UNL     1       7.342   6.232  16.901  0.00  0.00    +0.000 C 
BRANCH  26  27
ATOM     27  C   UNL     1       7.604   4.745  17.123  0.00  0.00    +0.000 C 
BRANCH  27  29
ATOM     28  C   UNL     1       7.855   5.724  19.261  0.00  0.00    +0.000 C 
ATOM     29  O   UNL     1       7.880   4.520  18.507  0.00  0.00    +0.000 OA
ENDBRANCH  27  29
ENDBRANCH  26  27
ENDBRANCH  25  26
ENDBRANCH   1  25
TORSDOF 8
ENDMDL
MODEL 8
REMARK VINA RESULT:      -7.6      1.526      1.777
REMARK  Name = 
REMARK  9 active torsions:
REMARK  status: ('A' for Active; 'I' for Inactive)
REMARK    1  A    between atoms: C_1  and  O_2
REMARK    2  A    between atoms: O_2  and  C_3
REMARK    3  A    between atoms: C_3  and  C_4
REMARK    4  A    between atoms: C_4  and  O_5
REMARK    5  A    between atoms: O_5  and  C_6
REMARK    6  A    between atoms: C_8  and  C_9
REMARK    7  A    between atoms: N_16  and  C_17
REMARK    8  A    between atoms: C_20  and  N_21
REMARK    9  A    between atoms: C_22  and  C_24
REMARK                            x       y       z     vdW  Elec       q    Type
REMARK                         _______ _______ _______ _____ _____    ______ ____
ROOT
ATOM      1  C   UNL     1       4.757   6.458  16.754  0.00  0.00    +0.000 A 
ATOM      2  N   UNL     1       4.396   5.286  17.342  0.00  0.00    +0.000 NA
ATOM      3  C   UNL     1       3.336   5.614  18.060  0.00  0.00    +0.000 A 
ATOM      4  N   UNL     1       3.166   7.001  17.986  0.00  0.00    +0.000 N 
ATOM      5  N   UNL     1       4.022   7.518  17.072  0.00  0.00    +0.000 NA
ENDROOT
BRANCH   3   6
ATOM      6  C   UNL     1       2.435   4.637  18.698  0.00  0.00    +0.000 A 
ATOM      7  C   UNL     1       1.424   4.021  17.948  0.00  0.00    +0.000 A 
ATOM      8  C   UNL     1       0.574   3.073  18.528  0.00  0.00    +0.000 A 
ATOM      9  C   UNL     1       0.734   2.719  19.867  0.00  0.00    +0.000 A 
ATOM     10  C   UNL     1       1.718   3.340  20.627  0.00  0.00    +0.000 A 
ATOM     11 CL   UNL     1       1.951   2.888  22.270  0.00  0.00    +0.000 Cl
ATOM     12  C   UNL     1       2.533   4.319  20.061  0.00  0.00    +0.000 A 
ENDBRANCH   3   6
BRANCH   4  13
ATOM     13  C   UNL     1       2.211   7.833  18.633  0.00  0.00    +0.000 A 
ATOM     14  C   UNL     1       1.544   8.841  17.931  0.00  0.00    +0.000 A 
ATOM     15  C   UNL     1       0.774   9.786  18.616  0.00  0.00    +0.000 A 
ATOM     16  C   UNL     1       0.632   9.720  20.000  0.00  0.00    +0.000 A 
ATOM     17  C   UNL     1       1.235   8.659  20.691  0.00  0.00    +0.000 A 
ATOM     18  C   UNL     1       2.005   7.704  20.011  0.00  0.00    +0.000 A 
BRANCH  16  19
ATOM     19  N   UNL     1      -0.088  10.669  20.754  0.00  0.00    +0.000 N 
ATOM     20  C   UNL     1       0.369  11.887  21.235  0.00  0.00    +0.000 C 
ATOM     21  O   UNL     1       1.497  12.349  21.067  0.00  0.00    +0.000 OA
ATOM     22  H   UNL     1      -1.033  10.414  21.027  0.00  0.00    +0.000 HD
BRANCH  20  23
ATOM     23  C   UNL     1      -0.684  12.734  21.931  0.00  0.00    +0.000 C 
ATOM     24 CL   UNL     1      -0.050  14.315  22.436  0.00  0.00    +0.000 Cl
ENDBRANCH  20  23
ENDBRANCH  16  19
ENDBRANCH   4  13
BRANCH   1  25
ATOM     25  O   UNL     1       5.733   6.667  15.851  0.00  0.00    +0.000 OA
BRANCH  25  26
ATOM     26  C   UNL     1       5.834   5.575  14.940  0.00  0.00    +0.000 C 
BRANCH  26  27
ATOM     27  C   UNL     1       7.042   4.718  15.311  0.00  0.00    +0.000 C 
BRANCH  27  29
ATOM     28  C   UNL     1       7.763   4.466  17.549  0.00  0.00    +0.000 C 
ATOM     29  O   UNL     1       7.722   5.320  16.414  0.00  0.00    +0.000 OA
ENDBRANCH  27  29
ENDBRANCH  26  27
ENDBRANCH  25  26
ENDBRANCH   1  25
TORSDOF 8
ENDMDL
MODEL 9
REMARK VINA RESULT:      -7.6      1.333      2.227
REMARK  Name = 
REMARK  9 active torsions:
REMARK  status: ('A' for Active; 'I' for Inactive)
REMARK    1  A    between atoms: C_1  and  O_2
REMARK    2  A    between atoms: O_2  and  C_3
REMARK    3  A    between atoms: C_3  and  C_4
REMARK    4  A    between atoms: C_4  and  O_5
REMARK    5  A    between atoms: O_5  and  C_6
REMARK    6  A    between atoms: C_8  and  C_9
REMARK    7  A    between atoms: N_16  and  C_17
REMARK    8  A    between atoms: C_20  and  N_21
REMARK    9  A    between atoms: C_22  and  C_24
REMARK                            x       y       z     vdW  Elec       q    Type
REMARK                         _______ _______ _______ _____ _____    ______ ____
ROOT
ATOM      1  C   UNL     1       4.950   5.873  16.434  0.00  0.00    +0.000 A 
ATOM      2  N   UNL     1       4.489   4.767  17.076  0.00  0.00    +0.000 NA
ATOM      3  C   UNL     1       3.522   5.236  17.846  0.00  0.00    +0.000 A 
ATOM      4  N   UNL     1       3.515   6.632  17.742  0.00  0.00    +0.000 N 
ATOM      5  N   UNL     1       4.369   7.022  16.765  0.00  0.00    +0.000 NA
ENDROOT
BRANCH   3   6
ATOM      6  C   UNL     1       2.552   4.389  18.564  0.00  0.00    +0.000 A 
ATOM      7  C   UNL     1       1.428   3.887  17.893  0.00  0.00    +0.000 A 
ATOM      8  C   UNL     1       0.508   3.062  18.550  0.00  0.00    +0.000 A 
ATOM      9  C   UNL     1       0.710   2.717  19.885  0.00  0.00    +0.000 A 
ATOM     10  C   UNL     1       1.808   3.228  20.567  0.00  0.00    +0.000 A 
ATOM     11 CL   UNL     1       2.090   2.782  22.204  0.00  0.00    +0.000 Cl
ATOM     12  C   UNL     1       2.698   4.088  19.926  0.00  0.00    +0.000 A 
ENDBRANCH   3   6
BRANCH   4  13
ATOM     13  C   UNL     1       2.709   7.586  18.420  0.00  0.00    +0.000 A 
ATOM     14  C   UNL     1       2.386   7.423  19.771  0.00  0.00    +0.000 A 
ATOM     15  C   UNL     1       1.426   8.243  20.370  0.00  0.00    +0.000 A 
ATOM     16  C   UNL     1       0.800   9.254  19.644  0.00  0.00    +0.000 A 
ATOM     17  C   UNL     1       1.186   9.468  18.313  0.00  0.00    +0.000 A 
ATOM     18  C   UNL     1       2.153   8.653  17.706  0.00  0.00    +0.000 A 
BRANCH  16  19
ATOM     19  N   UNL     1      -0.212  10.080  20.175  0.00  0.00    +0.000 N 
ATOM     20  C   UNL     1      -0.059  11.149  21.044  0.00  0.00    +0.000 C 
ATOM     21  O   UNL     1       1.008  11.565  21.492  0.00  0.00    +0.000 OA
ATOM     22  H   UNL     1      -1.170   9.835  19.942  0.00  0.00    +0.000 HD
BRANCH  20  23
ATOM     23  C   UNL     1      -1.340  11.907  21.356  0.00  0.00    +0.000 C 
ATOM     24 CL   UNL     1      -1.629  12.050  23.103  0.00  0.00    +0.000 Cl
ENDBRANCH  20  23
ENDBRANCH  16  19
ENDBRANCH   4  13
BRANCH   1  25
ATOM     25  O   UNL     1       5.886   5.943  15.469  0.00  0.00    +0.000 OA
BRANCH  25  26
ATOM     26  C   UNL     1       7.111   5.351  15.896  0.00  0.00    +0.000 C 
BRANCH  26  27
ATOM     27  C   UNL     1       7.592   6.047  17.166  0.00  0.00    +0.000 C 
BRANCH  27  29
ATOM     28  C   UNL     1       7.420   5.625  19.487  0.00  0.00    +0.000 C 
ATOM     29  O   UNL     1       7.724   5.080  18.209  0.00  0.00    +0.000 OA
ENDBRANCH  27  29
ENDBRANCH  26  27
ENDBRANCH  25  26
ENDBRANCH   1  25
TORSDOF 8
ENDMDL
