MODEL 1
REMARK VINA RESULT:      -5.0      0.000      0.000
REMARK  Name = 
REMARK  3 active torsions:
REMARK  status: ('A' for Active; 'I' for Inactive)
REMARK    1  A    between atoms: C_2  and  C_3
REMARK    2  A    between atoms: C_5  and  C_6
REMARK    3  A    between atoms: C_8  and  N_9
REMARK                            x       y       z     vdW  Elec       q    Type
REMARK                         _______ _______ _______ _____ _____    ______ ____
ROOT
ATOM      1  C   UNL     1       6.793   4.862  16.741  0.00  0.00    +0.000 A 
ATOM      2  N   UNL     1       6.992   6.154  16.508  0.00  0.00    +0.000 NA
ATOM      3  C   UNL     1       7.526   6.645  17.674  0.00  0.00    +0.000 A 
ATOM      4  C   UNL     1       7.655   5.640  18.599  0.00  0.00    +0.000 A 
ATOM      5  O   UNL     1       7.193   4.500  18.020  0.00  0.00    +0.000 OA
ENDROOT
BRANCH   4   6
ATOM      6  N   UNL     1       8.104   5.536  19.858  0.00  0.00    +0.000 N 
ATOM      7  H   UNL     1       8.792   4.839  20.127  0.00  0.00    +0.000 HD
ATOM      8  H   UNL     1       7.527   5.876  20.621  0.00  0.00    +0.000 HD
ENDBRANCH   4   6
BRANCH   1  10
ATOM      9  C   UNL     1       5.713   4.351  14.636  0.00  0.00    +0.000 C 
ATOM     10  C   UNL     1       6.241   3.950  15.800  0.00  0.00    +0.000 C 
ENDBRANCH   1  10
BRANCH   3  11
ATOM     11  C   UNL     1       7.878   8.015  17.829  0.00  0.00    +0.000 C 
ATOM     12  N   UNL     1       8.136   9.141  17.955  0.00  0.00    +0.000 NA
ENDBRANCH   3  11
TORSDOF 3
ENDMDL
MODEL 2
REMARK VINA RESULT:      -4.8      1.949      4.126
REMARK  Name = 
REMARK  3 active torsions:
REMARK  status: ('A' for Active; 'I' for Inactive)
REMARK    1  A    between atoms: C_2  and  C_3
REMARK    2  A    between atoms: C_5  and  C_6
REMARK    3  A    between atoms: C_8  and  N_9
REMARK                            x       y       z     vdW  Elec       q    Type
REMARK                         _______ _______ _______ _____ _____    ______ ____
ROOT
ATOM      1  C   UNL     1       7.168   6.041  17.290  0.00  0.00    +0.000 A 
ATOM      2  N   UNL     1       7.342   5.840  15.989  0.00  0.00    +0.000 NA
ATOM      3  C   UNL     1       6.539   4.767  15.688  0.00  0.00    +0.000 A 
ATOM      4  C   UNL     1       5.877   4.337  16.809  0.00  0.00    +0.000 A 
ATOM      5  O   UNL     1       6.267   5.137  17.837  0.00  0.00    +0.000 OA
ENDROOT
BRANCH   4   6
ATOM      6  N   UNL     1       4.993   3.372  17.101  0.00  0.00    +0.000 N 
ATOM      7  H   UNL     1       4.730   2.662  16.425  0.00  0.00    +0.000 HD
ATOM      8  H   UNL     1       4.310   3.530  17.835  0.00  0.00    +0.000 HD
ENDBRANCH   4   6
BRANCH   1  10
ATOM      9  C   UNL     1       7.825   8.341  17.656  0.00  0.00    +0.000 C 
ATOM     10  C   UNL     1       7.817   7.059  18.041  0.00  0.00    +0.000 C 
ENDBRANCH   1  10
BRANCH   3  11
ATOM     11  C   UNL     1       6.450   4.233  14.371  0.00  0.00    +0.000 C 
ATOM     12  N   UNL     1       6.373   3.825  13.286  0.00  0.00    +0.000 NA
ENDBRANCH   3  11
TORSDOF 3
ENDMDL
MODEL 3
REMARK VINA RESULT:      -4.8      3.202      4.697
REMARK  Name = 
REMARK  3 active torsions:
REMARK  status: ('A' for Active; 'I' for Inactive)
REMARK    1  A    between atoms: C_2  and  C_3
REMARK    2  A    between atoms: C_5  and  C_6
REMARK    3  A    between atoms: C_8  and  N_9
REMARK                            x       y       z     vdW  Elec       q    Type
REMARK                         _______ _______ _______ _____ _____    ______ ____
ROOT
ATOM      1  C   UNL     1       6.172   3.646  12.632  0.00  0.00    +0.000 A 
ATOM      2  N   UNL     1       6.024   3.730  13.948  0.00  0.00    +0.000 NA
ATOM      3  C   UNL     1       6.986   4.622  14.356  0.00  0.00    +0.000 A 
ATOM      4  C   UNL     1       7.700   5.077  13.277  0.00  0.00    +0.000 A 
ATOM      5  O   UNL     1       7.195   4.465  12.173  0.00  0.00    +0.000 OA
ENDROOT
BRANCH   4   6
ATOM      6  N   UNL     1       8.715   5.931  13.079  0.00  0.00    +0.000 N 
ATOM      7  H   UNL     1       9.633   5.616  12.781  0.00  0.00    +0.000 HD
ATOM      8  H   UNL     1       8.711   6.827  13.558  0.00  0.00    +0.000 HD
ENDBRANCH   4   6
BRANCH   1  10
ATOM      9  C   UNL     1       4.190   3.210  11.313  0.00  0.00    +0.000 C 
ATOM     10  C   UNL     1       5.382   2.822  11.783  0.00  0.00    +0.000 C 
ENDBRANCH   1  10
BRANCH   3  11
ATOM     11  C   UNL     1       7.157   4.981  15.722  0.00  0.00    +0.000 C 
ATOM     12  N   UNL     1       7.276   5.297  16.833  0.00  0.00    +0.000 NA
ENDBRANCH   3  11
TORSDOF 3
ENDMDL
MODEL 4
REMARK VINA RESULT:      -4.8      1.980      2.693
REMARK  Name = 
REMARK  3 active torsions:
REMARK  status: ('A' for Active; 'I' for Inactive)
REMARK    1  A    between atoms: C_2  and  C_3
REMARK    2  A    between atoms: C_5  and  C_6
REMARK    3  A    between atoms: C_8  and  N_9
REMARK                            x       y       z     vdW  Elec       q    Type
REMARK                         _______ _______ _______ _____ _____    ______ ____
ROOT
ATOM      1  C   UNL     1       6.623   4.373  14.307  0.00  0.00    +0.000 A 
ATOM      2  N   UNL     1       7.221   5.414  14.873  0.00  0.00    +0.000 NA
ATOM      3  C   UNL     1       6.851   5.358  16.195  0.00  0.00    +0.000 A 
ATOM      4  C   UNL     1       6.040   4.274  16.417  0.00  0.00    +0.000 A 
ATOM      5  O   UNL     1       5.885   3.637  15.226  0.00  0.00    +0.000 OA
ENDROOT
BRANCH   4   6
ATOM      6  N   UNL     1       5.410   3.737  17.472  0.00  0.00    +0.000 N 
ATOM      7  H   UNL     1       4.451   3.408  17.415  0.00  0.00    +0.000 HD
ATOM      8  H   UNL     1       5.720   3.975  18.410  0.00  0.00    +0.000 HD
ENDBRANCH   4   6
BRANCH   1  10
ATOM      9  C   UNL     1       5.804   3.287  12.305  0.00  0.00    +0.000 C 
ATOM     10  C   UNL     1       6.720   4.039  12.929  0.00  0.00    +0.000 C 
ENDBRANCH   1  10
BRANCH   3  11
ATOM     11  C   UNL     1       7.291   6.321  17.147  0.00  0.00    +0.000 C 
ATOM     12  N   UNL     1       7.673   7.113  17.905  0.00  0.00    +0.000 NA
ENDBRANCH   3  11
TORSDOF 3
ENDMDL
MODEL 5
REMARK VINA RESULT:      -4.7      2.231      3.384
REMARK  Name = 
REMARK  3 active torsions:
REMARK  status: ('A' for Active; 'I' for Inactive)
REMARK    1  A    between atoms: C_2  and  C_3
REMARK    2  A    between atoms: C_5  and  C_6
REMARK    3  A    between atoms: C_8  and  N_9
REMARK                            x       y       z     vdW  Elec       q    Type
REMARK                         _______ _______ _______ _____ _____    ______ ____
ROOT
ATOM      1  C   UNL     1       6.375   4.219  14.513  0.00  0.00    +0.000 A 
ATOM      2  N   UNL     1       5.889   3.671  15.620  0.00  0.00    +0.000 NA
ATOM      3  C   UNL     1       6.237   4.540  16.626  0.00  0.00    +0.000 A 
ATOM      4  C   UNL     1       6.922   5.612  16.113  0.00  0.00    +0.000 A 
ATOM      5  O   UNL     1       7.019   5.422  14.770  0.00  0.00    +0.000 OA
ENDROOT
BRANCH   4   6
ATOM      6  N   UNL     1       7.478   6.729  16.603  0.00  0.00    +0.000 N 
ATOM      7  H   UNL     1       6.918   7.504  16.944  0.00  0.00    +0.000 HD
ATOM      8  H   UNL     1       8.419   6.983  16.317  0.00  0.00    +0.000 HD
ENDBRANCH   4   6
BRANCH   1  10
ATOM      9  C   UNL     1       5.089   3.597  12.560  0.00  0.00    +0.000 C 
ATOM     10  C   UNL     1       6.256   3.651  13.215  0.00  0.00    +0.000 C 
ENDBRANCH   1  10
BRANCH   3  11
ATOM     11  C   UNL     1       5.895   4.301  17.987  0.00  0.00    +0.000 C 
ATOM     12  N   UNL     1       5.589   4.094  19.088  0.00  0.00    +0.000 NA
ENDBRANCH   3  11
TORSDOF 3
ENDMDL
MODEL 6
REMARK VINA RESULT:      -4.7      1.394      2.456
REMARK  Name = 
REMARK  3 active torsions:
REMARK  status: ('A' for Active; 'I' for Inactive)
REMARK    1  A    between atoms: C_2  and  C_3
REMARK    2  A    between atoms: C_5  and  C_6
REMARK    3  A    between atoms: C_8  and  N_9
REMARK                            x       y       z     vdW  Elec       q    Type
REMARK                         _______ _______ _______ _____ _____    ______ ____
ROOT
ATOM      1  C   UNL     1       6.319   4.961  16.069  0.00  0.00    +0.000 A 
ATOM      2  N   UNL     1       6.581   4.500  17.287  0.00  0.00    +0.000 NA
ATOM      3  C   UNL     1       7.152   5.559  17.950  0.00  0.00    +0.000 A 
ATOM      4  C   UNL     1       7.220   6.654  17.128  0.00  0.00    +0.000 A 
ATOM      5  O   UNL     1       6.695   6.290  15.928  0.00  0.00    +0.000 OA
ENDROOT
BRANCH   4   6
ATOM      6  N   UNL     1       7.657   7.917  17.234  0.00  0.00    +0.000 N 
ATOM      7  H   UNL     1       7.842   8.349  18.135  0.00  0.00    +0.000 HD
ATOM      8  H   UNL     1       7.467   8.574  16.483  0.00  0.00    +0.000 HD
ENDBRANCH   4   6
BRANCH   1  10
ATOM      9  C   UNL     1       6.312   4.025  13.838  0.00  0.00    +0.000 C 
ATOM     10  C   UNL     1       5.725   4.195  15.029  0.00  0.00    +0.000 C 
ENDBRANCH   1  10
BRANCH   3  11
ATOM     11  C   UNL     1       7.584   5.462  19.303  0.00  0.00    +0.000 C 
ATOM     12  N   UNL     1       7.945   5.412  20.406  0.00  0.00    +0.000 NA
ENDBRANCH   3  11
TORSDOF 3
ENDMDL
MODEL 7
REMARK VINA RESULT:      -4.7      2.030      2.848
REMARK  Name = 
REMARK  3 active torsions:
REMARK  status: ('A' for Active; 'I' for Inactive)
REMARK    1  A    between atoms: C_2  and  C_3
REMARK    2  A    between atoms: C_5  and  C_6
REMARK    3  A    between atoms: C_8  and  N_9
REMARK                            x       y       z     vdW  Elec       q    Type
REMARK                         _______ _______ _______ _____ _____    ______ ____
ROOT
ATOM      1  C   UNL     1       6.616   4.354  15.019  0.00  0.00    +0.000 A 
ATOM      2  N   UNL     1       7.477   4.878  15.884  0.00  0.00    +0.000 NA
ATOM      3  C   UNL     1       6.911   4.667  17.118  0.00  0.00    +0.000 A 
ATOM      4  C   UNL     1       5.716   4.006  16.987  0.00  0.00    +0.000 A 
ATOM      5  O   UNL     1       5.514   3.801  15.658  0.00  0.00    +0.000 OA
ENDROOT
BRANCH   4   6
ATOM      6  N   UNL     1       4.767   3.549  17.816  0.00  0.00    +0.000 N 
ATOM      7  H   UNL     1       3.916   4.071  17.999  0.00  0.00    +0.000 HD
ATOM      8  H   UNL     1       5.020   2.886  18.543  0.00  0.00    +0.000 HD
ENDBRANCH   4   6
BRANCH   1  10
ATOM      9  C   UNL     1       6.067   3.572  12.796  0.00  0.00    +0.000 C 
ATOM     10  C   UNL     1       6.792   4.352  13.608  0.00  0.00    +0.000 C 
ENDBRANCH   1  10
BRANCH   3  11
ATOM     11  C   UNL     1       7.537   5.096  18.322  0.00  0.00    +0.000 C 
ATOM     12  N   UNL     1       8.022   5.438  19.320  0.00  0.00    +0.000 NA
ENDBRANCH   3  11
TORSDOF 3
ENDMDL
MODEL 8
REMARK VINA RESULT:      -4.7      2.309      3.149
REMARK  Name = 
REMARK  3 active torsions:
REMARK  status: ('A' for Active; 'I' for Inactive)
REMARK    1  A    between atoms: C_2  and  C_3
REMARK    2  A    between atoms: C_5  and  C_6
REMARK    3  A    between atoms: C_8  and  N_9
REMARK                            x       y       z     vdW  Elec       q    Type
REMARK                         _______ _______ _______ _____ _____    ______ ____
ROOT
ATOM      1  C   UNL     1       6.604   4.527  15.401  0.00  0.00    +0.000 A 
ATOM      2  N   UNL     1       5.454   4.349  16.041  0.00  0.00    +0.000 NA
ATOM      3  C   UNL     1       5.782   4.389  17.374  0.00  0.00    +0.000 A 
ATOM      4  C   UNL     1       7.128   4.601  17.527  0.00  0.00    +0.000 A 
ATOM      5  O   UNL     1       7.666   4.690  16.281  0.00  0.00    +0.000 OA
ENDROOT
BRANCH   4   6
ATOM      6  N   UNL     1       7.976   4.731  18.557  0.00  0.00    +0.000 N 
ATOM      7  H   UNL     1       7.942   5.530  19.184  0.00  0.00    +0.000 HD
ATOM      8  H   UNL     1       8.874   4.258  18.525  0.00  0.00    +0.000 HD
ENDBRANCH   4   6
BRANCH   1  10
ATOM      9  C   UNL     1       6.107   3.683  13.188  0.00  0.00    +0.000 C 
ATOM     10  C   UNL     1       6.743   4.550  13.986  0.00  0.00    +0.000 C 
ENDBRANCH   1  10
BRANCH   3  11
ATOM     11  C   UNL     1       4.808   4.230  18.399  0.00  0.00    +0.000 C 
ATOM     12  N   UNL     1       4.017   4.070  19.235  0.00  0.00    +0.000 NA
ENDBRANCH   3  11
TORSDOF 3
ENDMDL
MODEL 9
REMARK VINA RESULT:      -4.7      2.942      4.175
REMARK  Name = 
REMARK  3 active torsions:
REMARK  status: ('A' for Active; 'I' for Inactive)
REMARK    1  A    between atoms: C_2  and  C_3
REMARK    2  A    between atoms: C_5  and  C_6
REMARK    3  A    between atoms: C_8  and  N_9
REMARK                            x       y       z     vdW  Elec       q    Type
REMARK                         _______ _______ _______ _____ _____    ______ ____
ROOT
ATOM      1  C   UNL     1       6.487   5.630  18.303  0.00  0.00    +0.000 A 
ATOM      2  N   UNL     1       5.268   5.997  17.924  0.00  0.00    +0.000 NA
ATOM      3  C   UNL     1       4.458   4.945  18.273  0.00  0.00    +0.000 A 
ATOM      4  C   UNL     1       5.195   3.955  18.872  0.00  0.00    +0.000 A 
ATOM      5  O   UNL     1       6.488   4.375  18.897  0.00  0.00    +0.000 OA
ENDROOT
BRANCH   4   6
ATOM      6  N   UNL     1       4.945   2.749  19.401  0.00  0.00    +0.000 N 
ATOM      7  H   UNL     1       4.146   2.191  19.115  0.00  0.00    +0.000 HD
ATOM      8  H   UNL     1       5.306   2.527  20.324  0.00  0.00    +0.000 HD
ENDBRANCH   4   6
BRANCH   1  10
ATOM      9  C   UNL     1       7.624   7.638  17.572  0.00  0.00    +0.000 C 
ATOM     10  C   UNL     1       7.656   6.420  18.128  0.00  0.00    +0.000 C 
ENDBRANCH   1  10
BRANCH   3  11
ATOM     11  C   UNL     1       3.056   4.952  18.025  0.00  0.00    +0.000 C 
ATOM     12  N   UNL     1       1.911   4.985  17.835  0.00  0.00    +0.000 NA
ENDBRANCH   3  11
TORSDOF 3
ENDMDL
