MODEL 1
REMARK VINA RESULT:      -7.5      0.000      0.000
REMARK  Name = 
REMARK  4 active torsions:
REMARK  status: ('A' for Active; 'I' for Inactive)
REMARK    1  A    between atoms: C_1  and  C_2
REMARK    2  A    between atoms: C_8  and  C_9
REMARK    3  A    between atoms: N_11  and  C_12
REMARK    4  A    between atoms: C_17  and  N_18
REMARK                            x       y       z     vdW  Elec       q    Type
REMARK                         _______ _______ _______ _____ _____    ______ ____
ROOT
ATOM      1  C   UNL     1       3.831   3.541  16.731  0.00  0.00    +0.000 C 
ATOM      2  O   UNL     1       4.390   2.445  16.679  0.00  0.00    +0.000 OA
ATOM      3  N   UNL     1       4.177   4.620  15.926  0.00  0.00    +0.000 N 
ATOM      4  H   UNL     1       3.450   5.281  15.676  0.00  0.00    +0.000 HD
ENDROOT
BRANCH   1  12
ATOM      5  C   UNL     1       4.702   2.475  19.974  0.00  0.00    +0.000 C 
ATOM      6  C   UNL     1       3.382   3.250  19.960  0.00  0.00    +0.000 C 
ATOM      7  C   UNL     1       2.572   2.918  21.215  0.00  0.00    +0.000 C 
ATOM      8  C   UNL     1       1.128   2.996  20.769  0.00  0.00    +0.000 C 
ATOM      9  C   UNL     1       1.207   2.712  19.290  0.00  0.00    +0.000 C 
ATOM     10  O   UNL     1       0.239   2.517  18.570  0.00  0.00    +0.000 OA
ATOM     11  N   UNL     1       2.523   2.896  18.843  0.00  0.00    +0.000 N 
ATOM     12  C   UNL     1       2.641   3.793  17.674  0.00  0.00    +0.000 C 
ATOM     13  C   UNL     1       2.736   5.210  18.254  0.00  0.00    +0.000 C 
ATOM     14  S   UNL     1       3.673   5.049  19.814  0.00  0.00    +0.000 S 
ENDBRANCH   1  12
BRANCH   3  15
ATOM     15  C   UNL     1       5.245   4.506  14.999  0.00  0.00    +0.000 A 
ATOM     16  C   UNL     1       4.990   3.867  13.771  0.00  0.00    +0.000 A 
ATOM     17  C   UNL     1       6.001   3.691  12.832  0.00  0.00    +0.000 A 
ATOM     18  C   UNL     1       7.264   4.195  13.095  0.00  0.00    +0.000 A 
ATOM     19  C   UNL     1       7.524   4.823  14.319  0.00  0.00    +0.000 A 
ATOM     20  C   UNL     1       6.545   4.957  15.326  0.00  0.00    +0.000 A 
BRANCH  20  21
ATOM     21  N   UNL     1       6.871   5.470  16.582  0.00  0.00    +0.000 N 
ATOM     22  C   UNL     1       6.494   6.851  16.911  0.00  0.00    +0.000 C 
ATOM     23  C   UNL     1       7.608   7.446  17.769  0.00  0.00    +0.000 C 
ATOM     24  C   UNL     1       7.882   6.589  19.004  0.00  0.00    +0.000 C 
ATOM     25  C   UNL     1       8.069   5.110  18.649  0.00  0.00    +0.000 C 
ATOM     26  C   UNL     1       6.929   4.596  17.761  0.00  0.00    +0.000 C 
ENDBRANCH  20  21
ENDBRANCH   3  15
TORSDOF 3
ENDMDL
MODEL 2
REMARK VINA RESULT:      -7.1      1.526      1.938
REMARK  Name = 
REMARK  4 active torsions:
REMARK  status: ('A' for Active; 'I' for Inactive)
REMARK    1  A    between atoms: C_1  and  C_2
REMARK    2  A    between atoms: C_8  and  C_9
REMARK    3  A    between atoms: N_11  and  C_12
REMARK    4  A    between atoms: C_17  and  N_18
REMARK                            x       y       z     vdW  Elec       q    Type
REMARK                         _______ _______ _______ _____ _____    ______ ____
ROOT
ATOM      1  C   UNL     1       4.290   3.543  16.876  0.00  0.00    +0.000 C 
ATOM      2  O   UNL     1       3.660   4.505  16.435  0.00  0.00    +0.000 OA
ATOM      3  N   UNL     1       5.511   3.122  16.362  0.00  0.00    +0.000 N 
ATOM      4  H   UNL     1       6.169   2.681  16.995  0.00  0.00    +0.000 HD
ENDROOT
BRANCH   1  12
ATOM      5  C   UNL     1       2.718   5.760  19.117  0.00  0.00    +0.000 C 
ATOM      6  C   UNL     1       2.503   4.297  19.513  0.00  0.00    +0.000 C 
ATOM      7  C   UNL     1       2.123   4.208  20.992  0.00  0.00    +0.000 C 
ATOM      8  C   UNL     1       2.720   2.900  21.461  0.00  0.00    +0.000 C 
ATOM      9  C   UNL     1       3.868   2.681  20.509  0.00  0.00    +0.000 C 
ATOM     10  O   UNL     1       4.720   1.814  20.639  0.00  0.00    +0.000 OA
ATOM     11  N   UNL     1       3.700   3.486  19.373  0.00  0.00    +0.000 N 
ATOM     12  C   UNL     1       3.792   2.748  18.096  0.00  0.00    +0.000 C 
ATOM     13  C   UNL     1       2.377   2.224  17.823  0.00  0.00    +0.000 C 
ATOM     14  S   UNL     1       1.239   3.505  18.454  0.00  0.00    +0.000 S 
ENDBRANCH   1  12
BRANCH   3  15
ATOM     15  C   UNL     1       6.086   3.790  15.249  0.00  0.00    +0.000 A 
ATOM     16  C   UNL     1       5.934   3.208  13.977  0.00  0.00    +0.000 A 
ATOM     17  C   UNL     1       6.503   3.792  12.850  0.00  0.00    +0.000 A 
ATOM     18  C   UNL     1       7.190   4.988  12.981  0.00  0.00    +0.000 A 
ATOM     19  C   UNL     1       7.352   5.564  14.247  0.00  0.00    +0.000 A 
ATOM     20  C   UNL     1       6.852   4.966  15.423  0.00  0.00    +0.000 A 
BRANCH  20  21
ATOM     21  N   UNL     1       7.143   5.498  16.680  0.00  0.00    +0.000 N 
ATOM     22  C   UNL     1       6.667   6.846  17.014  0.00  0.00    +0.000 C 
ATOM     23  C   UNL     1       7.736   7.519  17.870  0.00  0.00    +0.000 C 
ATOM     24  C   UNL     1       8.076   6.681  19.102  0.00  0.00    +0.000 C 
ATOM     25  C   UNL     1       8.370   5.221  18.742  0.00  0.00    +0.000 C 
ATOM     26  C   UNL     1       7.268   4.628  17.855  0.00  0.00    +0.000 C 
ENDBRANCH  20  21
ENDBRANCH   3  15
TORSDOF 3
ENDMDL
MODEL 3
REMARK VINA RESULT:      -6.9      1.623      2.205
REMARK  Name = 
REMARK  4 active torsions:
REMARK  status: ('A' for Active; 'I' for Inactive)
REMARK    1  A    between atoms: C_1  and  C_2
REMARK    2  A    between atoms: C_8  and  C_9
REMARK    3  A    between atoms: N_11  and  C_12
REMARK    4  A    between atoms: C_17  and  N_18
REMARK                            x       y       z     vdW  Elec       q    Type
REMARK                         _______ _______ _______ _____ _____    ______ ____
ROOT
ATOM      1  C   UNL     1       4.448   3.699  16.759  0.00  0.00    +0.000 C 
ATOM      2  O   UNL     1       4.004   4.816  16.491  0.00  0.00    +0.000 OA
ATOM      3  N   UNL     1       5.497   3.103  16.069  0.00  0.00    +0.000 N 
ATOM      4  H   UNL     1       6.099   2.463  16.576  0.00  0.00    +0.000 HD
ENDROOT
BRANCH   1  12
ATOM      5  C   UNL     1       2.970   5.897  19.082  0.00  0.00    +0.000 C 
ATOM      6  C   UNL     1       2.681   4.431  19.415  0.00  0.00    +0.000 C 
ATOM      7  C   UNL     1       2.286   4.300  20.887  0.00  0.00    +0.000 C 
ATOM      8  C   UNL     1       2.815   2.946  21.305  0.00  0.00    +0.000 C 
ATOM      9  C   UNL     1       3.958   2.710  20.351  0.00  0.00    +0.000 C 
ATOM     10  O   UNL     1       4.765   1.798  20.449  0.00  0.00    +0.000 OA
ATOM     11  N   UNL     1       3.838   3.568  19.248  0.00  0.00    +0.000 N 
ATOM     12  C   UNL     1       3.903   2.880  17.942  0.00  0.00    +0.000 C 
ATOM     13  C   UNL     1       2.466   2.437  17.640  0.00  0.00    +0.000 C 
ATOM     14  S   UNL     1       1.388   3.747  18.318  0.00  0.00    +0.000 S 
ENDBRANCH   1  12
BRANCH   3  15
ATOM     15  C   UNL     1       6.100   3.769  14.970  0.00  0.00    +0.000 A 
ATOM     16  C   UNL     1       5.900   3.237  13.683  0.00  0.00    +0.000 A 
ATOM     17  C   UNL     1       6.491   3.821  12.568  0.00  0.00    +0.000 A 
ATOM     18  C   UNL     1       7.249   4.969  12.726  0.00  0.00    +0.000 A 
ATOM     19  C   UNL     1       7.459   5.496  14.006  0.00  0.00    +0.000 A 
ATOM     20  C   UNL     1       6.936   4.893  15.170  0.00  0.00    +0.000 A 
BRANCH  20  21
ATOM     21  N   UNL     1       7.271   5.367  16.438  0.00  0.00    +0.000 N 
ATOM     22  C   UNL     1       7.921   4.461  17.393  0.00  0.00    +0.000 C 
ATOM     23  C   UNL     1       7.390   4.791  18.785  0.00  0.00    +0.000 C 
ATOM     24  C   UNL     1       7.594   6.267  19.127  0.00  0.00    +0.000 C 
ATOM     25  C   UNL     1       7.088   7.191  18.013  0.00  0.00    +0.000 C 
ATOM     26  C   UNL     1       7.639   6.774  16.644  0.00  0.00    +0.000 C 
ENDBRANCH  20  21
ENDBRANCH   3  15
TORSDOF 3
ENDMDL
MODEL 4
REMARK VINA RESULT:      -6.5      0.410      1.078
REMARK  Name = 
REMARK  4 active torsions:
REMARK  status: ('A' for Active; 'I' for Inactive)
REMARK    1  A    between atoms: C_1  and  C_2
REMARK    2  A    between atoms: C_8  and  C_9
REMARK    3  A    between atoms: N_11  and  C_12
REMARK    4  A    between atoms: C_17  and  N_18
REMARK                            x       y       z     vdW  Elec       q    Type
REMARK                         _______ _______ _______ _____ _____    ______ ____
ROOT
ATOM      1  C   UNL     1       3.913   3.565  16.683  0.00  0.00    +0.000 C 
ATOM      2  O   UNL     1       4.506   2.486  16.697  0.00  0.00    +0.000 OA
ATOM      3  N   UNL     1       4.205   4.591  15.791  0.00  0.00    +0.000 N 
ATOM      4  H   UNL     1       3.451   5.209  15.512  0.00  0.00    +0.000 HD
ENDROOT
BRANCH   1  12
ATOM      5  C   UNL     1       4.724   2.347  19.888  0.00  0.00    +0.000 C 
ATOM      6  C   UNL     1       3.448   3.193  19.901  0.00  0.00    +0.000 C 
ATOM      7  C   UNL     1       2.620   2.866  21.146  0.00  0.00    +0.000 C 
ATOM      8  C   UNL     1       1.183   3.036  20.704  0.00  0.00    +0.000 C 
ATOM      9  C   UNL     1       1.247   2.797  19.217  0.00  0.00    +0.000 C 
ATOM     10  O   UNL     1       0.270   2.679  18.492  0.00  0.00    +0.000 OA
ATOM     11  N   UNL     1       2.572   2.923  18.774  0.00  0.00    +0.000 N 
ATOM     12  C   UNL     1       2.738   3.850  17.635  0.00  0.00    +0.000 C 
ATOM     13  C   UNL     1       2.911   5.240  18.261  0.00  0.00    +0.000 C 
ATOM     14  S   UNL     1       3.836   4.978  19.813  0.00  0.00    +0.000 S 
ENDBRANCH   1  12
BRANCH   3  15
ATOM     15  C   UNL     1       5.254   4.440  14.847  0.00  0.00    +0.000 A 
ATOM     16  C   UNL     1       4.956   3.818  13.620  0.00  0.00    +0.000 A 
ATOM     17  C   UNL     1       5.946   3.608  12.666  0.00  0.00    +0.000 A 
ATOM     18  C   UNL     1       7.232   4.061  12.912  0.00  0.00    +0.000 A 
ATOM     19  C   UNL     1       7.534   4.671  14.135  0.00  0.00    +0.000 A 
ATOM     20  C   UNL     1       6.575   4.838  15.157  0.00  0.00    +0.000 A 
BRANCH  20  21
ATOM     21  N   UNL     1       6.940   5.331  16.411  0.00  0.00    +0.000 N 
ATOM     22  C   UNL     1       7.682   4.462  17.334  0.00  0.00    +0.000 C 
ATOM     23  C   UNL     1       7.196   4.762  18.749  0.00  0.00    +0.000 C 
ATOM     24  C   UNL     1       7.331   6.248  19.085  0.00  0.00    +0.000 C 
ATOM     25  C   UNL     1       6.725   7.141  17.997  0.00  0.00    +0.000 C 
ATOM     26  C   UNL     1       7.236   6.756  16.603  0.00  0.00    +0.000 C 
ENDBRANCH  20  21
ENDBRANCH   3  15
TORSDOF 3
ENDMDL
MODEL 5
REMARK VINA RESULT:      -6.4      1.628      2.126
REMARK  Name = 
REMARK  4 active torsions:
REMARK  status: ('A' for Active; 'I' for Inactive)
REMARK    1  A    between atoms: C_1  and  C_2
REMARK    2  A    between atoms: C_8  and  C_9
REMARK    3  A    between atoms: N_11  and  C_12
REMARK    4  A    between atoms: C_17  and  N_18
REMARK                            x       y       z     vdW  Elec       q    Type
REMARK                         _______ _______ _______ _____ _____    ______ ____
ROOT
ATOM      1  C   UNL     1       4.131   5.232  17.709  0.00  0.00    +0.000 C 
ATOM      2  O   UNL     1       3.973   6.312  17.139  0.00  0.00    +0.000 OA
ATOM      3  N   UNL     1       4.868   4.182  17.176  0.00  0.00    +0.000 N 
ATOM      4  H   UNL     1       5.340   3.555  17.819  0.00  0.00    +0.000 HD
ENDROOT
BRANCH   1  12
ATOM      5  C   UNL     1       2.196   2.289  17.628  0.00  0.00    +0.000 C 
ATOM      6  C   UNL     1       2.415   2.792  19.057  0.00  0.00    +0.000 C 
ATOM      7  C   UNL     1       1.349   2.205  19.984  0.00  0.00    +0.000 C 
ATOM      8  C   UNL     1       1.111   3.281  21.022  0.00  0.00    +0.000 C 
ATOM      9  C   UNL     1       1.500   4.548  20.303  0.00  0.00    +0.000 C 
ATOM     10  O   UNL     1       1.302   5.675  20.732  0.00  0.00    +0.000 OA
ATOM     11  N   UNL     1       2.281   4.234  19.182  0.00  0.00    +0.000 N 
ATOM     12  C   UNL     1       3.559   4.974  19.115  0.00  0.00    +0.000 C 
ATOM     13  C   UNL     1       4.557   4.142  19.930  0.00  0.00    +0.000 C 
ATOM     14  S   UNL     1       4.100   2.397  19.648  0.00  0.00    +0.000 S 
ENDBRANCH   1  12
BRANCH   3  15
ATOM     15  C   UNL     1       5.466   4.306  15.895  0.00  0.00    +0.000 A 
ATOM     16  C   UNL     1       4.923   3.555  14.836  0.00  0.00    +0.000 A 
ATOM     17  C   UNL     1       5.482   3.603  13.563  0.00  0.00    +0.000 A 
ATOM     18  C   UNL     1       6.561   4.440  13.330  0.00  0.00    +0.000 A 
ATOM     19  C   UNL     1       7.111   5.181  14.383  0.00  0.00    +0.000 A 
ATOM     20  C   UNL     1       6.617   5.105  15.702  0.00  0.00    +0.000 A 
BRANCH  20  21
ATOM     21  N   UNL     1       7.268   5.755  16.752  0.00  0.00    +0.000 N 
ATOM     22  C   UNL     1       7.949   4.953  17.777  0.00  0.00    +0.000 C 
ATOM     23  C   UNL     1       7.765   5.658  19.118  0.00  0.00    +0.000 C 
ATOM     24  C   UNL     1       8.256   7.105  19.064  0.00  0.00    +0.000 C 
ATOM     25  C   UNL     1       7.685   7.861  17.859  0.00  0.00    +0.000 C 
ATOM     26  C   UNL     1       7.880   7.074  16.557  0.00  0.00    +0.000 C 
ENDBRANCH  20  21
ENDBRANCH   3  15
TORSDOF 3
ENDMDL
MODEL 6
REMARK VINA RESULT:      -6.4      5.109      7.035
REMARK  Name = 
REMARK  4 active torsions:
REMARK  status: ('A' for Active; 'I' for Inactive)
REMARK    1  A    between atoms: C_1  and  C_2
REMARK    2  A    between atoms: C_8  and  C_9
REMARK    3  A    between atoms: N_11  and  C_12
REMARK    4  A    between atoms: C_17  and  N_18
REMARK                            x       y       z     vdW  Elec       q    Type
REMARK                         _______ _______ _______ _____ _____    ______ ____
ROOT
ATOM      1  C   UNL     1       1.615   8.720  18.584  0.00  0.00    +0.000 C 
ATOM      2  O   UNL     1       1.736   9.123  17.427  0.00  0.00    +0.000 OA
ATOM      3  N   UNL     1       2.308   7.628  19.095  0.00  0.00    +0.000 N 
ATOM      4  H   UNL     1       2.533   7.626  20.083  0.00  0.00    +0.000 HD
ENDROOT
BRANCH   1  12
ATOM      5  C   UNL     1       2.226  12.184  18.387  0.00  0.00    +0.000 C 
ATOM      6  C   UNL     1       1.006  11.865  19.255  0.00  0.00    +0.000 C 
ATOM      7  C   UNL     1       0.706  13.043  20.184  0.00  0.00    +0.000 C 
ATOM      8  C   UNL     1       0.148  12.408  21.439  0.00  0.00    +0.000 C 
ATOM      9  C   UNL     1       0.747  11.025  21.422  0.00  0.00    +0.000 C 
ATOM     10  O   UNL     1       0.682  10.232  22.349  0.00  0.00    +0.000 OA
ATOM     11  N   UNL     1       1.211  10.726  20.133  0.00  0.00    +0.000 N 
ATOM     12  C   UNL     1       0.710   9.443  19.597  0.00  0.00    +0.000 C 
ATOM     13  C   UNL     1      -0.636   9.773  18.938  0.00  0.00    +0.000 C 
ATOM     14  S   UNL     1      -0.446  11.444  18.226  0.00  0.00    +0.000 S 
ENDBRANCH   1  12
BRANCH   3  15
ATOM     15  C   UNL     1       3.192   6.891  18.264  0.00  0.00    +0.000 A 
ATOM     16  C   UNL     1       3.940   7.596  17.303  0.00  0.00    +0.000 A 
ATOM     17  C   UNL     1       4.797   6.930  16.434  0.00  0.00    +0.000 A 
ATOM     18  C   UNL     1       4.949   5.558  16.552  0.00  0.00    +0.000 A 
ATOM     19  C   UNL     1       4.200   4.852  17.500  0.00  0.00    +0.000 A 
ATOM     20  C   UNL     1       3.266   5.481  18.351  0.00  0.00    +0.000 A 
BRANCH  20  21
ATOM     21  N   UNL     1       2.443   4.733  19.193  0.00  0.00    +0.000 N 
ATOM     22  C   UNL     1       2.326   5.117  20.606  0.00  0.00    +0.000 C 
ATOM     23  C   UNL     1       2.211   3.837  21.429  0.00  0.00    +0.000 C 
ATOM     24  C   UNL     1       1.053   2.963  20.947  0.00  0.00    +0.000 C 
ATOM     25  C   UNL     1       1.086   2.748  19.430  0.00  0.00    +0.000 C 
ATOM     26  C   UNL     1       1.236   4.076  18.677  0.00  0.00    +0.000 C 
ENDBRANCH  20  21
ENDBRANCH   3  15
TORSDOF 3
ENDMDL
MODEL 7
REMARK VINA RESULT:      -6.2     11.838     13.969
REMARK  Name = 
REMARK  4 active torsions:
REMARK  status: ('A' for Active; 'I' for Inactive)
REMARK    1  A    between atoms: C_1  and  C_2
REMARK    2  A    between atoms: C_8  and  C_9
REMARK    3  A    between atoms: N_11  and  C_12
REMARK    4  A    between atoms: C_17  and  N_18
REMARK                            x       y       z     vdW  Elec       q    Type
REMARK                         _______ _______ _______ _____ _____    ______ ____
ROOT
ATOM      1  C   UNL     1      -3.919  13.305  21.333  0.00  0.00    +0.000 C 
ATOM      2  O   UNL     1      -4.091  12.229  21.907  0.00  0.00    +0.000 OA
ATOM      3  N   UNL     1      -3.464  13.414  20.024  0.00  0.00    +0.000 N 
ATOM      4  H   UNL     1      -3.772  14.209  19.476  0.00  0.00    +0.000 HD
ENDROOT
BRANCH   1  12
ATOM      5  C   UNL     1      -1.503  13.961  23.811  0.00  0.00    +0.000 C 
ATOM      6  C   UNL     1      -2.416  15.165  23.567  0.00  0.00    +0.000 C 
ATOM      7  C   UNL     1      -2.372  16.105  24.774  0.00  0.00    +0.000 C 
ATOM      8  C   UNL     1      -3.759  16.703  24.844  0.00  0.00    +0.000 C 
ATOM      9  C   UNL     1      -4.620  15.663  24.173  0.00  0.00    +0.000 C 
ATOM     10  O   UNL     1      -5.842  15.677  24.162  0.00  0.00    +0.000 OA
ATOM     11  N   UNL     1      -3.815  14.800  23.416  0.00  0.00    +0.000 N 
ATOM     12  C   UNL     1      -4.257  14.643  22.014  0.00  0.00    +0.000 C 
ATOM     13  C   UNL     1      -3.592  15.792  21.245  0.00  0.00    +0.000 C 
ATOM     14  S   UNL     1      -1.961  16.040  22.028  0.00  0.00    +0.000 S 
ENDBRANCH   1  12
BRANCH   3  15
ATOM     15  C   UNL     1      -3.140  12.249  19.281  0.00  0.00    +0.000 A 
ATOM     16  C   UNL     1      -1.807  11.798  19.305  0.00  0.00    +0.000 A 
ATOM     17  C   UNL     1      -1.415  10.684  18.571  0.00  0.00    +0.000 A 
ATOM     18  C   UNL     1      -2.364   9.983  17.844  0.00  0.00    +0.000 A 
ATOM     19  C   UNL     1      -3.689  10.435  17.810  0.00  0.00    +0.000 A 
ATOM     20  C   UNL     1      -4.111  11.601  18.482  0.00  0.00    +0.000 A 
BRANCH  20  21
ATOM     21  N   UNL     1      -5.407  12.094  18.322  0.00  0.00    +0.000 N 
ATOM     22  C   UNL     1      -5.846  12.531  16.990  0.00  0.00    +0.000 C 
ATOM     23  C   UNL     1      -6.754  13.744  17.174  0.00  0.00    +0.000 C 
ATOM     24  C   UNL     1      -7.917  13.436  18.118  0.00  0.00    +0.000 C 
ATOM     25  C   UNL     1      -7.442  12.789  19.424  0.00  0.00    +0.000 C 
ATOM     26  C   UNL     1      -6.510  11.601  19.156  0.00  0.00    +0.000 C 
ENDBRANCH  20  21
ENDBRANCH   3  15
TORSDOF 3
ENDMDL
MODEL 8
REMARK VINA RESULT:      -6.2      4.978      6.830
REMARK  Name = 
REMARK  4 active torsions:
REMARK  status: ('A' for Active; 'I' for Inactive)
REMARK    1  A    between atoms: C_1  and  C_2
REMARK    2  A    between atoms: C_8  and  C_9
REMARK    3  A    between atoms: N_11  and  C_12
REMARK    4  A    between atoms: C_17  and  N_18
REMARK                            x       y       z     vdW  Elec       q    Type
REMARK                         _______ _______ _______ _____ _____    ______ ____
ROOT
ATOM      1  C   UNL     1       1.788   8.626  18.521  0.00  0.00    +0.000 C 
ATOM      2  O   UNL     1       1.938   9.137  17.411  0.00  0.00    +0.000 OA
ATOM      3  N   UNL     1       2.455   7.479  18.936  0.00  0.00    +0.000 N 
ATOM      4  H   UNL     1       2.660   7.378  19.924  0.00  0.00    +0.000 HD
ENDROOT
BRANCH   1  12
ATOM      5  C   UNL     1       2.157  12.127  18.393  0.00  0.00    +0.000 C 
ATOM      6  C   UNL     1       0.992  11.706  19.292  0.00  0.00    +0.000 C 
ATOM      7  C   UNL     1       0.646  12.839  20.260  0.00  0.00    +0.000 C 
ATOM      8  C   UNL     1       0.176  12.138  21.516  0.00  0.00    +0.000 C 
ATOM      9  C   UNL     1       0.865  10.799  21.444  0.00  0.00    +0.000 C 
ATOM     10  O   UNL     1       0.887   9.982  22.353  0.00  0.00    +0.000 OA
ATOM     11  N   UNL     1       1.304  10.563  20.134  0.00  0.00    +0.000 N 
ATOM     12  C   UNL     1       0.871   9.262  19.582  0.00  0.00    +0.000 C 
ATOM     13  C   UNL     1      -0.515   9.515  18.976  0.00  0.00    +0.000 C 
ATOM     14  S   UNL     1      -0.464  11.211  18.301  0.00  0.00    +0.000 S 
ENDBRANCH   1  12
BRANCH   3  15
ATOM     15  C   UNL     1       3.346   6.812  18.056  0.00  0.00    +0.000 A 
ATOM     16  C   UNL     1       4.002   7.577  17.073  0.00  0.00    +0.000 A 
ATOM     17  C   UNL     1       4.860   6.980  16.156  0.00  0.00    +0.000 A 
ATOM     18  C   UNL     1       5.106   5.619  16.245  0.00  0.00    +0.000 A 
ATOM     19  C   UNL     1       4.447   4.854  17.215  0.00  0.00    +0.000 A 
ATOM     20  C   UNL     1       3.515   5.409  18.117  0.00  0.00    +0.000 A 
BRANCH  20  21
ATOM     21  N   UNL     1       2.781   4.598  18.983  0.00  0.00    +0.000 N 
ATOM     22  C   UNL     1       1.933   3.538  18.424  0.00  0.00    +0.000 C 
ATOM     23  C   UNL     1       0.676   3.443  19.285  0.00  0.00    +0.000 C 
ATOM     24  C   UNL     1       1.022   3.220  20.758  0.00  0.00    +0.000 C 
ATOM     25  C   UNL     1       2.069   4.220  21.261  0.00  0.00    +0.000 C 
ATOM     26  C   UNL     1       3.283   4.281  20.325  0.00  0.00    +0.000 C 
ENDBRANCH  20  21
ENDBRANCH   3  15
TORSDOF 3
ENDMDL
MODEL 9
REMARK VINA RESULT:      -6.1      1.672      1.960
REMARK  Name = 
REMARK  4 active torsions:
REMARK  status: ('A' for Active; 'I' for Inactive)
REMARK    1  A    between atoms: C_1  and  C_2
REMARK    2  A    between atoms: C_8  and  C_9
REMARK    3  A    between atoms: N_11  and  C_12
REMARK    4  A    between atoms: C_17  and  N_18
REMARK                            x       y       z     vdW  Elec       q    Type
REMARK                         _______ _______ _______ _____ _____    ______ ____
ROOT
ATOM      1  C   UNL     1       4.100   5.174  17.820  0.00  0.00    +0.000 C 
ATOM      2  O   UNL     1       3.716   6.123  17.136  0.00  0.00    +0.000 OA
ATOM      3  N   UNL     1       5.128   4.319  17.441  0.00  0.00    +0.000 N 
ATOM      4  H   UNL     1       5.691   3.896  18.171  0.00  0.00    +0.000 HD
ENDROOT
BRANCH   1  12
ATOM      5  C   UNL     1       2.241   2.187  17.657  0.00  0.00    +0.000 C 
ATOM      6  C   UNL     1       2.409   2.679  19.097  0.00  0.00    +0.000 C 
ATOM      7  C   UNL     1       1.334   2.057  19.989  0.00  0.00    +0.000 C 
ATOM      8  C   UNL     1       1.042   3.115  21.031  0.00  0.00    +0.000 C 
ATOM      9  C   UNL     1       1.419   4.398  20.336  0.00  0.00    +0.000 C 
ATOM     10  O   UNL     1       1.183   5.515  20.771  0.00  0.00    +0.000 OA
ATOM     11  N   UNL     1       2.237   4.116  19.233  0.00  0.00    +0.000 N 
ATOM     12  C   UNL     1       3.498   4.887  19.207  0.00  0.00    +0.000 C 
ATOM     13  C   UNL     1       4.494   4.070  20.040  0.00  0.00    +0.000 C 
ATOM     14  S   UNL     1       4.087   2.317  19.728  0.00  0.00    +0.000 S 
ENDBRANCH   1  12
BRANCH   3  15
ATOM     15  C   UNL     1       5.780   4.495  16.193  0.00  0.00    +0.000 A 
ATOM     16  C   UNL     1       5.466   3.601  15.151  0.00  0.00    +0.000 A 
ATOM     17  C   UNL     1       6.094   3.696  13.914  0.00  0.00    +0.000 A 
ATOM     18  C   UNL     1       7.007   4.714  13.694  0.00  0.00    +0.000 A 
ATOM     19  C   UNL     1       7.330   5.598  14.730  0.00  0.00    +0.000 A 
ATOM     20  C   UNL     1       6.768   5.491  16.021  0.00  0.00    +0.000 A 
BRANCH  20  21
ATOM     21  N   UNL     1       7.208   6.306  17.065  0.00  0.00    +0.000 N 
ATOM     22  C   UNL     1       6.871   7.735  17.049  0.00  0.00    +0.000 C 
ATOM     23  C   UNL     1       8.060   8.501  17.622  0.00  0.00    +0.000 C 
ATOM     24  C   UNL     1       8.437   7.990  19.013  0.00  0.00    +0.000 C 
ATOM     25  C   UNL     1       8.582   6.464  19.046  0.00  0.00    +0.000 C 
ATOM     26  C   UNL     1       7.364   5.770  18.423  0.00  0.00    +0.000 C 
ENDBRANCH  20  21
ENDBRANCH   3  15
TORSDOF 3
ENDMDL
