MODEL 1
REMARK VINA RESULT:      -8.1      0.000      0.000
REMARK  Name = 
REMARK  8 active torsions:
REMARK  status: ('A' for Active; 'I' for Inactive)
REMARK    1  A    between atoms: C_2  and  C_3
REMARK    2  A    between atoms: C_6  and  C_7
REMARK    3  A    between atoms: C_11  and  O_12
REMARK    4  A    between atoms: O_12  and  C_13
REMARK    5  A    between atoms: C_13  and  C_14
REMARK    6  A    between atoms: C_14  and  O_15
REMARK    7  A    between atoms: C_14  and  C_16
REMARK    8  A    between atoms: C_16  and  N_17
REMARK                            x       y       z     vdW  Elec       q    Type
REMARK                         _______ _______ _______ _____ _____    ______ ____
ROOT
ATOM      1  O   UNL     1       2.726   6.359  19.895  0.00  0.00    +0.000 OA
ENDROOT
BRANCH   1   6
ATOM      2  C   UNL     1       0.753   9.558  20.004  0.00  0.00    +0.000 A 
ATOM      3  C   UNL     1       1.013   9.957  18.682  0.00  0.00    +0.000 A 
ATOM      4  C   UNL     1       1.783   9.178  17.817  0.00  0.00    +0.000 A 
ATOM      5  C   UNL     1       2.326   7.972  18.261  0.00  0.00    +0.000 A 
ATOM      6  C   UNL     1       2.121   7.549  19.575  0.00  0.00    +0.000 A 
ATOM      7  C   UNL     1       1.328   8.337  20.426  0.00  0.00    +0.000 A 
BRANCH   2  11
ATOM      8  C   UNL     1      -1.881  11.766  22.589  0.00  0.00    +0.000 A 
ATOM      9  C   UNL     1      -1.791  12.115  21.243  0.00  0.00    +0.000 A 
ATOM     10  C   UNL     1      -0.948  11.398  20.398  0.00  0.00    +0.000 A 
ATOM     11  C   UNL     1      -0.128  10.363  20.907  0.00  0.00    +0.000 A 
ATOM     12  C   UNL     1      -0.200  10.076  22.276  0.00  0.00    +0.000 A 
ATOM     13  C   UNL     1      -1.074  10.759  23.123  0.00  0.00    +0.000 A 
BRANCH   8  15
ATOM     14  N   UNL     1      -3.574  13.019  24.105  0.00  0.00    +0.000 NA
ATOM     15  C   UNL     1      -2.817  12.450  23.442  0.00  0.00    +0.000 C 
ENDBRANCH   8  15
ENDBRANCH   2  11
ENDBRANCH   1   6
BRANCH   1  16
ATOM     16  C   UNL     1       2.008   5.132  19.654  0.00  0.00    +0.000 C 
BRANCH  16  17
ATOM     17  C   UNL     1       2.493   4.025  20.642  0.00  0.00    +0.000 C 
BRANCH  17  18
ATOM     18  O   UNL     1       1.355   3.598  21.407  0.00  0.00    +0.000 OA
ATOM     19  H   UNL     1       0.713   3.232  20.773  0.00  0.00    +0.000 HD
ENDBRANCH  17  18
BRANCH  17  20
ATOM     20  C   UNL     1       3.215   2.826  19.924  0.00  0.00    +0.000 C 
BRANCH  20  21
ATOM     21  N   UNL     1       4.399   3.151  19.104  0.00  0.00    +0.000 NA
ATOM     22  C   UNL     1       5.204   4.365  19.341  0.00  0.00    +0.000 C 
ATOM     23  C   UNL     1       6.474   4.367  18.294  0.00  0.00    +0.000 C 
ATOM     24  C   UNL     1       6.026   4.074  16.806  0.00  0.00    +0.000 A 
ATOM     25  C   UNL     1       6.600   4.518  15.622  0.00  0.00    +0.000 A 
ATOM     26  C   UNL     1       6.143   5.720  15.089  0.00  0.00    +0.000 A 
ATOM     27  C   UNL     1       5.147   6.369  15.796  0.00  0.00    +0.000 A 
ATOM     28  C   UNL     1       4.355   5.583  16.662  0.00  0.00    +0.000 A 
ATOM     29  C   UNL     1       4.672   4.227  16.839  0.00  0.00    +0.000 A 
ATOM     30  C   UNL     1       4.107   3.079  17.661  0.00  0.00    +0.000 C 
ENDBRANCH  20  21
ENDBRANCH  17  20
ENDBRANCH  16  17
ENDBRANCH   1  16
TORSDOF 8
ENDMDL
MODEL 2
REMARK VINA RESULT:      -7.9      2.902      9.240
REMARK  Name = 
REMARK  8 active torsions:
REMARK  status: ('A' for Active; 'I' for Inactive)
REMARK    1  A    between atoms: C_2  and  C_3
REMARK    2  A    between atoms: C_6  and  C_7
REMARK    3  A    between atoms: C_11  and  O_12
REMARK    4  A    between atoms: O_12  and  C_13
REMARK    5  A    between atoms: C_13  and  C_14
REMARK    6  A    between atoms: C_14  and  O_15
REMARK    7  A    between atoms: C_14  and  C_16
REMARK    8  A    between atoms: C_16  and  N_17
REMARK                            x       y       z     vdW  Elec       q    Type
REMARK                         _______ _______ _______ _____ _____    ______ ____
ROOT
ATOM      1  O   UNL     1       1.182   6.664  21.223  0.00  0.00    +0.000 OA
ENDROOT
BRANCH   1   6
ATOM      2  C   UNL     1       2.980   4.703  18.566  0.00  0.00    +0.000 A 
ATOM      3  C   UNL     1       2.360   3.469  18.824  0.00  0.00    +0.000 A 
ATOM      4  C   UNL     1       1.386   3.329  19.814  0.00  0.00    +0.000 A 
ATOM      5  C   UNL     1       1.011   4.430  20.586  0.00  0.00    +0.000 A 
ATOM      6  C   UNL     1       1.621   5.669  20.387  0.00  0.00    +0.000 A 
ATOM      7  C   UNL     1       2.586   5.795  19.374  0.00  0.00    +0.000 A 
BRANCH   2  11
ATOM      8  C   UNL     1       5.944   5.144  15.482  0.00  0.00    +0.000 A 
ATOM      9  C   UNL     1       5.391   6.280  16.068  0.00  0.00    +0.000 A 
ATOM     10  C   UNL     1       4.439   6.146  17.074  0.00  0.00    +0.000 A 
ATOM     11  C   UNL     1       3.974   4.865  17.460  0.00  0.00    +0.000 A 
ATOM     12  C   UNL     1       4.509   3.746  16.811  0.00  0.00    +0.000 A 
ATOM     13  C   UNL     1       5.496   3.868  15.832  0.00  0.00    +0.000 A 
BRANCH   8  15
ATOM     14  N   UNL     1       7.854   5.384  13.742  0.00  0.00    +0.000 NA
ATOM     15  C   UNL     1       6.993   5.283  14.506  0.00  0.00    +0.000 C 
ENDBRANCH   8  15
ENDBRANCH   2  11
ENDBRANCH   1   6
BRANCH   1  16
ATOM     16  C   UNL     1       1.494   8.033  20.893  0.00  0.00    +0.000 C 
BRANCH  16  17
ATOM     17  C   UNL     1       0.201   8.906  20.950  0.00  0.00    +0.000 C 
BRANCH  17  18
ATOM     18  O   UNL     1      -0.390   8.721  22.246  0.00  0.00    +0.000 OA
ATOM     19  H   UNL     1       0.052   7.951  22.648  0.00  0.00    +0.000 HD
ENDBRANCH  17  18
BRANCH  17  20
ATOM     20  C   UNL     1       0.462  10.423  20.623  0.00  0.00    +0.000 C 
BRANCH  20  21
ATOM     21  N   UNL     1      -0.091  10.940  19.356  0.00  0.00    +0.000 NA
ATOM     22  C   UNL     1      -0.958  12.134  19.312  0.00  0.00    +0.000 C 
ATOM     23  C   UNL     1      -1.329  12.456  17.741  0.00  0.00    +0.000 C 
ATOM     24  C   UNL     1      -1.826  11.172  16.964  0.00  0.00    +0.000 A 
ATOM     25  C   UNL     1      -2.718  11.087  15.905  0.00  0.00    +0.000 A 
ATOM     26  C   UNL     1      -4.069  10.927  16.203  0.00  0.00    +0.000 A 
ATOM     27  C   UNL     1      -4.401  10.864  17.544  0.00  0.00    +0.000 A 
ATOM     28  C   UNL     1      -3.382  10.475  18.442  0.00  0.00    +0.000 A 
ATOM     29  C   UNL     1      -2.081  10.272  17.956  0.00  0.00    +0.000 A 
ATOM     30  C   UNL     1      -0.744   9.880  18.566  0.00  0.00    +0.000 C 
ENDBRANCH  20  21
ENDBRANCH  17  20
ENDBRANCH  16  17
ENDBRANCH   1  16
TORSDOF 8
ENDMDL
MODEL 3
REMARK VINA RESULT:      -7.8      2.541      4.493
REMARK  Name = 
REMARK  8 active torsions:
REMARK  status: ('A' for Active; 'I' for Inactive)
REMARK    1  A    between atoms: C_2  and  C_3
REMARK    2  A    between atoms: C_6  and  C_7
REMARK    3  A    between atoms: C_11  and  O_12
REMARK    4  A    between atoms: O_12  and  C_13
REMARK    5  A    between atoms: C_13  and  C_14
REMARK    6  A    between atoms: C_14  and  O_15
REMARK    7  A    between atoms: C_14  and  C_16
REMARK    8  A    between atoms: C_16  and  N_17
REMARK                            x       y       z     vdW  Elec       q    Type
REMARK                         _______ _______ _______ _____ _____    ______ ____
ROOT
ATOM      1  O   UNL     1       3.220   7.852  17.086  0.00  0.00    +0.000 OA
ENDROOT
BRANCH   1   6
ATOM      2  C   UNL     1       1.211  10.400  18.985  0.00  0.00    +0.000 A 
ATOM      3  C   UNL     1       0.920   9.588  20.094  0.00  0.00    +0.000 A 
ATOM      4  C   UNL     1       1.396   8.279  20.192  0.00  0.00    +0.000 A 
ATOM      5  C   UNL     1       2.176   7.742  19.166  0.00  0.00    +0.000 A 
ATOM      6  C   UNL     1       2.466   8.500  18.031  0.00  0.00    +0.000 A 
ATOM      7  C   UNL     1       1.993   9.821  17.959  0.00  0.00    +0.000 A 
BRANCH   2  11
ATOM      8  C   UNL     1      -0.057  14.509  18.922  0.00  0.00    +0.000 A 
ATOM      9  C   UNL     1      -1.003  13.503  19.104  0.00  0.00    +0.000 A 
ATOM     10  C   UNL     1      -0.599  12.171  19.136  0.00  0.00    +0.000 A 
ATOM     11  C   UNL     1       0.756  11.823  18.915  0.00  0.00    +0.000 A 
ATOM     12  C   UNL     1       1.672  12.856  18.677  0.00  0.00    +0.000 A 
ATOM     13  C   UNL     1       1.284  14.196  18.687  0.00  0.00    +0.000 A 
BRANCH   8  15
ATOM     14  N   UNL     1      -0.762  17.004  19.036  0.00  0.00    +0.000 NA
ATOM     15  C   UNL     1      -0.463  15.888  18.978  0.00  0.00    +0.000 C 
ENDBRANCH   8  15
ENDBRANCH   2  11
ENDBRANCH   1   6
BRANCH   1  16
ATOM     16  C   UNL     1       4.391   7.127  17.515  0.00  0.00    +0.000 C 
BRANCH  16  17
ATOM     17  C   UNL     1       4.696   5.964  16.519  0.00  0.00    +0.000 C 
BRANCH  17  18
ATOM     18  O   UNL     1       5.249   6.547  15.329  0.00  0.00    +0.000 OA
ATOM     19  H   UNL     1       4.515   6.994  14.869  0.00  0.00    +0.000 HD
ENDBRANCH  17  18
BRANCH  17  20
ATOM     20  C   UNL     1       5.628   4.853  17.130  0.00  0.00    +0.000 C 
BRANCH  20  21
ATOM     21  N   UNL     1       4.992   3.856  18.013  0.00  0.00    +0.000 NA
ATOM     22  C   UNL     1       3.823   3.064  17.584  0.00  0.00    +0.000 C 
ATOM     23  C   UNL     1       3.427   2.015  18.788  0.00  0.00    +0.000 C 
ATOM     24  C   UNL     1       3.343   2.723  20.200  0.00  0.00    +0.000 A 
ATOM     25  C   UNL     1       2.548   2.398  21.289  0.00  0.00    +0.000 A 
ATOM     26  C   UNL     1       1.290   2.989  21.375  0.00  0.00    +0.000 A 
ATOM     27  C   UNL     1       0.946   3.857  20.355  0.00  0.00    +0.000 A 
ATOM     28  C   UNL     1       2.002   4.444  19.625  0.00  0.00    +0.000 A 
ATOM     29  C   UNL     1       3.323   4.051  19.895  0.00  0.00    +0.000 A 
ATOM     30  C   UNL     1       4.696   4.410  19.346  0.00  0.00    +0.000 C 
ENDBRANCH  20  21
ENDBRANCH  17  20
ENDBRANCH  16  17
ENDBRANCH   1  16
TORSDOF 8
ENDMDL
MODEL 4
REMARK VINA RESULT:      -7.7      5.387      8.085
REMARK  Name = 
REMARK  8 active torsions:
REMARK  status: ('A' for Active; 'I' for Inactive)
REMARK    1  A    between atoms: C_2  and  C_3
REMARK    2  A    between atoms: C_6  and  C_7
REMARK    3  A    between atoms: C_11  and  O_12
REMARK    4  A    between atoms: O_12  and  C_13
REMARK    5  A    between atoms: C_13  and  C_14
REMARK    6  A    between atoms: C_14  and  O_15
REMARK    7  A    between atoms: C_14  and  C_16
REMARK    8  A    between atoms: C_16  and  N_17
REMARK                            x       y       z     vdW  Elec       q    Type
REMARK                         _______ _______ _______ _____ _____    ______ ____
ROOT
ATOM      1  O   UNL     1       6.080   7.272  16.252  0.00  0.00    +0.000 OA
ENDROOT
BRANCH   1   6
ATOM      2  C   UNL     1       8.492   9.230  18.370  0.00  0.00    +0.000 A 
ATOM      3  C   UNL     1       8.848   8.178  19.230  0.00  0.00    +0.000 A 
ATOM      4  C   UNL     1       8.321   6.894  19.078  0.00  0.00    +0.000 A 
ATOM      5  C   UNL     1       7.407   6.631  18.058  0.00  0.00    +0.000 A 
ATOM      6  C   UNL     1       6.999   7.652  17.198  0.00  0.00    +0.000 A 
ATOM      7  C   UNL     1       7.554   8.933  17.355  0.00  0.00    +0.000 A 
BRANCH   2  11
ATOM      8  C   UNL     1      10.182  13.157  18.840  0.00  0.00    +0.000 A 
ATOM      9  C   UNL     1       9.207  12.942  17.868  0.00  0.00    +0.000 A 
ATOM     10  C   UNL     1       8.648  11.676  17.717  0.00  0.00    +0.000 A 
ATOM     11  C   UNL     1       9.110  10.587  18.494  0.00  0.00    +0.000 A 
ATOM     12  C   UNL     1      10.132  10.824  19.422  0.00  0.00    +0.000 A 
ATOM     13  C   UNL     1      10.668  12.099  19.611  0.00  0.00    +0.000 A 
BRANCH   8  15
ATOM     14  N   UNL     1      11.078  15.560  19.234  0.00  0.00    +0.000 NA
ATOM     15  C   UNL     1      10.694  14.484  19.055  0.00  0.00    +0.000 C 
ENDBRANCH   8  15
ENDBRANCH   2  11
ENDBRANCH   1   6
BRANCH   1  16
ATOM     16  C   UNL     1       5.000   6.403  16.648  0.00  0.00    +0.000 C 
BRANCH  16  17
ATOM     17  C   UNL     1       4.981   5.127  15.749  0.00  0.00    +0.000 C 
BRANCH  17  18
ATOM     18  O   UNL     1       5.826   5.382  14.617  0.00  0.00    +0.000 OA
ATOM     19  H   UNL     1       5.305   5.919  13.993  0.00  0.00    +0.000 HD
ENDBRANCH  17  18
BRANCH  17  20
ATOM     20  C   UNL     1       5.392   3.819  16.520  0.00  0.00    +0.000 C 
BRANCH  20  21
ATOM     21  N   UNL     1       4.340   3.148  17.310  0.00  0.00    +0.000 NA
ATOM     22  C   UNL     1       2.905   3.389  17.065  0.00  0.00    +0.000 C 
ATOM     23  C   UNL     1       2.030   2.430  18.076  0.00  0.00    +0.000 C 
ATOM     24  C   UNL     1       2.533   2.517  19.573  0.00  0.00    +0.000 A 
ATOM     25  C   UNL     1       1.806   2.364  20.745  0.00  0.00    +0.000 A 
ATOM     26  C   UNL     1       1.228   3.501  21.305  0.00  0.00    +0.000 A 
ATOM     27  C   UNL     1       1.437   4.692  20.634  0.00  0.00    +0.000 A 
ATOM     28  C   UNL     1       2.560   4.763  19.781  0.00  0.00    +0.000 A 
ATOM     29  C   UNL     1       3.341   3.614  19.580  0.00  0.00    +0.000 A 
ATOM     30  C   UNL     1       4.576   3.272  18.760  0.00  0.00    +0.000 C 
ENDBRANCH  20  21
ENDBRANCH  17  20
ENDBRANCH  16  17
ENDBRANCH   1  16
TORSDOF 8
ENDMDL
MODEL 5
REMARK VINA RESULT:      -7.7      1.411      1.897
REMARK  Name = 
REMARK  8 active torsions:
REMARK  status: ('A' for Active; 'I' for Inactive)
REMARK    1  A    between atoms: C_2  and  C_3
REMARK    2  A    between atoms: C_6  and  C_7
REMARK    3  A    between atoms: C_11  and  O_12
REMARK    4  A    between atoms: O_12  and  C_13
REMARK    5  A    between atoms: C_13  and  C_14
REMARK    6  A    between atoms: C_14  and  O_15
REMARK    7  A    between atoms: C_14  and  C_16
REMARK    8  A    between atoms: C_16  and  N_17
REMARK                            x       y       z     vdW  Elec       q    Type
REMARK                         _______ _______ _______ _____ _____    ______ ____
ROOT
ATOM      1  O   UNL     1       1.940   6.477  20.913  0.00  0.00    +0.000 OA
ENDROOT
BRANCH   1   6
ATOM      2  C   UNL     1       1.150   9.764  19.267  0.00  0.00    +0.000 A 
ATOM      3  C   UNL     1       1.788   9.494  18.045  0.00  0.00    +0.000 A 
ATOM      4  C   UNL     1       2.417   8.272  17.798  0.00  0.00    +0.000 A 
ATOM      5  C   UNL     1       2.432   7.284  18.783  0.00  0.00    +0.000 A 
ATOM      6  C   UNL     1       1.838   7.518  20.024  0.00  0.00    +0.000 A 
ATOM      7  C   UNL     1       1.194   8.746  20.248  0.00  0.00    +0.000 A 
BRANCH   2  11
ATOM      8  C   UNL     1      -0.849  13.492  20.041  0.00  0.00    +0.000 A 
ATOM      9  C   UNL     1      -1.304  12.330  20.659  0.00  0.00    +0.000 A 
ATOM     10  C   UNL     1      -0.657  11.121  20.421  0.00  0.00    +0.000 A 
ATOM     11  C   UNL     1       0.419  11.048  19.503  0.00  0.00    +0.000 A 
ATOM     12  C   UNL     1       0.815  12.225  18.856  0.00  0.00    +0.000 A 
ATOM     13  C   UNL     1       0.201  13.449  19.121  0.00  0.00    +0.000 A 
BRANCH   8  15
ATOM     14  N   UNL     1      -1.964  15.773  20.581  0.00  0.00    +0.000 NA
ATOM     15  C   UNL     1      -1.463  14.755  20.357  0.00  0.00    +0.000 C 
ENDBRANCH   8  15
ENDBRANCH   2  11
ENDBRANCH   1   6
BRANCH   1  16
ATOM     16  C   UNL     1       1.581   5.153  20.471  0.00  0.00    +0.000 C 
BRANCH  16  17
ATOM     17  C   UNL     1       2.644   4.118  20.957  0.00  0.00    +0.000 C 
BRANCH  17  18
ATOM     18  O   UNL     1       2.122   3.480  22.132  0.00  0.00    +0.000 OA
ATOM     19  H   UNL     1       2.367   2.539  22.072  0.00  0.00    +0.000 HD
ENDBRANCH  17  18
BRANCH  17  20
ATOM     20  C   UNL     1       3.055   3.083  19.846  0.00  0.00    +0.000 C 
BRANCH  20  21
ATOM     21  N   UNL     1       4.302   3.356  19.104  0.00  0.00    +0.000 NA
ATOM     22  C   UNL     1       5.058   4.611  19.281  0.00  0.00    +0.000 C 
ATOM     23  C   UNL     1       6.417   4.542  18.355  0.00  0.00    +0.000 C 
ATOM     24  C   UNL     1       6.111   4.084  16.872  0.00  0.00    +0.000 A 
ATOM     25  C   UNL     1       6.780   4.419  15.704  0.00  0.00    +0.000 A 
ATOM     26  C   UNL     1       6.349   5.547  15.009  0.00  0.00    +0.000 A 
ATOM     27  C   UNL     1       5.281   6.235  15.553  0.00  0.00    +0.000 A 
ATOM     28  C   UNL     1       4.430   5.521  16.424  0.00  0.00    +0.000 A 
ATOM     29  C   UNL     1       4.757   4.200  16.770  0.00  0.00    +0.000 A 
ATOM     30  C   UNL     1       4.143   3.127  17.657  0.00  0.00    +0.000 C 
ENDBRANCH  20  21
ENDBRANCH  17  20
ENDBRANCH  16  17
ENDBRANCH   1  16
TORSDOF 8
ENDMDL
MODEL 6
REMARK VINA RESULT:      -7.7      3.530      5.087
REMARK  Name = 
REMARK  8 active torsions:
REMARK  status: ('A' for Active; 'I' for Inactive)
REMARK    1  A    between atoms: C_2  and  C_3
REMARK    2  A    between atoms: C_6  and  C_7
REMARK    3  A    between atoms: C_11  and  O_12
REMARK    4  A    between atoms: O_12  and  C_13
REMARK    5  A    between atoms: C_13  and  C_14
REMARK    6  A    between atoms: C_14  and  O_15
REMARK    7  A    between atoms: C_14  and  C_16
REMARK    8  A    between atoms: C_16  and  N_17
REMARK                            x       y       z     vdW  Elec       q    Type
REMARK                         _______ _______ _______ _____ _____    ______ ____
ROOT
ATOM      1  O   UNL     1      -1.014   9.653  17.068  0.00  0.00    +0.000 OA
ENDROOT
BRANCH   1   6
ATOM      2  C   UNL     1      -4.260  11.291  18.028  0.00  0.00    +0.000 A 
ATOM      3  C   UNL     1      -4.725  11.513  16.721  0.00  0.00    +0.000 A 
ATOM      4  C   UNL     1      -3.993  11.110  15.602  0.00  0.00    +0.000 A 
ATOM      5  C   UNL     1      -2.760  10.477  15.765  0.00  0.00    +0.000 A 
ATOM      6  C   UNL     1      -2.243  10.263  17.043  0.00  0.00    +0.000 A 
ATOM      7  C   UNL     1      -3.001  10.658  18.157  0.00  0.00    +0.000 A 
BRANCH   2  11
ATOM      8  C   UNL     1      -6.555  12.245  21.537  0.00  0.00    +0.000 A 
ATOM      9  C   UNL     1      -7.171  11.593  20.471  0.00  0.00    +0.000 A 
ATOM     10  C   UNL     1      -6.433  11.272  19.336  0.00  0.00    +0.000 A 
ATOM     11  C   UNL     1      -5.077  11.663  19.224  0.00  0.00    +0.000 A 
ATOM     12  C   UNL     1      -4.503  12.368  20.289  0.00  0.00    +0.000 A 
ATOM     13  C   UNL     1      -5.223  12.656  21.450  0.00  0.00    +0.000 A 
BRANCH   8  15
ATOM     14  N   UNL     1      -7.917  12.705  23.698  0.00  0.00    +0.000 NA
ATOM     15  C   UNL     1      -7.296  12.497  22.744  0.00  0.00    +0.000 C 
ENDBRANCH   8  15
ENDBRANCH   2  11
ENDBRANCH   1   6
BRANCH   1  16
ATOM     16  C   UNL     1      -0.267   9.655  18.301  0.00  0.00    +0.000 C 
BRANCH  16  17
ATOM     17  C   UNL     1       1.145   9.027  18.073  0.00  0.00    +0.000 C 
BRANCH  17  18
ATOM     18  O   UNL     1       1.981  10.040  17.493  0.00  0.00    +0.000 OA
ATOM     19  H   UNL     1       1.492  10.407  16.735  0.00  0.00    +0.000 HD
ENDBRANCH  17  18
BRANCH  17  20
ATOM     20  C   UNL     1       1.768   8.413  19.381  0.00  0.00    +0.000 C 
BRANCH  20  21
ATOM     21  N   UNL     1       2.758   7.332  19.207  0.00  0.00    +0.000 NA
ATOM     22  C   UNL     1       3.341   7.010  17.890  0.00  0.00    +0.000 C 
ATOM     23  C   UNL     1       4.448   5.807  18.084  0.00  0.00    +0.000 C 
ATOM     24  C   UNL     1       3.883   4.603  18.940  0.00  0.00    +0.000 A 
ATOM     25  C   UNL     1       4.211   3.256  18.867  0.00  0.00    +0.000 A 
ATOM     26  C   UNL     1       3.472   2.453  18.003  0.00  0.00    +0.000 A 
ATOM     27  C   UNL     1       2.466   3.078  17.289  0.00  0.00    +0.000 A 
ATOM     28  C   UNL     1       1.951   4.281  17.820  0.00  0.00    +0.000 A 
ATOM     29  C   UNL     1       2.540   4.829  18.970  0.00  0.00    +0.000 A 
ATOM     30  C   UNL     1       2.309   6.069  19.821  0.00  0.00    +0.000 C 
ENDBRANCH  20  21
ENDBRANCH  17  20
ENDBRANCH  16  17
ENDBRANCH   1  16
TORSDOF 8
ENDMDL
MODEL 7
REMARK VINA RESULT:      -7.7      2.957      9.532
REMARK  Name = 
REMARK  8 active torsions:
REMARK  status: ('A' for Active; 'I' for Inactive)
REMARK    1  A    between atoms: C_2  and  C_3
REMARK    2  A    between atoms: C_6  and  C_7
REMARK    3  A    between atoms: C_11  and  O_12
REMARK    4  A    between atoms: O_12  and  C_13
REMARK    5  A    between atoms: C_13  and  C_14
REMARK    6  A    between atoms: C_14  and  O_15
REMARK    7  A    between atoms: C_14  and  C_16
REMARK    8  A    between atoms: C_16  and  N_17
REMARK                            x       y       z     vdW  Elec       q    Type
REMARK                         _______ _______ _______ _____ _____    ______ ____
ROOT
ATOM      1  O   UNL     1       1.168   6.691  21.038  0.00  0.00    +0.000 OA
ENDROOT
BRANCH   1   6
ATOM      2  C   UNL     1       3.125   4.684  18.532  0.00  0.00    +0.000 A 
ATOM      3  C   UNL     1       2.606   3.427  18.886  0.00  0.00    +0.000 A 
ATOM      4  C   UNL     1       1.644   3.285  19.887  0.00  0.00    +0.000 A 
ATOM      5  C   UNL     1       1.180   4.407  20.574  0.00  0.00    +0.000 A 
ATOM      6  C   UNL     1       1.688   5.673  20.278  0.00  0.00    +0.000 A 
ATOM      7  C   UNL     1       2.643   5.799  19.255  0.00  0.00    +0.000 A 
BRANCH   2  11
ATOM      8  C   UNL     1       6.052   5.111  15.410  0.00  0.00    +0.000 A 
ATOM      9  C   UNL     1       5.492   6.250  15.985  0.00  0.00    +0.000 A 
ATOM     10  C   UNL     1       4.551   6.120  17.003  0.00  0.00    +0.000 A 
ATOM     11  C   UNL     1       4.106   4.840  17.413  0.00  0.00    +0.000 A 
ATOM     12  C   UNL     1       4.647   3.717  16.775  0.00  0.00    +0.000 A 
ATOM     13  C   UNL     1       5.622   3.836  15.784  0.00  0.00    +0.000 A 
BRANCH   8  15
ATOM     14  N   UNL     1       7.938   5.339  13.643  0.00  0.00    +0.000 NA
ATOM     15  C   UNL     1       7.088   5.248  14.421  0.00  0.00    +0.000 C 
ENDBRANCH   8  15
ENDBRANCH   2  11
ENDBRANCH   1   6
BRANCH   1  16
ATOM     16  C   UNL     1       1.568   8.045  20.746  0.00  0.00    +0.000 C 
BRANCH  16  17
ATOM     17  C   UNL     1       0.681   9.050  21.547  0.00  0.00    +0.000 C 
BRANCH  17  18
ATOM     18  O   UNL     1       1.472   9.556  22.633  0.00  0.00    +0.000 OA
ATOM     19  H   UNL     1       1.224   9.043  23.423  0.00  0.00    +0.000 HD
ENDBRANCH  17  18
BRANCH  17  20
ATOM     20  C   UNL     1       0.086  10.200  20.653  0.00  0.00    +0.000 C 
BRANCH  20  21
ATOM     21  N   UNL     1       0.747  11.518  20.728  0.00  0.00    +0.000 NA
ATOM     22  C   UNL     1       0.145  12.654  21.453  0.00  0.00    +0.000 C 
ATOM     23  C   UNL     1       1.182  13.930  21.385  0.00  0.00    +0.000 C 
ATOM     24  C   UNL     1       1.704  14.203  19.917  0.00  0.00    +0.000 A 
ATOM     25  C   UNL     1       2.084  15.406  19.339  0.00  0.00    +0.000 A 
ATOM     26  C   UNL     1       1.104  16.152  18.688  0.00  0.00    +0.000 A 
ATOM     27  C   UNL     1      -0.171  15.618  18.677  0.00  0.00    +0.000 A 
ATOM     28  C   UNL     1      -0.287  14.222  18.857  0.00  0.00    +0.000 A 
ATOM     29  C   UNL     1       0.865  13.469  19.133  0.00  0.00    +0.000 A 
ATOM     30  C   UNL     1       1.164  12.002  19.400  0.00  0.00    +0.000 C 
ENDBRANCH  20  21
ENDBRANCH  17  20
ENDBRANCH  16  17
ENDBRANCH   1  16
TORSDOF 8
ENDMDL
MODEL 8
REMARK VINA RESULT:      -7.6      2.555      4.618
REMARK  Name = 
REMARK  8 active torsions:
REMARK  status: ('A' for Active; 'I' for Inactive)
REMARK    1  A    between atoms: C_2  and  C_3
REMARK    2  A    between atoms: C_6  and  C_7
REMARK    3  A    between atoms: C_11  and  O_12
REMARK    4  A    between atoms: O_12  and  C_13
REMARK    5  A    between atoms: C_13  and  C_14
REMARK    6  A    between atoms: C_14  and  O_15
REMARK    7  A    between atoms: C_14  and  C_16
REMARK    8  A    between atoms: C_16  and  N_17
REMARK                            x       y       z     vdW  Elec       q    Type
REMARK                         _______ _______ _______ _____ _____    ______ ____
ROOT
ATOM      1  O   UNL     1       0.418   9.451  19.486  0.00  0.00    +0.000 OA
ENDROOT
BRANCH   1   6
ATOM      2  C   UNL     1      -1.259  11.257  22.326  0.00  0.00    +0.000 A 
ATOM      3  C   UNL     1      -0.824  10.397  23.348  0.00  0.00    +0.000 A 
ATOM      4  C   UNL     1      -0.002   9.300  23.085  0.00  0.00    +0.000 A 
ATOM      5  C   UNL     1       0.403   9.028  21.777  0.00  0.00    +0.000 A 
ATOM      6  C   UNL     1      -0.029   9.836  20.725  0.00  0.00    +0.000 A 
ATOM      7  C   UNL     1      -0.842  10.946  21.011  0.00  0.00    +0.000 A 
BRANCH   2  11
ATOM      8  C   UNL     1      -3.531  14.785  23.266  0.00  0.00    +0.000 A 
ATOM      9  C   UNL     1      -3.876  13.571  23.855  0.00  0.00    +0.000 A 
ATOM     10  C   UNL     1      -3.139  12.427  23.563  0.00  0.00    +0.000 A 
ATOM     11  C   UNL     1      -2.084  12.470  22.620  0.00  0.00    +0.000 A 
ATOM     12  C   UNL     1      -1.800  13.694  22.003  0.00  0.00    +0.000 A 
ATOM     13  C   UNL     1      -2.504  14.856  22.321  0.00  0.00    +0.000 A 
BRANCH   8  15
ATOM     14  N   UNL     1      -4.787  16.948  23.958  0.00  0.00    +0.000 NA
ATOM     15  C   UNL     1      -4.236  15.984  23.636  0.00  0.00    +0.000 C 
ENDBRANCH   8  15
ENDBRANCH   2  11
ENDBRANCH   1   6
BRANCH   1  16
ATOM     16  C   UNL     1       1.639   8.689  19.399  0.00  0.00    +0.000 C 
BRANCH  16  17
ATOM     17  C   UNL     1       2.012   8.445  17.902  0.00  0.00    +0.000 C 
BRANCH  17  18
ATOM     18  O   UNL     1       2.010   9.720  17.242  0.00  0.00    +0.000 OA
ATOM     19  H   UNL     1       1.169   9.781  16.755  0.00  0.00    +0.000 HD
ENDBRANCH  17  18
BRANCH  17  20
ATOM     20  C   UNL     1       3.374   7.679  17.720  0.00  0.00    +0.000 C 
BRANCH  20  21
ATOM     21  N   UNL     1       3.361   6.222  17.957  0.00  0.00    +0.000 NA
ATOM     22  C   UNL     1       2.132   5.417  17.810  0.00  0.00    +0.000 C 
ATOM     23  C   UNL     1       2.502   3.837  18.084  0.00  0.00    +0.000 C 
ATOM     24  C   UNL     1       3.344   3.637  19.407  0.00  0.00    +0.000 A 
ATOM     25  C   UNL     1       3.370   2.546  20.264  0.00  0.00    +0.000 A 
ATOM     26  C   UNL     1       2.468   2.530  21.325  0.00  0.00    +0.000 A 
ATOM     27  C   UNL     1       1.619   3.617  21.427  0.00  0.00    +0.000 A 
ATOM     28  C   UNL     1       2.034   4.819  20.813  0.00  0.00    +0.000 A 
ATOM     29  C   UNL     1       3.216   4.829  20.056  0.00  0.00    +0.000 A 
ATOM     30  C   UNL     1       3.979   5.868  19.248  0.00  0.00    +0.000 C 
ENDBRANCH  20  21
ENDBRANCH  17  20
ENDBRANCH  16  17
ENDBRANCH   1  16
TORSDOF 8
ENDMDL
MODEL 9
REMARK VINA RESULT:      -7.6      2.115     10.455
REMARK  Name = 
REMARK  8 active torsions:
REMARK  status: ('A' for Active; 'I' for Inactive)
REMARK    1  A    between atoms: C_2  and  C_3
REMARK    2  A    between atoms: C_6  and  C_7
REMARK    3  A    between atoms: C_11  and  O_12
REMARK    4  A    between atoms: O_12  and  C_13
REMARK    5  A    between atoms: C_13  and  C_14
REMARK    6  A    between atoms: C_14  and  O_15
REMARK    7  A    between atoms: C_14  and  C_16
REMARK    8  A    between atoms: C_16  and  N_17
REMARK                            x       y       z     vdW  Elec       q    Type
REMARK                         _______ _______ _______ _____ _____    ______ ____
ROOT
ATOM      1  O   UNL     1       1.439   7.044  21.207  0.00  0.00    +0.000 OA
ENDROOT
BRANCH   1   6
ATOM      2  C   UNL     1       3.079   4.919  18.574  0.00  0.00    +0.000 A 
ATOM      3  C   UNL     1       2.305   3.767  18.787  0.00  0.00    +0.000 A 
ATOM      4  C   UNL     1       1.286   3.731  19.740  0.00  0.00    +0.000 A 
ATOM      5  C   UNL     1       1.020   4.858  20.520  0.00  0.00    +0.000 A 
ATOM      6  C   UNL     1       1.783   6.016  20.366  0.00  0.00    +0.000 A 
ATOM      7  C   UNL     1       2.792   6.039  19.389  0.00  0.00    +0.000 A 
BRANCH   2  11
ATOM      8  C   UNL     1       5.979   5.093  15.403  0.00  0.00    +0.000 A 
ATOM      9  C   UNL     1       5.622   3.858  15.938  0.00  0.00    +0.000 A 
ATOM     10  C   UNL     1       4.677   3.792  16.958  0.00  0.00    +0.000 A 
ATOM     11  C   UNL     1       4.124   4.975  17.505  0.00  0.00    +0.000 A 
ATOM     12  C   UNL     1       4.547   6.204  16.983  0.00  0.00    +0.000 A 
ATOM     13  C   UNL     1       5.461   6.278  15.932  0.00  0.00    +0.000 A 
BRANCH   8  15
ATOM     14  N   UNL     1       7.628   5.228  13.404  0.00  0.00    +0.000 NA
ATOM     15  C   UNL     1       6.889   5.152  14.290  0.00  0.00    +0.000 C 
ENDBRANCH   8  15
ENDBRANCH   2  11
ENDBRANCH   1   6
BRANCH   1  16
ATOM     16  C   UNL     1       1.550   8.398  20.724  0.00  0.00    +0.000 C 
BRANCH  16  17
ATOM     17  C   UNL     1       0.135   9.049  20.621  0.00  0.00    +0.000 C 
BRANCH  17  18
ATOM     18  O   UNL     1      -0.744   8.313  21.486  0.00  0.00    +0.000 OA
ATOM     19  H   UNL     1      -0.654   8.702  22.374  0.00  0.00    +0.000 HD
ENDBRANCH  17  18
BRANCH  17  20
ATOM     20  C   UNL     1       0.137  10.590  20.941  0.00  0.00    +0.000 C 
BRANCH  20  21
ATOM     21  N   UNL     1      -1.118  11.168  21.461  0.00  0.00    +0.000 NA
ATOM     22  C   UNL     1      -1.714  12.389  20.884  0.00  0.00    +0.000 C 
ATOM     23  C   UNL     1      -3.131  12.701  21.661  0.00  0.00    +0.000 C 
ATOM     24  C   UNL     1      -2.979  12.643  23.235  0.00  0.00    +0.000 A 
ATOM     25  C   UNL     1      -3.683  13.346  24.202  0.00  0.00    +0.000 A 
ATOM     26  C   UNL     1      -3.175  14.578  24.609  0.00  0.00    +0.000 A 
ATOM     27  C   UNL     1      -2.001  14.990  24.005  0.00  0.00    +0.000 A 
ATOM     28  C   UNL     1      -1.180  13.989  23.441  0.00  0.00    +0.000 A 
ATOM     29  C   UNL     1      -1.630  12.659  23.431  0.00  0.00    +0.000 A 
ATOM     30  C   UNL     1      -1.084  11.333  22.925  0.00  0.00    +0.000 C 
ENDBRANCH  20  21
ENDBRANCH  17  20
ENDBRANCH  16  17
ENDBRANCH   1  16
TORSDOF 8
ENDMDL
