MODEL 1
REMARK VINA RESULT:      -7.7      0.000      0.000
REMARK  Name = 
REMARK  7 active torsions:
REMARK  status: ('A' for Active; 'I' for Inactive)
REMARK    1  A    between atoms: C_1  and  O_2
REMARK    2  A    between atoms: O_2  and  C_3
REMARK    3  A    between atoms: C_6  and  C_7
REMARK    4  A    between atoms: C_7  and  O_9
REMARK    5  A    between atoms: O_9  and  C_10
REMARK    6  A    between atoms: C_13  and  C_14
REMARK    7  A    between atoms: C_14  and  C_15
REMARK                            x       y       z     vdW  Elec       q    Type
REMARK                         _______ _______ _______ _____ _____    ______ ____
ROOT
ATOM      1  C   UNL     1       2.731   5.366  19.002  0.00  0.00    +0.000 A 
ATOM      2  C   UNL     1       2.798   6.561  18.288  0.00  0.00    +0.000 A 
ATOM      3  C   UNL     1       2.277   7.730  18.830  0.00  0.00    +0.000 A 
ATOM      4  C   UNL     1       1.650   7.718  20.084  0.00  0.00    +0.000 A 
ATOM      5  C   UNL     1       1.614   6.513  20.807  0.00  0.00    +0.000 A 
ATOM      6  C   UNL     1       2.142   5.333  20.262  0.00  0.00    +0.000 A 
ENDROOT
BRANCH   1   7
ATOM      7  O   UNL     1       3.129   4.148  18.416  0.00  0.00    +0.000 OA
BRANCH   7   8
ATOM      8  C   UNL     1       4.453   3.785  18.592  0.00  0.00    +0.000 C 
ATOM      9  O   UNL     1       4.940   3.253  19.574  0.00  0.00    +0.000 OA
BRANCH   8  13
ATOM     10  C   UNL     1       6.918   5.023  15.292  0.00  0.00    +0.000 A 
ATOM     11  C   UNL     1       7.380   5.094  16.606  0.00  0.00    +0.000 A 
ATOM     12  C   UNL     1       6.567   4.680  17.663  0.00  0.00    +0.000 A 
ATOM     13  C   UNL     1       5.273   4.203  17.417  0.00  0.00    +0.000 A 
ATOM     14  C   UNL     1       4.792   4.178  16.102  0.00  0.00    +0.000 A 
ATOM     15  C   UNL     1       5.616   4.586  15.044  0.00  0.00    +0.000 A 
BRANCH  10  17
ATOM     16  C   UNL     1       7.556   4.962  13.021  0.00  0.00    +0.000 C 
ATOM     17  O   UNL     1       7.804   5.441  14.338  0.00  0.00    +0.000 OA
ENDBRANCH  10  17
ENDBRANCH   8  13
ENDBRANCH   7   8
ENDBRANCH   1   7
BRANCH   4  18
ATOM     18  C   UNL     1       1.040   8.987  20.644  0.00  0.00    +0.000 C 
BRANCH  18  19
ATOM     19  C   UNL     1       0.941  10.128  19.631  0.00  0.00    +0.000 C 
ATOM     20  N   UNL     1      -0.275  10.109  18.843  0.00  0.00    +0.000 N 
ATOM     21  C   UNL     1      -1.034  11.235  19.033  0.00  0.00    +0.000 C 
ATOM     22  S   UNL     1      -2.491  11.527  18.325  0.00  0.00    +0.000 S 
ATOM     23  N   UNL     1      -0.398  12.053  19.902  0.00  0.00    +0.000 N 
ATOM     24  C   UNL     1       0.767  11.479  20.339  0.00  0.00    +0.000 C 
ATOM     25  O   UNL     1       1.518  11.968  21.168  0.00  0.00    +0.000 OA
ATOM     26  H   UNL     1      -0.546   9.357  18.217  0.00  0.00    +0.000 HD
ATOM     27  H   UNL     1      -0.745  12.942  20.227  0.00  0.00    +0.000 HD
ENDBRANCH  18  19
ENDBRANCH   4  18
TORSDOF 6
ENDMDL
MODEL 2
REMARK VINA RESULT:      -7.6      1.522      2.124
REMARK  Name = 
REMARK  7 active torsions:
REMARK  status: ('A' for Active; 'I' for Inactive)
REMARK    1  A    between atoms: C_1  and  O_2
REMARK    2  A    between atoms: O_2  and  C_3
REMARK    3  A    between atoms: C_6  and  C_7
REMARK    4  A    between atoms: C_7  and  O_9
REMARK    5  A    between atoms: O_9  and  C_10
REMARK    6  A    between atoms: C_13  and  C_14
REMARK    7  A    between atoms: C_14  and  C_15
REMARK                            x       y       z     vdW  Elec       q    Type
REMARK                         _______ _______ _______ _____ _____    ______ ____
ROOT
ATOM      1  C   UNL     1       2.385   5.181  18.965  0.00  0.00    +0.000 A 
ATOM      2  C   UNL     1       1.831   5.138  20.243  0.00  0.00    +0.000 A 
ATOM      3  C   UNL     1       1.507   6.315  20.905  0.00  0.00    +0.000 A 
ATOM      4  C   UNL     1       1.761   7.561  20.313  0.00  0.00    +0.000 A 
ATOM      5  C   UNL     1       2.294   7.592  19.012  0.00  0.00    +0.000 A 
ATOM      6  C   UNL     1       2.619   6.402  18.342  0.00  0.00    +0.000 A 
ENDROOT
BRANCH   1   7
ATOM      7  O   UNL     1       2.846   4.008  18.333  0.00  0.00    +0.000 OA
BRANCH   7   8
ATOM      8  C   UNL     1       4.119   3.587  18.676  0.00  0.00    +0.000 C 
ATOM      9  O   UNL     1       4.437   2.952  19.666  0.00  0.00    +0.000 OA
BRANCH   8  13
ATOM     10  C   UNL     1       6.917   4.977  15.720  0.00  0.00    +0.000 A 
ATOM     11  C   UNL     1       5.692   4.422  15.351  0.00  0.00    +0.000 A 
ATOM     12  C   UNL     1       4.794   3.984  16.326  0.00  0.00    +0.000 A 
ATOM     13  C   UNL     1       5.120   4.082  17.685  0.00  0.00    +0.000 A 
ATOM     14  C   UNL     1       6.370   4.594  18.053  0.00  0.00    +0.000 A 
ATOM     15  C   UNL     1       7.264   5.041  17.070  0.00  0.00    +0.000 A 
BRANCH  10  17
ATOM     16  C   UNL     1       7.334   4.904  13.398  0.00  0.00    +0.000 C 
ATOM     17  O   UNL     1       7.710   5.386  14.683  0.00  0.00    +0.000 OA
ENDBRANCH  10  17
ENDBRANCH   8  13
ENDBRANCH   7   8
ENDBRANCH   1   7
BRANCH   4  18
ATOM     18  C   UNL     1       1.451   8.840  21.064  0.00  0.00    +0.000 C 
BRANCH  18  19
ATOM     19  C   UNL     1      -0.035   9.201  21.089  0.00  0.00    +0.000 C 
ATOM     20  N   UNL     1      -0.429   9.984  22.242  0.00  0.00    +0.000 N 
ATOM     21  C   UNL     1      -0.922  11.214  21.889  0.00  0.00    +0.000 C 
ATOM     22  S   UNL     1      -1.427  12.371  22.945  0.00  0.00    +0.000 S 
ATOM     23  N   UNL     1      -0.912  11.323  20.542  0.00  0.00    +0.000 N 
ATOM     24  C   UNL     1      -0.378  10.197  19.972  0.00  0.00    +0.000 C 
ATOM     25  O   UNL     1      -0.196  10.039  18.776  0.00  0.00    +0.000 OA
ATOM     26  H   UNL     1      -0.356   9.672  23.205  0.00  0.00    +0.000 HD
ATOM     27  H   UNL     1      -1.207  12.132  20.019  0.00  0.00    +0.000 HD
ENDBRANCH  18  19
ENDBRANCH   4  18
TORSDOF 6
ENDMDL
MODEL 3
REMARK VINA RESULT:      -7.6      0.290      1.004
REMARK  Name = 
REMARK  7 active torsions:
REMARK  status: ('A' for Active; 'I' for Inactive)
REMARK    1  A    between atoms: C_1  and  O_2
REMARK    2  A    between atoms: O_2  and  C_3
REMARK    3  A    between atoms: C_6  and  C_7
REMARK    4  A    between atoms: C_7  and  O_9
REMARK    5  A    between atoms: O_9  and  C_10
REMARK    6  A    between atoms: C_13  and  C_14
REMARK    7  A    between atoms: C_14  and  C_15
REMARK                            x       y       z     vdW  Elec       q    Type
REMARK                         _______ _______ _______ _____ _____    ______ ____
ROOT
ATOM      1  C   UNL     1       2.617   5.361  19.165  0.00  0.00    +0.000 A 
ATOM      2  C   UNL     1       2.787   6.551  18.459  0.00  0.00    +0.000 A 
ATOM      3  C   UNL     1       2.311   7.747  18.979  0.00  0.00    +0.000 A 
ATOM      4  C   UNL     1       1.625   7.772  20.203  0.00  0.00    +0.000 A 
ATOM      5  C   UNL     1       1.484   6.571  20.919  0.00  0.00    +0.000 A 
ATOM      6  C   UNL     1       1.968   5.362  20.395  0.00  0.00    +0.000 A 
ENDROOT
BRANCH   1   7
ATOM      7  O   UNL     1       2.970   4.121  18.595  0.00  0.00    +0.000 OA
BRANCH   7   8
ATOM      8  C   UNL     1       4.258   3.677  18.839  0.00  0.00    +0.000 C 
ATOM      9  O   UNL     1       4.635   3.018  19.791  0.00  0.00    +0.000 OA
BRANCH   8  13
ATOM     10  C   UNL     1       6.868   5.086  15.724  0.00  0.00    +0.000 A 
ATOM     11  C   UNL     1       5.659   4.460  15.426  0.00  0.00    +0.000 A 
ATOM     12  C   UNL     1       4.821   4.017  16.451  0.00  0.00    +0.000 A 
ATOM     13  C   UNL     1       5.194   4.182  17.792  0.00  0.00    +0.000 A 
ATOM     14  C   UNL     1       6.431   4.766  18.090  0.00  0.00    +0.000 A 
ATOM     15  C   UNL     1       7.264   5.218  17.057  0.00  0.00    +0.000 A 
BRANCH  10  17
ATOM     16  C   UNL     1       7.316   4.816  13.423  0.00  0.00    +0.000 C 
ATOM     17  O   UNL     1       7.599   5.493  14.642  0.00  0.00    +0.000 OA
ENDBRANCH  10  17
ENDBRANCH   8  13
ENDBRANCH   7   8
ENDBRANCH   1   7
BRANCH   4  18
ATOM     18  C   UNL     1       1.066   9.074  20.737  0.00  0.00    +0.000 C 
BRANCH  18  19
ATOM     19  C   UNL     1       0.937  10.174  19.683  0.00  0.00    +0.000 C 
ATOM     20  N   UNL     1      -0.271  10.084  18.887  0.00  0.00    +0.000 N 
ATOM     21  C   UNL     1      -1.070  11.190  19.030  0.00  0.00    +0.000 C 
ATOM     22  S   UNL     1      -2.529  11.404  18.300  0.00  0.00    +0.000 S 
ATOM     23  N   UNL     1      -0.471  12.060  19.873  0.00  0.00    +0.000 N 
ATOM     24  C   UNL     1       0.709  11.543  20.340  0.00  0.00    +0.000 C 
ATOM     25  O   UNL     1       1.435  12.087  21.157  0.00  0.00    +0.000 OA
ATOM     26  H   UNL     1      -0.510   9.302  18.286  0.00  0.00    +0.000 HD
ATOM     27  H   UNL     1      -0.851  12.947  20.164  0.00  0.00    +0.000 HD
ENDBRANCH  18  19
ENDBRANCH   4  18
TORSDOF 6
ENDMDL
MODEL 4
REMARK VINA RESULT:      -7.5      4.193      9.390
REMARK  Name = 
REMARK  7 active torsions:
REMARK  status: ('A' for Active; 'I' for Inactive)
REMARK    1  A    between atoms: C_1  and  O_2
REMARK    2  A    between atoms: O_2  and  C_3
REMARK    3  A    between atoms: C_6  and  C_7
REMARK    4  A    between atoms: C_7  and  O_9
REMARK    5  A    between atoms: O_9  and  C_10
REMARK    6  A    between atoms: C_13  and  C_14
REMARK    7  A    between atoms: C_14  and  C_15
REMARK                            x       y       z     vdW  Elec       q    Type
REMARK                         _______ _______ _______ _____ _____    ______ ____
ROOT
ATOM      1  C   UNL     1       0.835   9.478  19.610  0.00  0.00    +0.000 A 
ATOM      2  C   UNL     1       1.263   8.471  20.473  0.00  0.00    +0.000 A 
ATOM      3  C   UNL     1       2.133   7.486  20.022  0.00  0.00    +0.000 A 
ATOM      4  C   UNL     1       2.568   7.473  18.689  0.00  0.00    +0.000 A 
ATOM      5  C   UNL     1       2.153   8.510  17.835  0.00  0.00    +0.000 A 
ATOM      6  C   UNL     1       1.275   9.506  18.291  0.00  0.00    +0.000 A 
ENDROOT
BRANCH   1   7
ATOM      7  O   UNL     1      -0.151  10.403  20.007  0.00  0.00    +0.000 OA
BRANCH   7   8
ATOM      8  C   UNL     1      -0.456  11.403  19.099  0.00  0.00    +0.000 C 
ATOM      9  O   UNL     1       0.267  12.322  18.755  0.00  0.00    +0.000 OA
BRANCH   8  13
ATOM     10  C   UNL     1      -4.548  11.101  17.812  0.00  0.00    +0.000 A 
ATOM     11  C   UNL     1      -4.179  11.951  18.854  0.00  0.00    +0.000 A 
ATOM     12  C   UNL     1      -2.844  12.041  19.251  0.00  0.00    +0.000 A 
ATOM     13  C   UNL     1      -1.863  11.266  18.619  0.00  0.00    +0.000 A 
ATOM     14  C   UNL     1      -2.241  10.377  17.606  0.00  0.00    +0.000 A 
ATOM     15  C   UNL     1      -3.582  10.298  17.204  0.00  0.00    +0.000 A 
BRANCH  10  17
ATOM     16  C   UNL     1      -6.771  11.101  18.606  0.00  0.00    +0.000 C 
ATOM     17  O   UNL     1      -5.879  11.105  17.497  0.00  0.00    +0.000 OA
ENDBRANCH  10  17
ENDBRANCH   8  13
ENDBRANCH   7   8
ENDBRANCH   1   7
BRANCH   4  18
ATOM     18  C   UNL     1       3.478   6.367  18.194  0.00  0.00    +0.000 C 
BRANCH  18  19
ATOM     19  C   UNL     1       3.811   5.316  19.254  0.00  0.00    +0.000 C 
ATOM     20  N   UNL     1       3.141   4.047  19.053  0.00  0.00    +0.000 N 
ATOM     21  C   UNL     1       4.026   3.019  18.857  0.00  0.00    +0.000 C 
ATOM     22  S   UNL     1       3.611   1.454  18.563  0.00  0.00    +0.000 S 
ATOM     23  N   UNL     1       5.287   3.502  18.930  0.00  0.00    +0.000 N 
ATOM     24  C   UNL     1       5.271   4.857  19.134  0.00  0.00    +0.000 C 
ATOM     25  O   UNL     1       6.263   5.566  19.188  0.00  0.00    +0.000 OA
ATOM     26  H   UNL     1       2.134   3.918  19.057  0.00  0.00    +0.000 HD
ATOM     27  H   UNL     1       6.128   2.961  18.807  0.00  0.00    +0.000 HD
ENDBRANCH  18  19
ENDBRANCH   4  18
TORSDOF 6
ENDMDL
MODEL 5
REMARK VINA RESULT:      -7.5      4.199      5.376
REMARK  Name = 
REMARK  7 active torsions:
REMARK  status: ('A' for Active; 'I' for Inactive)
REMARK    1  A    between atoms: C_1  and  O_2
REMARK    2  A    between atoms: O_2  and  C_3
REMARK    3  A    between atoms: C_6  and  C_7
REMARK    4  A    between atoms: C_7  and  O_9
REMARK    5  A    between atoms: O_9  and  C_10
REMARK    6  A    between atoms: C_13  and  C_14
REMARK    7  A    between atoms: C_14  and  C_15
REMARK                            x       y       z     vdW  Elec       q    Type
REMARK                         _______ _______ _______ _____ _____    ______ ____
ROOT
ATOM      1  C   UNL     1       4.892   6.744  17.506  0.00  0.00    +0.000 A 
ATOM      2  C   UNL     1       3.655   7.386  17.496  0.00  0.00    +0.000 A 
ATOM      3  C   UNL     1       2.712   7.103  18.476  0.00  0.00    +0.000 A 
ATOM      4  C   UNL     1       2.976   6.146  19.467  0.00  0.00    +0.000 A 
ATOM      5  C   UNL     1       4.238   5.526  19.484  0.00  0.00    +0.000 A 
ATOM      6  C   UNL     1       5.192   5.813  18.495  0.00  0.00    +0.000 A 
ENDROOT
BRANCH   1   7
ATOM      7  O   UNL     1       5.807   6.914  16.448  0.00  0.00    +0.000 OA
BRANCH   7   8
ATOM      8  C   UNL     1       6.766   5.927  16.300  0.00  0.00    +0.000 C 
ATOM      9  O   UNL     1       7.735   5.737  17.015  0.00  0.00    +0.000 OA
BRANCH   8  13
ATOM     10  C   UNL     1       5.913   3.572  12.804  0.00  0.00    +0.000 A 
ATOM     11  C   UNL     1       5.056   3.570  13.903  0.00  0.00    +0.000 A 
ATOM     12  C   UNL     1       5.346   4.348  15.026  0.00  0.00    +0.000 A 
ATOM     13  C   UNL     1       6.511   5.126  15.066  0.00  0.00    +0.000 A 
ATOM     14  C   UNL     1       7.395   5.089  13.982  0.00  0.00    +0.000 A 
ATOM     15  C   UNL     1       7.094   4.314  12.854  0.00  0.00    +0.000 A 
BRANCH  10  17
ATOM     16  C   UNL     1       4.236   3.078  11.218  0.00  0.00    +0.000 C 
ATOM     17  O   UNL     1       5.521   2.786  11.755  0.00  0.00    +0.000 OA
ENDBRANCH  10  17
ENDBRANCH   8  13
ENDBRANCH   7   8
ENDBRANCH   1   7
BRANCH   4  18
ATOM     18  C   UNL     1       1.922   5.808  20.501  0.00  0.00    +0.000 C 
BRANCH  18  19
ATOM     19  C   UNL     1       1.275   4.437  20.303  0.00  0.00    +0.000 C 
ATOM     20  N   UNL     1       1.441   3.898  18.967  0.00  0.00    +0.000 N 
ATOM     21  C   UNL     1       2.138   2.717  18.968  0.00  0.00    +0.000 C 
ATOM     22  S   UNL     1       2.538   1.852  17.627  0.00  0.00    +0.000 S 
ATOM     23  N   UNL     1       2.451   2.391  20.243  0.00  0.00    +0.000 N 
ATOM     24  C   UNL     1       2.012   3.358  21.109  0.00  0.00    +0.000 C 
ATOM     25  O   UNL     1       2.202   3.354  22.314  0.00  0.00    +0.000 OA
ATOM     26  H   UNL     1       1.087   4.332  18.121  0.00  0.00    +0.000 HD
ATOM     27  H   UNL     1       2.976   1.579  20.525  0.00  0.00    +0.000 HD
ENDBRANCH  18  19
ENDBRANCH   4  18
TORSDOF 6
ENDMDL
MODEL 6
REMARK VINA RESULT:      -7.5      1.919      2.422
REMARK  Name = 
REMARK  7 active torsions:
REMARK  status: ('A' for Active; 'I' for Inactive)
REMARK    1  A    between atoms: C_1  and  O_2
REMARK    2  A    between atoms: O_2  and  C_3
REMARK    3  A    between atoms: C_6  and  C_7
REMARK    4  A    between atoms: C_7  and  O_9
REMARK    5  A    between atoms: O_9  and  C_10
REMARK    6  A    between atoms: C_13  and  C_14
REMARK    7  A    between atoms: C_14  and  C_15
REMARK                            x       y       z     vdW  Elec       q    Type
REMARK                         _______ _______ _______ _____ _____    ______ ____
ROOT
ATOM      1  C   UNL     1       2.290   5.098  18.607  0.00  0.00    +0.000 A 
ATOM      2  C   UNL     1       2.460   6.393  18.121  0.00  0.00    +0.000 A 
ATOM      3  C   UNL     1       2.214   7.487  18.942  0.00  0.00    +0.000 A 
ATOM      4  C   UNL     1       1.762   7.306  20.257  0.00  0.00    +0.000 A 
ATOM      5  C   UNL     1       1.622   5.995  20.746  0.00  0.00    +0.000 A 
ATOM      6  C   UNL     1       1.872   4.890  19.917  0.00  0.00    +0.000 A 
ENDROOT
BRANCH   1   7
ATOM      7  O   UNL     1       2.400   3.982  17.754  0.00  0.00    +0.000 OA
BRANCH   7   8
ATOM      8  C   UNL     1       3.612   3.313  17.772  0.00  0.00    +0.000 C 
ATOM      9  O   UNL     1       3.786   2.122  17.964  0.00  0.00    +0.000 OA
BRANCH   8  13
ATOM     10  C   UNL     1       6.840   6.080  17.126  0.00  0.00    +0.000 A 
ATOM     11  C   UNL     1       6.004   5.689  16.081  0.00  0.00    +0.000 A 
ATOM     12  C   UNL     1       4.956   4.796  16.313  0.00  0.00    +0.000 A 
ATOM     13  C   UNL     1       4.744   4.270  17.595  0.00  0.00    +0.000 A 
ATOM     14  C   UNL     1       5.614   4.625  18.632  0.00  0.00    +0.000 A 
ATOM     15  C   UNL     1       6.658   5.530  18.396  0.00  0.00    +0.000 A 
BRANCH  10  17
ATOM     16  C   UNL     1       7.880   8.150  17.580  0.00  0.00    +0.000 C 
ATOM     17  O   UNL     1       7.822   6.970  16.787  0.00  0.00    +0.000 OA
ENDBRANCH  10  17
ENDBRANCH   8  13
ENDBRANCH   7   8
ENDBRANCH   1   7
BRANCH   4  18
ATOM     18  C   UNL     1       1.449   8.505  21.128  0.00  0.00    +0.000 C 
BRANCH  18  19
ATOM     19  C   UNL     1      -0.013   8.948  21.073  0.00  0.00    +0.000 C 
ATOM     20  N   UNL     1      -0.449   9.677  22.247  0.00  0.00    +0.000 N 
ATOM     21  C   UNL     1      -0.850  10.953  21.945  0.00  0.00    +0.000 C 
ATOM     22  S   UNL     1      -1.370  12.067  23.040  0.00  0.00    +0.000 S 
ATOM     23  N   UNL     1      -0.734  11.148  20.612  0.00  0.00    +0.000 N 
ATOM     24  C   UNL     1      -0.219  10.032  20.006  0.00  0.00    +0.000 C 
ATOM     25  O   UNL     1       0.042   9.942  18.817  0.00  0.00    +0.000 OA
ATOM     26  H   UNL     1      -0.465   9.300  23.189  0.00  0.00    +0.000 HD
ATOM     27  H   UNL     1      -0.947  12.005  20.127  0.00  0.00    +0.000 HD
ENDBRANCH  18  19
ENDBRANCH   4  18
TORSDOF 6
ENDMDL
MODEL 7
REMARK VINA RESULT:      -7.5      1.734      2.280
REMARK  Name = 
REMARK  7 active torsions:
REMARK  status: ('A' for Active; 'I' for Inactive)
REMARK    1  A    between atoms: C_1  and  O_2
REMARK    2  A    between atoms: O_2  and  C_3
REMARK    3  A    between atoms: C_6  and  C_7
REMARK    4  A    between atoms: C_7  and  O_9
REMARK    5  A    between atoms: O_9  and  C_10
REMARK    6  A    between atoms: C_13  and  C_14
REMARK    7  A    between atoms: C_14  and  C_15
REMARK                            x       y       z     vdW  Elec       q    Type
REMARK                         _______ _______ _______ _____ _____    ______ ____
ROOT
ATOM      1  C   UNL     1       2.175   4.769  18.713  0.00  0.00    +0.000 A 
ATOM      2  C   UNL     1       1.879   4.707  20.074  0.00  0.00    +0.000 A 
ATOM      3  C   UNL     1       1.655   5.873  20.795  0.00  0.00    +0.000 A 
ATOM      4  C   UNL     1       1.753   7.127  20.174  0.00  0.00    +0.000 A 
ATOM      5  C   UNL     1       2.024   7.176  18.795  0.00  0.00    +0.000 A 
ATOM      6  C   UNL     1       2.249   5.998  18.066  0.00  0.00    +0.000 A 
ENDROOT
BRANCH   1   7
ATOM      7  O   UNL     1       2.540   3.612  17.997  0.00  0.00    +0.000 OA
BRANCH   7   8
ATOM      8  C   UNL     1       3.817   3.128  18.220  0.00  0.00    +0.000 C 
ATOM      9  O   UNL     1       4.118   2.091  18.783  0.00  0.00    +0.000 OA
BRANCH   8  13
ATOM     10  C   UNL     1       6.796   5.961  16.954  0.00  0.00    +0.000 A 
ATOM     11  C   UNL     1       6.568   5.707  18.305  0.00  0.00    +0.000 A 
ATOM     12  C   UNL     1       5.603   4.777  18.696  0.00  0.00    +0.000 A 
ATOM     13  C   UNL     1       4.840   4.102  17.734  0.00  0.00    +0.000 A 
ATOM     14  C   UNL     1       5.034   4.394  16.379  0.00  0.00    +0.000 A 
ATOM     15  C   UNL     1       6.012   5.320  15.992  0.00  0.00    +0.000 A 
BRANCH  10  17
ATOM     16  C   UNL     1       7.824   7.995  17.567  0.00  0.00    +0.000 C 
ATOM     17  O   UNL     1       7.775   6.878  16.687  0.00  0.00    +0.000 OA
ENDBRANCH  10  17
ENDBRANCH   8  13
ENDBRANCH   7   8
ENDBRANCH   1   7
BRANCH   4  18
ATOM     18  C   UNL     1       1.556   8.395  20.979  0.00  0.00    +0.000 C 
BRANCH  18  19
ATOM     19  C   UNL     1       0.317   9.198  20.580  0.00  0.00    +0.000 C 
ATOM     20  N   UNL     1      -0.448   9.693  21.707  0.00  0.00    +0.000 N 
ATOM     21  C   UNL     1      -0.511  11.062  21.730  0.00  0.00    +0.000 C 
ATOM     22  S   UNL     1      -1.267  11.957  22.886  0.00  0.00    +0.000 S 
ATOM     23  N   UNL     1       0.158  11.552  20.662  0.00  0.00    +0.000 N 
ATOM     24  C   UNL     1       0.712  10.533  19.932  0.00  0.00    +0.000 C 
ATOM     25  O   UNL     1       1.414  10.682  18.946  0.00  0.00    +0.000 OA
ATOM     26  H   UNL     1      -0.894   9.106  22.405  0.00  0.00    +0.000 HD
ATOM     27  H   UNL     1       0.281  12.529  20.448  0.00  0.00    +0.000 HD
ENDBRANCH  18  19
ENDBRANCH   4  18
TORSDOF 6
ENDMDL
MODEL 8
REMARK VINA RESULT:      -7.4      4.212      9.953
REMARK  Name = 
REMARK  7 active torsions:
REMARK  status: ('A' for Active; 'I' for Inactive)
REMARK    1  A    between atoms: C_1  and  O_2
REMARK    2  A    between atoms: O_2  and  C_3
REMARK    3  A    between atoms: C_6  and  C_7
REMARK    4  A    between atoms: C_7  and  O_9
REMARK    5  A    between atoms: O_9  and  C_10
REMARK    6  A    between atoms: C_13  and  C_14
REMARK    7  A    between atoms: C_14  and  C_15
REMARK                            x       y       z     vdW  Elec       q    Type
REMARK                         _______ _______ _______ _____ _____    ______ ____
ROOT
ATOM      1  C   UNL     1       0.895   9.567  19.410  0.00  0.00    +0.000 A 
ATOM      2  C   UNL     1       1.203   8.537  20.298  0.00  0.00    +0.000 A 
ATOM      3  C   UNL     1       2.096   7.540  19.928  0.00  0.00    +0.000 A 
ATOM      4  C   UNL     1       2.675   7.535  18.651  0.00  0.00    +0.000 A 
ATOM      5  C   UNL     1       2.378   8.594  17.774  0.00  0.00    +0.000 A 
ATOM      6  C   UNL     1       1.477   9.603  18.148  0.00  0.00    +0.000 A 
ENDROOT
BRANCH   1   7
ATOM      7  O   UNL     1      -0.109  10.509  19.712  0.00  0.00    +0.000 OA
BRANCH   7   8
ATOM      8  C   UNL     1       0.145  11.356  20.778  0.00  0.00    +0.000 C 
ATOM      9  O   UNL     1       1.237  11.678  21.210  0.00  0.00    +0.000 OA
BRANCH   8  13
ATOM     10  C   UNL     1      -3.490  12.563  22.734  0.00  0.00    +0.000 A 
ATOM     11  C   UNL     1      -2.492  11.877  23.424  0.00  0.00    +0.000 A 
ATOM     12  C   UNL     1      -1.315  11.501  22.773  0.00  0.00    +0.000 A 
ATOM     13  C   UNL     1      -1.132  11.794  21.415  0.00  0.00    +0.000 A 
ATOM     14  C   UNL     1      -2.155  12.440  20.711  0.00  0.00    +0.000 A 
ATOM     15  C   UNL     1      -3.330  12.824  21.372  0.00  0.00    +0.000 A 
BRANCH  10  17
ATOM     16  C   UNL     1      -5.770  13.174  22.729  0.00  0.00    +0.000 C 
ATOM     17  O   UNL     1      -4.591  12.895  23.475  0.00  0.00    +0.000 OA
ENDBRANCH  10  17
ENDBRANCH   8  13
ENDBRANCH   7   8
ENDBRANCH   1   7
BRANCH   4  18
ATOM     18  C   UNL     1       3.609   6.415  18.239  0.00  0.00    +0.000 C 
BRANCH  18  19
ATOM     19  C   UNL     1       3.773   5.323  19.298  0.00  0.00    +0.000 C 
ATOM     20  N   UNL     1       3.100   4.082  18.968  0.00  0.00    +0.000 N 
ATOM     21  C   UNL     1       3.976   3.033  18.854  0.00  0.00    +0.000 C 
ATOM     22  S   UNL     1       3.561   1.492  18.455  0.00  0.00    +0.000 S 
ATOM     23  N   UNL     1       5.229   3.475  19.107  0.00  0.00    +0.000 N 
ATOM     24  C   UNL     1       5.223   4.823  19.352  0.00  0.00    +0.000 C 
ATOM     25  O   UNL     1       6.218   5.500  19.559  0.00  0.00    +0.000 OA
ATOM     26  H   UNL     1       2.099   3.985  18.836  0.00  0.00    +0.000 HD
ATOM     27  H   UNL     1       6.064   2.912  19.075  0.00  0.00    +0.000 HD
ENDBRANCH  18  19
ENDBRANCH   4  18
TORSDOF 6
ENDMDL
MODEL 9
REMARK VINA RESULT:      -7.4      1.823      2.524
REMARK  Name = 
REMARK  7 active torsions:
REMARK  status: ('A' for Active; 'I' for Inactive)
REMARK    1  A    between atoms: C_1  and  O_2
REMARK    2  A    between atoms: O_2  and  C_3
REMARK    3  A    between atoms: C_6  and  C_7
REMARK    4  A    between atoms: C_7  and  O_9
REMARK    5  A    between atoms: O_9  and  C_10
REMARK    6  A    between atoms: C_13  and  C_14
REMARK    7  A    between atoms: C_14  and  C_15
REMARK                            x       y       z     vdW  Elec       q    Type
REMARK                         _______ _______ _______ _____ _____    ______ ____
ROOT
ATOM      1  C   UNL     1       2.491   6.940  19.675  0.00  0.00    +0.000 A 
ATOM      2  C   UNL     1       2.588   7.447  18.380  0.00  0.00    +0.000 A 
ATOM      3  C   UNL     1       1.934   8.624  18.039  0.00  0.00    +0.000 A 
ATOM      4  C   UNL     1       1.142   9.300  18.979  0.00  0.00    +0.000 A 
ATOM      5  C   UNL     1       1.075   8.794  20.289  0.00  0.00    +0.000 A 
ATOM      6  C   UNL     1       1.738   7.607  20.635  0.00  0.00    +0.000 A 
ENDROOT
BRANCH   1   7
ATOM      7  O   UNL     1       3.032   5.681  20.004  0.00  0.00    +0.000 OA
BRANCH   7   8
ATOM      8  C   UNL     1       2.975   4.711  19.017  0.00  0.00    +0.000 C 
ATOM      9  O   UNL     1       2.077   3.909  18.833  0.00  0.00    +0.000 OA
BRANCH   8  13
ATOM     10  C   UNL     1       6.514   4.685  16.574  0.00  0.00    +0.000 A 
ATOM     11  C   UNL     1       5.249   4.505  16.015  0.00  0.00    +0.000 A 
ATOM     12  C   UNL     1       4.112   4.525  16.825  0.00  0.00    +0.000 A 
ATOM     13  C   UNL     1       4.230   4.710  18.209  0.00  0.00    +0.000 A 
ATOM     14  C   UNL     1       5.504   4.840  18.774  0.00  0.00    +0.000 A 
ATOM     15  C   UNL     1       6.641   4.829  17.956  0.00  0.00    +0.000 A 
BRANCH  10  17
ATOM     16  C   UNL     1       7.192   4.789  14.315  0.00  0.00    +0.000 C 
ATOM     17  O   UNL     1       7.554   4.662  15.685  0.00  0.00    +0.000 OA
ENDBRANCH  10  17
ENDBRANCH   8  13
ENDBRANCH   7   8
ENDBRANCH   1   7
BRANCH   4  18
ATOM     18  C   UNL     1       0.392  10.555  18.583  0.00  0.00    +0.000 C 
BRANCH  18  19
ATOM     19  C   UNL     1      -1.053  10.598  19.081  0.00  0.00    +0.000 C 
ATOM     20  N   UNL     1      -1.261  11.496  20.200  0.00  0.00    +0.000 N 
ATOM     21  C   UNL     1      -2.143  12.502  19.899  0.00  0.00    +0.000 C 
ATOM     22  S   UNL     1      -2.580  13.715  20.921  0.00  0.00    +0.000 S 
ATOM     23  N   UNL     1      -2.579  12.341  18.629  0.00  0.00    +0.000 N 
ATOM     24  C   UNL     1      -1.973  11.260  18.046  0.00  0.00    +0.000 C 
ATOM     25  O   UNL     1      -2.135  10.909  16.888  0.00  0.00    +0.000 OA
ATOM     26  H   UNL     1      -0.815  11.403  21.106  0.00  0.00    +0.000 HD
ATOM     27  H   UNL     1      -3.222  12.952  18.151  0.00  0.00    +0.000 HD
ENDBRANCH  18  19
ENDBRANCH   4  18
TORSDOF 6
ENDMDL
