MODEL 1
REMARK VINA RESULT:      -7.6      0.000      0.000
REMARK  Name = 
REMARK  9 active torsions:
REMARK  status: ('A' for Active; 'I' for Inactive)
REMARK    1  A    between atoms: C_2  and  C_3
REMARK    2  A    between atoms: C_2  and  C_11
REMARK    3  A    between atoms: C_6  and  C_7
REMARK    4  A    between atoms: C_7  and  C_8
REMARK    5  A    between atoms: CA_14  and  C_15
REMARK    6  A    between atoms: C_15  and  OXT_17
REMARK    7  A    between atoms: C_18  and  C_19
REMARK    8  A    between atoms: C_19  and  C_20
REMARK    9  A    between atoms: C_20  and  O_22
REMARK                            x       y       z     vdW  Elec       q    Type
REMARK                         _______ _______ _______ _____ _____    ______ ____
ROOT
ATOM      1  C   UNL     1       3.116   5.084  17.807  0.00  0.00    +0.000 C 
ATOM      2  C   UNL     1       4.006   4.295  16.830  0.00  0.00    +0.000 C 
ATOM      3  N   UNL     1       5.054   3.637  17.631  0.00  0.00    +0.000 NA
ATOM      4  CA  UNL     1       4.455   3.411  18.993  0.00  0.00    +0.000 C 
ATOM      5  C   UNL     1       3.097   4.126  19.018  0.00  0.00    +0.000 C 
ATOM      6  H   UNL     1       5.816   4.304  17.774  0.00  0.00    +0.000 HD
ENDROOT
BRANCH   1   8
ATOM      7  C   UNL     1       4.780   6.994  17.724  0.00  0.00    +0.000 C 
ATOM      8  C   UNL     1       3.545   6.537  18.019  0.00  0.00    +0.000 C 
BRANCH   8   9
ATOM      9  C   UNL     1       2.531   7.520  18.507  0.00  0.00    +0.000 A 
ATOM     10  C   UNL     1       2.113   7.581  19.844  0.00  0.00    +0.000 A 
ATOM     11  C   UNL     1       1.257   8.597  20.292  0.00  0.00    +0.000 A 
ATOM     12  C   UNL     1       0.776   9.567  19.408  0.00  0.00    +0.000 A 
ATOM     13  C   UNL     1       1.129   9.477  18.061  0.00  0.00    +0.000 A 
ATOM     14  C   UNL     1       1.993   8.470  17.622  0.00  0.00    +0.000 A 
BRANCH  12  15
ATOM     15  C   UNL     1      -0.084  10.699  19.900  0.00  0.00    +0.000 C 
ATOM     16  C   UNL     1      -0.726  11.477  18.758  0.00  0.00    +0.000 C 
ENDBRANCH  12  15
ENDBRANCH   8   9
ENDBRANCH   1   8
BRANCH   4  17
ATOM     17  C   UNL     1       4.278   1.891  19.157  0.00  0.00    +0.000 C 
ATOM     18  O   UNL     1       3.452   1.219  18.549  0.00  0.00    +0.000 OA
BRANCH  17  19
ATOM     19  OXT UNL     1       5.171   1.360  20.028  0.00  0.00    +0.000 OA
ATOM     20  HXT UNL     1       4.715   0.586  20.448  0.00  0.00    +0.000 HD
ENDBRANCH  17  19
ENDBRANCH   4  17
BRANCH   5  21
ATOM     21  C   UNL     1       2.591   4.622  20.384  0.00  0.00    +0.000 C 
BRANCH  21  22
ATOM     22  C   UNL     1       1.806   3.664  21.251  0.00  0.00    +0.000 C 
ATOM     23  O   UNL     1       2.203   3.172  22.294  0.00  0.00    +0.000 OA
BRANCH  22  24
ATOM     24  O   UNL     1       0.616   3.316  20.702  0.00  0.00    +0.000 OA
ATOM     25  H   UNL     1       0.389   2.367  20.781  0.00  0.00    +0.000 HD
ENDBRANCH  22  24
ENDBRANCH  21  22
ENDBRANCH   5  21
TORSDOF 8
ENDMDL
MODEL 2
REMARK VINA RESULT:      -7.4      0.686      1.240
REMARK  Name = 
REMARK  9 active torsions:
REMARK  status: ('A' for Active; 'I' for Inactive)
REMARK    1  A    between atoms: C_2  and  C_3
REMARK    2  A    between atoms: C_2  and  C_11
REMARK    3  A    between atoms: C_6  and  C_7
REMARK    4  A    between atoms: C_7  and  C_8
REMARK    5  A    between atoms: CA_14  and  C_15
REMARK    6  A    between atoms: C_15  and  OXT_17
REMARK    7  A    between atoms: C_18  and  C_19
REMARK    8  A    between atoms: C_19  and  C_20
REMARK    9  A    between atoms: C_20  and  O_22
REMARK                            x       y       z     vdW  Elec       q    Type
REMARK                         _______ _______ _______ _____ _____    ______ ____
ROOT
ATOM      1  C   UNL     1       2.804   5.010  17.781  0.00  0.00    +0.000 C 
ATOM      2  C   UNL     1       3.467   4.160  16.683  0.00  0.00    +0.000 C 
ATOM      3  N   UNL     1       4.409   3.243  17.352  0.00  0.00    +0.000 NA
ATOM      4  CA  UNL     1       3.854   3.012  18.732  0.00  0.00    +0.000 C 
ATOM      5  C   UNL     1       2.666   3.968  18.911  0.00  0.00    +0.000 C 
ATOM      6  H   UNL     1       5.293   3.738  17.491  0.00  0.00    +0.000 HD
ENDROOT
BRANCH   1   8
ATOM      7  C   UNL     1       4.849   6.504  17.908  0.00  0.00    +0.000 C 
ATOM      8  C   UNL     1       3.521   6.330  18.075  0.00  0.00    +0.000 C 
BRANCH   8   9
ATOM      9  C   UNL     1       2.706   7.510  18.496  0.00  0.00    +0.000 A 
ATOM     10  C   UNL     1       2.389   8.564  17.627  0.00  0.00    +0.000 A 
ATOM     11  C   UNL     1       1.518   9.591  18.018  0.00  0.00    +0.000 A 
ATOM     12  C   UNL     1       0.959   9.605  19.299  0.00  0.00    +0.000 A 
ATOM     13  C   UNL     1       1.322   8.599  20.196  0.00  0.00    +0.000 A 
ATOM     14  C   UNL     1       2.180   7.572  19.798  0.00  0.00    +0.000 A 
BRANCH  12  15
ATOM     15  C   UNL     1      -0.031  10.666  19.696  0.00  0.00    +0.000 C 
ATOM     16  C   UNL     1       0.495  12.072  19.441  0.00  0.00    +0.000 C 
ENDBRANCH  12  15
ENDBRANCH   8   9
ENDBRANCH   1   8
BRANCH   4  17
ATOM     17  C   UNL     1       3.393   1.546  18.788  0.00  0.00    +0.000 C 
ATOM     18  O   UNL     1       2.228   1.189  18.931  0.00  0.00    +0.000 OA
BRANCH  17  19
ATOM     19  OXT UNL     1       4.420   0.677  18.623  0.00  0.00    +0.000 OA
ATOM     20  HXT UNL     1       4.025  -0.139  18.218  0.00  0.00    +0.000 HD
ENDBRANCH  17  19
ENDBRANCH   4  17
BRANCH   5  21
ATOM     21  C   UNL     1       2.344   4.425  20.346  0.00  0.00    +0.000 C 
BRANCH  21  22
ATOM     22  C   UNL     1       1.673   3.443  21.279  0.00  0.00    +0.000 C 
ATOM     23  O   UNL     1       2.119   3.077  22.354  0.00  0.00    +0.000 OA
BRANCH  22  24
ATOM     24  O   UNL     1       0.538   2.916  20.758  0.00  0.00    +0.000 OA
ATOM     25  H   UNL     1       0.031   2.346  21.370  0.00  0.00    +0.000 HD
ENDBRANCH  22  24
ENDBRANCH  21  22
ENDBRANCH   5  21
TORSDOF 8
ENDMDL
MODEL 3
REMARK VINA RESULT:      -7.4      2.843      6.022
REMARK  Name = 
REMARK  9 active torsions:
REMARK  status: ('A' for Active; 'I' for Inactive)
REMARK    1  A    between atoms: C_2  and  C_3
REMARK    2  A    between atoms: C_2  and  C_11
REMARK    3  A    between atoms: C_6  and  C_7
REMARK    4  A    between atoms: C_7  and  C_8
REMARK    5  A    between atoms: CA_14  and  C_15
REMARK    6  A    between atoms: C_15  and  OXT_17
REMARK    7  A    between atoms: C_18  and  C_19
REMARK    8  A    between atoms: C_19  and  C_20
REMARK    9  A    between atoms: C_20  and  O_22
REMARK                            x       y       z     vdW  Elec       q    Type
REMARK                         _______ _______ _______ _____ _____    ______ ____
ROOT
ATOM      1  C   UNL     1       4.029   3.264  18.509  0.00  0.00    +0.000 C 
ATOM      2  C   UNL     1       4.302   2.229  19.615  0.00  0.00    +0.000 C 
ATOM      3  N   UNL     1       3.783   2.792  20.875  0.00  0.00    +0.000 NA
ATOM      4  CA  UNL     1       2.654   3.709  20.487  0.00  0.00    +0.000 C 
ATOM      5  C   UNL     1       2.654   3.808  18.955  0.00  0.00    +0.000 C 
ATOM      6  H   UNL     1       4.502   3.398  21.277  0.00  0.00    +0.000 HD
ENDROOT
BRANCH   1   8
ATOM      7  C   UNL     1       5.801   4.910  19.270  0.00  0.00    +0.000 C 
ATOM      8  C   UNL     1       5.174   4.251  18.273  0.00  0.00    +0.000 C 
BRANCH   8   9
ATOM      9  C   UNL     1       5.678   4.444  16.879  0.00  0.00    +0.000 A 
ATOM     10  C   UNL     1       6.959   4.938  16.596  0.00  0.00    +0.000 A 
ATOM     11  C   UNL     1       7.445   4.986  15.281  0.00  0.00    +0.000 A 
ATOM     12  C   UNL     1       6.653   4.562  14.211  0.00  0.00    +0.000 A 
ATOM     13  C   UNL     1       5.351   4.133  14.473  0.00  0.00    +0.000 A 
ATOM     14  C   UNL     1       4.876   4.076  15.785  0.00  0.00    +0.000 A 
BRANCH  12  15
ATOM     15  C   UNL     1       7.198   4.545  12.808  0.00  0.00    +0.000 C 
ATOM     16  C   UNL     1       6.569   3.449  11.957  0.00  0.00    +0.000 C 
ENDBRANCH  12  15
ENDBRANCH   8   9
ENDBRANCH   1   8
BRANCH   4  17
ATOM     17  C   UNL     1       1.355   3.057  20.994  0.00  0.00    +0.000 C 
ATOM     18  O   UNL     1       1.194   2.623  22.130  0.00  0.00    +0.000 OA
BRANCH  17  19
ATOM     19  OXT UNL     1       0.381   3.049  20.051  0.00  0.00    +0.000 OA
ATOM     20  HXT UNL     1      -0.255   3.765  20.311  0.00  0.00    +0.000 HD
ENDBRANCH  17  19
ENDBRANCH   4  17
BRANCH   5  21
ATOM     21  C   UNL     1       2.102   5.105  18.336  0.00  0.00    +0.000 C 
BRANCH  21  22
ATOM     22  C   UNL     1       2.551   6.427  18.917  0.00  0.00    +0.000 C 
ATOM     23  O   UNL     1       2.203   6.876  19.996  0.00  0.00    +0.000 OA
BRANCH  22  24
ATOM     24  O   UNL     1       3.329   7.136  18.064  0.00  0.00    +0.000 OA
ATOM     25  H   UNL     1       3.225   8.107  18.123  0.00  0.00    +0.000 HD
ENDBRANCH  22  24
ENDBRANCH  21  22
ENDBRANCH   5  21
TORSDOF 8
ENDMDL
MODEL 4
REMARK VINA RESULT:      -7.3      2.003      3.169
REMARK  Name = 
REMARK  9 active torsions:
REMARK  status: ('A' for Active; 'I' for Inactive)
REMARK    1  A    between atoms: C_2  and  C_3
REMARK    2  A    between atoms: C_2  and  C_11
REMARK    3  A    between atoms: C_6  and  C_7
REMARK    4  A    between atoms: C_7  and  C_8
REMARK    5  A    between atoms: CA_14  and  C_15
REMARK    6  A    between atoms: C_15  and  OXT_17
REMARK    7  A    between atoms: C_18  and  C_19
REMARK    8  A    between atoms: C_19  and  C_20
REMARK    9  A    between atoms: C_20  and  O_22
REMARK                            x       y       z     vdW  Elec       q    Type
REMARK                         _______ _______ _______ _____ _____    ______ ____
ROOT
ATOM      1  C   UNL     1       4.011   4.699  17.425  0.00  0.00    +0.000 C 
ATOM      2  C   UNL     1       4.810   5.844  16.780  0.00  0.00    +0.000 C 
ATOM      3  N   UNL     1       5.496   6.564  17.869  0.00  0.00    +0.000 NA
ATOM      4  CA  UNL     1       5.719   5.552  18.960  0.00  0.00    +0.000 C 
ATOM      5  C   UNL     1       4.977   4.271  18.552  0.00  0.00    +0.000 C 
ATOM      6  H   UNL     1       4.845   7.250  18.261  0.00  0.00    +0.000 HD
ENDROOT
BRANCH   1   8
ATOM      7  C   UNL     1       1.529   4.218  17.606  0.00  0.00    +0.000 C 
ATOM      8  C   UNL     1       2.569   5.060  17.785  0.00  0.00    +0.000 C 
BRANCH   8   9
ATOM      9  C   UNL     1       2.300   6.379  18.435  0.00  0.00    +0.000 A 
ATOM     10  C   UNL     1       2.125   7.564  17.706  0.00  0.00    +0.000 A 
ATOM     11  C   UNL     1       1.748   8.757  18.339  0.00  0.00    +0.000 A 
ATOM     12  C   UNL     1       1.561   8.803  19.723  0.00  0.00    +0.000 A 
ATOM     13  C   UNL     1       1.800   7.647  20.468  0.00  0.00    +0.000 A 
ATOM     14  C   UNL     1       2.162   6.458  19.831  0.00  0.00    +0.000 A 
BRANCH  12  15
ATOM     15  C   UNL     1       1.088  10.064  20.395  0.00  0.00    +0.000 C 
ATOM     16  C   UNL     1       0.744  11.159  19.393  0.00  0.00    +0.000 C 
ENDBRANCH  12  15
ENDBRANCH   8   9
ENDBRANCH   1   8
BRANCH   4  17
ATOM     17  C   UNL     1       7.236   5.306  19.037  0.00  0.00    +0.000 C 
ATOM     18  O   UNL     1       7.931   4.954  18.090  0.00  0.00    +0.000 OA
BRANCH  17  19
ATOM     19  OXT UNL     1       7.737   5.561  20.270  0.00  0.00    +0.000 OA
ATOM     20  HXT UNL     1       7.330   6.419  20.558  0.00  0.00    +0.000 HD
ENDBRANCH  17  19
ENDBRANCH   4  17
BRANCH   5  21
ATOM     21  C   UNL     1       4.481   3.357  19.686  0.00  0.00    +0.000 C 
BRANCH  21  22
ATOM     22  C   UNL     1       4.349   1.876  19.410  0.00  0.00    +0.000 C 
ATOM     23  O   UNL     1       3.498   1.365  18.702  0.00  0.00    +0.000 OA
BRANCH  22  24
ATOM     24  O   UNL     1       5.234   1.131  20.116  0.00  0.00    +0.000 OA
ATOM     25  H   UNL     1       4.839   0.391  20.620  0.00  0.00    +0.000 HD
ENDBRANCH  22  24
ENDBRANCH  21  22
ENDBRANCH   5  21
TORSDOF 8
ENDMDL
MODEL 5
REMARK VINA RESULT:      -7.3      2.857      6.033
REMARK  Name = 
REMARK  9 active torsions:
REMARK  status: ('A' for Active; 'I' for Inactive)
REMARK    1  A    between atoms: C_2  and  C_3
REMARK    2  A    between atoms: C_2  and  C_11
REMARK    3  A    between atoms: C_6  and  C_7
REMARK    4  A    between atoms: C_7  and  C_8
REMARK    5  A    between atoms: CA_14  and  C_15
REMARK    6  A    between atoms: C_15  and  OXT_17
REMARK    7  A    between atoms: C_18  and  C_19
REMARK    8  A    between atoms: C_19  and  C_20
REMARK    9  A    between atoms: C_20  and  O_22
REMARK                            x       y       z     vdW  Elec       q    Type
REMARK                         _______ _______ _______ _____ _____    ______ ____
ROOT
ATOM      1  C   UNL     1       3.990   3.240  18.538  0.00  0.00    +0.000 C 
ATOM      2  C   UNL     1       4.285   2.196  19.629  0.00  0.00    +0.000 C 
ATOM      3  N   UNL     1       3.800   2.754  20.906  0.00  0.00    +0.000 NA
ATOM      4  CA  UNL     1       2.667   3.679  20.552  0.00  0.00    +0.000 C 
ATOM      5  C   UNL     1       2.629   3.788  19.021  0.00  0.00    +0.000 C 
ATOM      6  H   UNL     1       4.533   3.354  21.293  0.00  0.00    +0.000 HD
ENDROOT
BRANCH   1   8
ATOM      7  C   UNL     1       5.690   4.982  19.246  0.00  0.00    +0.000 C 
ATOM      8  C   UNL     1       5.133   4.223  18.279  0.00  0.00    +0.000 C 
BRANCH   8   9
ATOM      9  C   UNL     1       5.718   4.297  16.905  0.00  0.00    +0.000 A 
ATOM     10  C   UNL     1       4.987   3.985  15.750  0.00  0.00    +0.000 A 
ATOM     11  C   UNL     1       5.528   4.188  14.472  0.00  0.00    +0.000 A 
ATOM     12  C   UNL     1       6.824   4.685  14.315  0.00  0.00    +0.000 A 
ATOM     13  C   UNL     1       7.587   4.933  15.457  0.00  0.00    +0.000 A 
ATOM     14  C   UNL     1       7.040   4.742  16.728  0.00  0.00    +0.000 A 
BRANCH  12  15
ATOM     15  C   UNL     1       7.379   4.971  12.946  0.00  0.00    +0.000 C 
ATOM     16  C   UNL     1       6.975   3.914  11.926  0.00  0.00    +0.000 C 
ENDBRANCH  12  15
ENDBRANCH   8   9
ENDBRANCH   1   8
BRANCH   4  17
ATOM     17  C   UNL     1       1.378   3.030  21.087  0.00  0.00    +0.000 C 
ATOM     18  O   UNL     1       1.284   2.466  22.172  0.00  0.00    +0.000 OA
BRANCH  17  19
ATOM     19  OXT UNL     1       0.333   3.186  20.238  0.00  0.00    +0.000 OA
ATOM     20  HXT UNL     1       0.061   2.270  19.969  0.00  0.00    +0.000 HD
ENDBRANCH  17  19
ENDBRANCH   4  17
BRANCH   5  21
ATOM     21  C   UNL     1       2.069   5.092  18.425  0.00  0.00    +0.000 C 
BRANCH  21  22
ATOM     22  C   UNL     1       2.418   6.399  19.098  0.00  0.00    +0.000 C 
ATOM     23  O   UNL     1       2.008   6.761  20.189  0.00  0.00    +0.000 OA
BRANCH  22  24
ATOM     24  O   UNL     1       3.181   7.203  18.317  0.00  0.00    +0.000 OA
ATOM     25  H   UNL     1       2.902   7.250  17.381  0.00  0.00    +0.000 HD
ENDBRANCH  22  24
ENDBRANCH  21  22
ENDBRANCH   5  21
TORSDOF 8
ENDMDL
MODEL 6
REMARK VINA RESULT:      -7.2      2.057      3.145
REMARK  Name = 
REMARK  9 active torsions:
REMARK  status: ('A' for Active; 'I' for Inactive)
REMARK    1  A    between atoms: C_2  and  C_3
REMARK    2  A    between atoms: C_2  and  C_11
REMARK    3  A    between atoms: C_6  and  C_7
REMARK    4  A    between atoms: C_7  and  C_8
REMARK    5  A    between atoms: CA_14  and  C_15
REMARK    6  A    between atoms: C_15  and  OXT_17
REMARK    7  A    between atoms: C_18  and  C_19
REMARK    8  A    between atoms: C_19  and  C_20
REMARK    9  A    between atoms: C_20  and  O_22
REMARK                            x       y       z     vdW  Elec       q    Type
REMARK                         _______ _______ _______ _____ _____    ______ ____
ROOT
ATOM      1  C   UNL     1       2.796   5.629  19.881  0.00  0.00    +0.000 C 
ATOM      2  C   UNL     1       1.674   4.597  19.672  0.00  0.00    +0.000 C 
ATOM      3  N   UNL     1       2.048   3.778  18.504  0.00  0.00    +0.000 NA
ATOM      4  CA  UNL     1       3.552   3.786  18.456  0.00  0.00    +0.000 C 
ATOM      5  C   UNL     1       4.036   4.786  19.516  0.00  0.00    +0.000 C 
ATOM      6  H   UNL     1       1.744   4.268  17.658  0.00  0.00    +0.000 HD
ENDROOT
BRANCH   1   8
ATOM      7  C   UNL     1       3.044   7.226  17.928  0.00  0.00    +0.000 C 
ATOM      8  C   UNL     1       2.570   6.961  19.163  0.00  0.00    +0.000 C 
BRANCH   8   9
ATOM      9  C   UNL     1       1.720   7.998  19.825  0.00  0.00    +0.000 A 
ATOM     10  C   UNL     1       1.288   7.890  21.155  0.00  0.00    +0.000 A 
ATOM     11  C   UNL     1       0.601   8.939  21.782  0.00  0.00    +0.000 A 
ATOM     12  C   UNL     1       0.304  10.115  21.087  0.00  0.00    +0.000 A 
ATOM     13  C   UNL     1       0.666  10.206  19.742  0.00  0.00    +0.000 A 
ATOM     14  C   UNL     1       1.363   9.163  19.126  0.00  0.00    +0.000 A 
BRANCH  12  15
ATOM     15  C   UNL     1      -0.370  11.269  21.779  0.00  0.00    +0.000 C 
ATOM     16  C   UNL     1      -1.067  10.845  23.066  0.00  0.00    +0.000 C 
ENDBRANCH  12  15
ENDBRANCH   8   9
ENDBRANCH   1   8
BRANCH   4  17
ATOM     17  C   UNL     1       4.016   2.359  18.795  0.00  0.00    +0.000 C 
ATOM     18  O   UNL     1       3.586   1.343  18.259  0.00  0.00    +0.000 OA
BRANCH  17  19
ATOM     19  OXT UNL     1       4.993   2.345  19.736  0.00  0.00    +0.000 OA
ATOM     20  HXT UNL     1       4.600   1.897  20.530  0.00  0.00    +0.000 HD
ENDBRANCH  17  19
ENDBRANCH   4  17
BRANCH   5  21
ATOM     21  C   UNL     1       5.389   5.475  19.263  0.00  0.00    +0.000 C 
BRANCH  21  22
ATOM     22  C   UNL     1       6.158   5.113  18.013  0.00  0.00    +0.000 C 
ATOM     23  O   UNL     1       5.972   5.595  16.908  0.00  0.00    +0.000 OA
BRANCH  22  24
ATOM     24  O   UNL     1       7.041   4.104  18.214  0.00  0.00    +0.000 OA
ATOM     25  H   UNL     1       6.638   3.216  18.294  0.00  0.00    +0.000 HD
ENDBRANCH  22  24
ENDBRANCH  21  22
ENDBRANCH   5  21
TORSDOF 8
ENDMDL
MODEL 7
REMARK VINA RESULT:      -7.2      2.036      3.002
REMARK  Name = 
REMARK  9 active torsions:
REMARK  status: ('A' for Active; 'I' for Inactive)
REMARK    1  A    between atoms: C_2  and  C_3
REMARK    2  A    between atoms: C_2  and  C_11
REMARK    3  A    between atoms: C_6  and  C_7
REMARK    4  A    between atoms: C_7  and  C_8
REMARK    5  A    between atoms: CA_14  and  C_15
REMARK    6  A    between atoms: C_15  and  OXT_17
REMARK    7  A    between atoms: C_18  and  C_19
REMARK    8  A    between atoms: C_19  and  C_20
REMARK    9  A    between atoms: C_20  and  O_22
REMARK                            x       y       z     vdW  Elec       q    Type
REMARK                         _______ _______ _______ _____ _____    ______ ____
ROOT
ATOM      1  C   UNL     1       3.809   5.498  19.507  0.00  0.00    +0.000 C 
ATOM      2  C   UNL     1       2.610   4.628  19.926  0.00  0.00    +0.000 C 
ATOM      3  N   UNL     1       2.609   3.439  19.054  0.00  0.00    +0.000 NA
ATOM      4  CA  UNL     1       4.044   3.211  18.662  0.00  0.00    +0.000 C 
ATOM      5  C   UNL     1       4.853   4.411  19.176  0.00  0.00    +0.000 C 
ATOM      6  H   UNL     1       2.123   3.678  18.186  0.00  0.00    +0.000 HD
ENDROOT
BRANCH   1   8
ATOM      7  C   UNL     1       4.023   6.560  17.215  0.00  0.00    +0.000 C 
ATOM      8  C   UNL     1       3.482   6.556  18.452  0.00  0.00    +0.000 C 
BRANCH   8   9
ATOM      9  C   UNL     1       2.458   7.597  18.773  0.00  0.00    +0.000 A 
ATOM     10  C   UNL     1       1.956   7.796  20.067  0.00  0.00    +0.000 A 
ATOM     11  C   UNL     1       1.093   8.863  20.355  0.00  0.00    +0.000 A 
ATOM     12  C   UNL     1       0.689   9.746  19.350  0.00  0.00    +0.000 A 
ATOM     13  C   UNL     1       1.126   9.518  18.044  0.00  0.00    +0.000 A 
ATOM     14  C   UNL     1       1.996   8.461  17.765  0.00  0.00    +0.000 A 
BRANCH  12  15
ATOM     15  C   UNL     1      -0.179  10.933  19.671  0.00  0.00    +0.000 C 
ATOM     16  C   UNL     1       0.501  12.254  19.334  0.00  0.00    +0.000 C 
ENDBRANCH  12  15
ENDBRANCH   8   9
ENDBRANCH   1   8
BRANCH   4  17
ATOM     17  C   UNL     1       4.494   1.910  19.349  0.00  0.00    +0.000 C 
ATOM     18  O   UNL     1       4.993   1.853  20.468  0.00  0.00    +0.000 OA
BRANCH  17  19
ATOM     19  OXT UNL     1       4.240   0.814  18.593  0.00  0.00    +0.000 OA
ATOM     20  HXT UNL     1       4.871   0.859  17.828  0.00  0.00    +0.000 HD
ENDBRANCH  17  19
ENDBRANCH   4  17
BRANCH   5  21
ATOM     21  C   UNL     1       6.130   4.780  18.400  0.00  0.00    +0.000 C 
BRANCH  21  22
ATOM     22  C   UNL     1       7.198   5.579  19.112  0.00  0.00    +0.000 C 
ATOM     23  O   UNL     1       7.560   5.402  20.263  0.00  0.00    +0.000 OA
BRANCH  22  24
ATOM     24  O   UNL     1       7.671   6.605  18.363  0.00  0.00    +0.000 OA
ATOM     25  H   UNL     1       8.639   6.736  18.408  0.00  0.00    +0.000 HD
ENDBRANCH  22  24
ENDBRANCH  21  22
ENDBRANCH   5  21
TORSDOF 8
ENDMDL
MODEL 8
REMARK VINA RESULT:      -7.2      1.898      3.258
REMARK  Name = 
REMARK  9 active torsions:
REMARK  status: ('A' for Active; 'I' for Inactive)
REMARK    1  A    between atoms: C_2  and  C_3
REMARK    2  A    between atoms: C_2  and  C_11
REMARK    3  A    between atoms: C_6  and  C_7
REMARK    4  A    between atoms: C_7  and  C_8
REMARK    5  A    between atoms: CA_14  and  C_15
REMARK    6  A    between atoms: C_15  and  OXT_17
REMARK    7  A    between atoms: C_18  and  C_19
REMARK    8  A    between atoms: C_19  and  C_20
REMARK    9  A    between atoms: C_20  and  O_22
REMARK                            x       y       z     vdW  Elec       q    Type
REMARK                         _______ _______ _______ _____ _____    ______ ____
ROOT
ATOM      1  C   UNL     1       3.199   4.858  19.937  0.00  0.00    +0.000 C 
ATOM      2  C   UNL     1       2.364   3.844  20.738  0.00  0.00    +0.000 C 
ATOM      3  N   UNL     1       2.521   2.533  20.079  0.00  0.00    +0.000 NA
ATOM      4  CA  UNL     1       3.874   2.561  19.419  0.00  0.00    +0.000 C 
ATOM      5  C   UNL     1       4.417   3.990  19.553  0.00  0.00    +0.000 C 
ATOM      6  H   UNL     1       1.844   2.475  19.315  0.00  0.00    +0.000 HD
ENDROOT
BRANCH   1   8
ATOM      7  C   UNL     1       1.946   4.953  17.735  0.00  0.00    +0.000 C 
ATOM      8  C   UNL     1       2.426   5.578  18.831  0.00  0.00    +0.000 C 
BRANCH   8   9
ATOM      9  C   UNL     1       2.118   7.031  19.001  0.00  0.00    +0.000 A 
ATOM     10  C   UNL     1       2.200   7.954  17.948  0.00  0.00    +0.000 A 
ATOM     11  C   UNL     1       1.781   9.281  18.112  0.00  0.00    +0.000 A 
ATOM     12  C   UNL     1       1.291   9.730  19.342  0.00  0.00    +0.000 A 
ATOM     13  C   UNL     1       1.270   8.839  20.417  0.00  0.00    +0.000 A 
ATOM     14  C   UNL     1       1.676   7.514  20.245  0.00  0.00    +0.000 A 
BRANCH  12  15
ATOM     15  C   UNL     1       0.775  11.134  19.500  0.00  0.00    +0.000 C 
ATOM     16  C   UNL     1      -0.644  11.169  20.055  0.00  0.00    +0.000 C 
ENDBRANCH  12  15
ENDBRANCH   8   9
ENDBRANCH   1   8
BRANCH   4  17
ATOM     17  C   UNL     1       4.762   1.562  20.181  0.00  0.00    +0.000 C 
ATOM     18  O   UNL     1       5.204   1.746  21.310  0.00  0.00    +0.000 OA
BRANCH  17  19
ATOM     19  OXT UNL     1       4.977   0.423  19.477  0.00  0.00    +0.000 OA
ATOM     20  HXT UNL     1       5.774  -0.004  19.885  0.00  0.00    +0.000 HD
ENDBRANCH  17  19
ENDBRANCH   4  17
BRANCH   5  21
ATOM     21  C   UNL     1       5.395   4.473  18.467  0.00  0.00    +0.000 C 
BRANCH  21  22
ATOM     22  C   UNL     1       6.823   4.770  18.865  0.00  0.00    +0.000 C 
ATOM     23  O   UNL     1       7.160   5.435  19.831  0.00  0.00    +0.000 OA
BRANCH  22  24
ATOM     24  O   UNL     1       7.725   4.295  17.973  0.00  0.00    +0.000 OA
ATOM     25  H   UNL     1       7.337   3.900  17.166  0.00  0.00    +0.000 HD
ENDBRANCH  22  24
ENDBRANCH  21  22
ENDBRANCH   5  21
TORSDOF 8
ENDMDL
MODEL 9
REMARK VINA RESULT:      -7.1      2.024      3.373
REMARK  Name = 
REMARK  9 active torsions:
REMARK  status: ('A' for Active; 'I' for Inactive)
REMARK    1  A    between atoms: C_2  and  C_3
REMARK    2  A    between atoms: C_2  and  C_11
REMARK    3  A    between atoms: C_6  and  C_7
REMARK    4  A    between atoms: C_7  and  C_8
REMARK    5  A    between atoms: CA_14  and  C_15
REMARK    6  A    between atoms: C_15  and  OXT_17
REMARK    7  A    between atoms: C_18  and  C_19
REMARK    8  A    between atoms: C_19  and  C_20
REMARK    9  A    between atoms: C_20  and  O_22
REMARK                            x       y       z     vdW  Elec       q    Type
REMARK                         _______ _______ _______ _____ _____    ______ ____
ROOT
ATOM      1  C   UNL     1       2.728   5.584  20.025  0.00  0.00    +0.000 C 
ATOM      2  C   UNL     1       1.624   4.512  20.022  0.00  0.00    +0.000 C 
ATOM      3  N   UNL     1       1.926   3.581  18.919  0.00  0.00    +0.000 NA
ATOM      4  CA  UNL     1       3.420   3.614  18.744  0.00  0.00    +0.000 C 
ATOM      5  C   UNL     1       3.960   4.732  19.648  0.00  0.00    +0.000 C 
ATOM      6  H   UNL     1       1.540   3.970  18.055  0.00  0.00    +0.000 HD
ENDROOT
BRANCH   1   8
ATOM      7  C   UNL     1       2.593   6.893  17.858  0.00  0.00    +0.000 C 
ATOM      8  C   UNL     1       2.405   6.826  19.193  0.00  0.00    +0.000 C 
BRANCH   8   9
ATOM      9  C   UNL     1       1.780   8.002  19.873  0.00  0.00    +0.000 A 
ATOM     10  C   UNL     1       1.427   9.175  19.190  0.00  0.00    +0.000 A 
ATOM     11  C   UNL     1       0.728  10.206  19.833  0.00  0.00    +0.000 A 
ATOM     12  C   UNL     1       0.385  10.103  21.184  0.00  0.00    +0.000 A 
ATOM     13  C   UNL     1       0.792   8.971  21.892  0.00  0.00    +0.000 A 
ATOM     14  C   UNL     1       1.477   7.941  21.243  0.00  0.00    +0.000 A 
BRANCH  12  15
ATOM     15  C   UNL     1      -0.428  11.177  21.856  0.00  0.00    +0.000 C 
ATOM     16  C   UNL     1      -1.111  10.676  23.123  0.00  0.00    +0.000 C 
ENDBRANCH  12  15
ENDBRANCH   8   9
ENDBRANCH   1   8
BRANCH   4  17
ATOM     17  C   UNL     1       3.953   2.242  19.191  0.00  0.00    +0.000 C 
ATOM     18  O   UNL     1       4.754   2.072  20.104  0.00  0.00    +0.000 OA
BRANCH  17  19
ATOM     19  OXT UNL     1       3.406   1.223  18.484  0.00  0.00    +0.000 OA
ATOM     20  HXT UNL     1       3.998   0.440  18.630  0.00  0.00    +0.000 HD
ENDBRANCH  17  19
ENDBRANCH   4  17
BRANCH   5  21
ATOM     21  C   UNL     1       5.266   5.418  19.211  0.00  0.00    +0.000 C 
BRANCH  21  22
ATOM     22  C   UNL     1       5.920   4.966  17.926  0.00  0.00    +0.000 C 
ATOM     23  O   UNL     1       5.621   5.355  16.809  0.00  0.00    +0.000 OA
BRANCH  22  24
ATOM     24  O   UNL     1       6.839   3.989  18.121  0.00  0.00    +0.000 OA
ATOM     25  H   UNL     1       6.506   3.201  18.597  0.00  0.00    +0.000 HD
ENDBRANCH  22  24
ENDBRANCH  21  22
ENDBRANCH   5  21
TORSDOF 8
ENDMDL
