MODEL 1
REMARK VINA RESULT:      -8.0      0.000      0.000
REMARK  Name = 
REMARK  8 active torsions:
REMARK  status: ('A' for Active; 'I' for Inactive)
REMARK    1  A    between atoms: C_2  and  O_3
REMARK    2  A    between atoms: C_2  and  C_4
REMARK    3  A    between atoms: C_4  and  N_5
REMARK    4  A    between atoms: C_6  and  C_8
REMARK    5  A    between atoms: C_9  and  O_10
REMARK    6  A    between atoms: N_13  and  C_14
REMARK    7  A    between atoms: C_14  and  C_15
REMARK    8  A    between atoms: C_18  and  C_19
REMARK                            x       y       z     vdW  Elec       q    Type
REMARK                         _______ _______ _______ _____ _____    ______ ____
ROOT
ATOM      1  C   UNL     1       2.928   6.516  19.187  0.00  0.00    +0.000 A 
ATOM      2  C   UNL     1       2.472   5.454  19.885  0.00  0.00    +0.000 A 
ATOM      3  C   UNL     1       3.200   4.225  19.861  0.00  0.00    +0.000 A 
ATOM      4  C   UNL     1       4.371   4.125  19.245  0.00  0.00    +0.000 A 
ATOM      5  N   UNL     1       4.921   5.182  18.546  0.00  0.00    +0.000 N 
ATOM      6  C   UNL     1       4.211   6.377  18.405  0.00  0.00    +0.000 A 
ATOM      7  O   UNL     1       4.567   7.297  17.664  0.00  0.00    +0.000 OA
ATOM      8  C   UNL     1       4.892   2.743  19.365  0.00  0.00    +0.000 C 
ATOM      9  O   UNL     1       3.986   2.083  20.279  0.00  0.00    +0.000 OA
ATOM     10  C   UNL     1       2.815   2.922  20.440  0.00  0.00    +0.000 C 
ENDROOT
BRANCH   1  12
ATOM     11  N   UNL     1       2.005   8.434  18.009  0.00  0.00    +0.000 N 
ATOM     12  C   UNL     1       2.131   7.776  19.205  0.00  0.00    +0.000 C 
ATOM     13  O   UNL     1       1.609   8.182  20.242  0.00  0.00    +0.000 OA
ATOM     14  H   UNL     1       2.431   8.018  17.175  0.00  0.00    +0.000 HD
BRANCH  11  15
ATOM     15  C   UNL     1       1.099   9.564  17.832  0.00  0.00    +0.000 C 
BRANCH  15  17
ATOM     16  O   UNL     1       1.538  11.455  19.290  0.00  0.00    +0.000 OA
ATOM     17  C   UNL     1       1.739  10.892  18.224  0.00  0.00    +0.000 C 
BRANCH  17  18
ATOM     18  O   UNL     1       2.535  11.417  17.261  0.00  0.00    +0.000 OA
ATOM     19  H   UNL     1       3.475  11.284  17.497  0.00  0.00    +0.000 HD
ENDBRANCH  17  18
ENDBRANCH  15  17
ENDBRANCH  11  15
ENDBRANCH   1  12
BRANCH   2  20
ATOM     20  O   UNL     1       1.326   5.417  20.649  0.00  0.00    +0.000 OA
ATOM     21  H   UNL     1       0.564   5.683  20.084  0.00  0.00    +0.000 HD
ENDBRANCH   2  20
BRANCH   5  22
ATOM     22  C   UNL     1       6.213   5.050  17.865  0.00  0.00    +0.000 C 
BRANCH  22  23
ATOM     23  C   UNL     1       6.138   4.831  16.360  0.00  0.00    +0.000 A 
ATOM     24  N   UNL     1       7.158   5.311  15.618  0.00  0.00    +0.000 NA
ATOM     25  C   UNL     1       7.196   4.945  14.318  0.00  0.00    +0.000 A 
ATOM     26  C   UNL     1       6.267   4.124  13.727  0.00  0.00    +0.000 A 
ATOM     27  C   UNL     1       5.241   3.718  14.553  0.00  0.00    +0.000 A 
ATOM     28  N   UNL     1       5.154   4.055  15.862  0.00  0.00    +0.000 NA
BRANCH  26  29
ATOM     29  C   UNL     1       6.369   3.677  12.314  0.00  0.00    +0.000 C 
ATOM     30  F   UNL     1       6.839   2.405  12.185  0.00  0.00    +0.000 F 
ATOM     31  F   UNL     1       5.168   3.692  11.675  0.00  0.00    +0.000 F 
ATOM     32  F   UNL     1       7.197   4.458  11.571  0.00  0.00    +0.000 F 
ENDBRANCH  26  29
ENDBRANCH  22  23
ENDBRANCH   5  22
TORSDOF 8
ENDMDL
MODEL 2
REMARK VINA RESULT:      -7.8      1.235      1.569
REMARK  Name = 
REMARK  8 active torsions:
REMARK  status: ('A' for Active; 'I' for Inactive)
REMARK    1  A    between atoms: C_2  and  O_3
REMARK    2  A    between atoms: C_2  and  C_4
REMARK    3  A    between atoms: C_4  and  N_5
REMARK    4  A    between atoms: C_6  and  C_8
REMARK    5  A    between atoms: C_9  and  O_10
REMARK    6  A    between atoms: N_13  and  C_14
REMARK    7  A    between atoms: C_14  and  C_15
REMARK    8  A    between atoms: C_18  and  C_19
REMARK                            x       y       z     vdW  Elec       q    Type
REMARK                         _______ _______ _______ _____ _____    ______ ____
ROOT
ATOM      1  C   UNL     1       2.927   6.500  19.006  0.00  0.00    +0.000 A 
ATOM      2  C   UNL     1       2.495   5.475  19.771  0.00  0.00    +0.000 A 
ATOM      3  C   UNL     1       3.252   4.265  19.830  0.00  0.00    +0.000 A 
ATOM      4  C   UNL     1       4.426   4.153  19.223  0.00  0.00    +0.000 A 
ATOM      5  N   UNL     1       4.953   5.173  18.456  0.00  0.00    +0.000 N 
ATOM      6  C   UNL     1       4.215   6.340  18.235  0.00  0.00    +0.000 A 
ATOM      7  O   UNL     1       4.552   7.217  17.435  0.00  0.00    +0.000 OA
ATOM      8  C   UNL     1       4.980   2.794  19.435  0.00  0.00    +0.000 C 
ATOM      9  O   UNL     1       4.087   2.176  20.389  0.00  0.00    +0.000 OA
ATOM     10  C   UNL     1       2.897   2.995  20.493  0.00  0.00    +0.000 C 
ENDROOT
BRANCH   1  12
ATOM     11  N   UNL     1       1.636   8.226  20.134  0.00  0.00    +0.000 N 
ATOM     12  C   UNL     1       2.100   7.739  18.939  0.00  0.00    +0.000 C 
ATOM     13  O   UNL     1       1.869   8.290  17.865  0.00  0.00    +0.000 OA
ATOM     14  H   UNL     1       1.902   7.741  20.996  0.00  0.00    +0.000 HD
BRANCH  11  15
ATOM     15  C   UNL     1       0.986   9.527  20.245  0.00  0.00    +0.000 C 
BRANCH  15  17
ATOM     16  O   UNL     1       0.441  11.096  22.016  0.00  0.00    +0.000 OA
ATOM     17  C   UNL     1       1.006  10.069  21.671  0.00  0.00    +0.000 C 
BRANCH  17  18
ATOM     18  O   UNL     1       1.742   9.319  22.527  0.00  0.00    +0.000 OA
ATOM     19  H   UNL     1       1.413   8.398  22.529  0.00  0.00    +0.000 HD
ENDBRANCH  17  18
ENDBRANCH  15  17
ENDBRANCH  11  15
ENDBRANCH   1  12
BRANCH   2  20
ATOM     20  O   UNL     1       1.348   5.462  20.535  0.00  0.00    +0.000 OA
ATOM     21  H   UNL     1       0.598   5.775  19.979  0.00  0.00    +0.000 HD
ENDBRANCH   2  20
BRANCH   5  22
ATOM     22  C   UNL     1       6.250   5.028  17.787  0.00  0.00    +0.000 C 
BRANCH  22  23
ATOM     23  C   UNL     1       6.186   4.820  16.279  0.00  0.00    +0.000 A 
ATOM     24  N   UNL     1       7.196   5.333  15.545  0.00  0.00    +0.000 NA
ATOM     25  C   UNL     1       7.248   4.979  14.243  0.00  0.00    +0.000 A 
ATOM     26  C   UNL     1       6.343   4.139  13.641  0.00  0.00    +0.000 A 
ATOM     27  C   UNL     1       5.326   3.700  14.460  0.00  0.00    +0.000 A 
ATOM     28  N   UNL     1       5.224   4.023  15.771  0.00  0.00    +0.000 NA
BRANCH  26  29
ATOM     29  C   UNL     1       6.463   3.707  12.225  0.00  0.00    +0.000 C 
ATOM     30  F   UNL     1       7.002   2.464  12.085  0.00  0.00    +0.000 F 
ATOM     31  F   UNL     1       5.259   3.659  11.592  0.00  0.00    +0.000 F 
ATOM     32  F   UNL     1       7.242   4.537  11.482  0.00  0.00    +0.000 F 
ENDBRANCH  26  29
ENDBRANCH  22  23
ENDBRANCH   5  22
TORSDOF 8
ENDMDL
MODEL 3
REMARK VINA RESULT:      -7.6      1.156      1.680
REMARK  Name = 
REMARK  8 active torsions:
REMARK  status: ('A' for Active; 'I' for Inactive)
REMARK    1  A    between atoms: C_2  and  O_3
REMARK    2  A    between atoms: C_2  and  C_4
REMARK    3  A    between atoms: C_4  and  N_5
REMARK    4  A    between atoms: C_6  and  C_8
REMARK    5  A    between atoms: C_9  and  O_10
REMARK    6  A    between atoms: N_13  and  C_14
REMARK    7  A    between atoms: C_14  and  C_15
REMARK    8  A    between atoms: C_18  and  C_19
REMARK                            x       y       z     vdW  Elec       q    Type
REMARK                         _______ _______ _______ _____ _____    ______ ____
ROOT
ATOM      1  C   UNL     1       3.111   6.853  18.541  0.00  0.00    +0.000 A 
ATOM      2  C   UNL     1       2.526   5.924  19.328  0.00  0.00    +0.000 A 
ATOM      3  C   UNL     1       3.191   4.686  19.579  0.00  0.00    +0.000 A 
ATOM      4  C   UNL     1       4.419   4.457  19.133  0.00  0.00    +0.000 A 
ATOM      5  N   UNL     1       5.099   5.375  18.357  0.00  0.00    +0.000 N 
ATOM      6  C   UNL     1       4.469   6.555  17.952  0.00  0.00    +0.000 A 
ATOM      7  O   UNL     1       4.954   7.338  17.131  0.00  0.00    +0.000 OA
ATOM      8  C   UNL     1       4.855   3.094  19.523  0.00  0.00    +0.000 C 
ATOM      9  O   UNL     1       3.818   2.612  20.406  0.00  0.00    +0.000 OA
ATOM     10  C   UNL     1       2.678   3.500  20.294  0.00  0.00    +0.000 C 
ENDROOT
BRANCH   1  12
ATOM     11  N   UNL     1       1.825   8.749  19.358  0.00  0.00    +0.000 N 
ATOM     12  C   UNL     1       2.380   8.123  18.271  0.00  0.00    +0.000 C 
ATOM     13  O   UNL     1       2.300   8.580  17.133  0.00  0.00    +0.000 OA
ATOM     14  H   UNL     1       1.966   8.335  20.284  0.00  0.00    +0.000 HD
BRANCH  11  15
ATOM     15  C   UNL     1       1.255  10.089  19.279  0.00  0.00    +0.000 C 
BRANCH  15  17
ATOM     16  O   UNL     1      -1.140  10.071  19.677  0.00  0.00    +0.000 OA
ATOM     17  C   UNL     1      -0.216  10.074  18.877  0.00  0.00    +0.000 C 
BRANCH  17  18
ATOM     18  O   UNL     1      -0.414  10.032  17.537  0.00  0.00    +0.000 OA
ATOM     19  H   UNL     1      -1.009  10.759  17.265  0.00  0.00    +0.000 HD
ENDBRANCH  17  18
ENDBRANCH  15  17
ENDBRANCH  11  15
ENDBRANCH   1  12
BRANCH   2  20
ATOM     20  O   UNL     1       1.298   6.041  19.942  0.00  0.00    +0.000 OA
ATOM     21  H   UNL     1       0.862   6.862  19.616  0.00  0.00    +0.000 HD
ENDBRANCH   2  20
BRANCH   5  22
ATOM     22  C   UNL     1       6.454   5.101  17.868  0.00  0.00    +0.000 C 
BRANCH  22  23
ATOM     23  C   UNL     1       6.540   4.601  16.432  0.00  0.00    +0.000 A 
ATOM     24  N   UNL     1       5.653   3.654  16.058  0.00  0.00    +0.000 NA
ATOM     25  C   UNL     1       5.593   3.356  14.741  0.00  0.00    +0.000 A 
ATOM     26  C   UNL     1       6.373   3.958  13.784  0.00  0.00    +0.000 A 
ATOM     27  C   UNL     1       7.276   4.881  14.267  0.00  0.00    +0.000 A 
ATOM     28  N   UNL     1       7.379   5.217  15.575  0.00  0.00    +0.000 NA
BRANCH  26  29
ATOM     29  C   UNL     1       6.238   3.667  12.334  0.00  0.00    +0.000 C 
ATOM     30  F   UNL     1       4.968   3.823  11.869  0.00  0.00    +0.000 F 
ATOM     31  F   UNL     1       7.013   4.480  11.565  0.00  0.00    +0.000 F 
ATOM     32  F   UNL     1       6.599   2.396  12.014  0.00  0.00    +0.000 F 
ENDBRANCH  26  29
ENDBRANCH  22  23
ENDBRANCH   5  22
TORSDOF 8
ENDMDL
MODEL 4
REMARK VINA RESULT:      -7.5      1.204      1.865
REMARK  Name = 
REMARK  8 active torsions:
REMARK  status: ('A' for Active; 'I' for Inactive)
REMARK    1  A    between atoms: C_2  and  O_3
REMARK    2  A    between atoms: C_2  and  C_4
REMARK    3  A    between atoms: C_4  and  N_5
REMARK    4  A    between atoms: C_6  and  C_8
REMARK    5  A    between atoms: C_9  and  O_10
REMARK    6  A    between atoms: N_13  and  C_14
REMARK    7  A    between atoms: C_14  and  C_15
REMARK    8  A    between atoms: C_18  and  C_19
REMARK                            x       y       z     vdW  Elec       q    Type
REMARK                         _______ _______ _______ _____ _____    ______ ____
ROOT
ATOM      1  C   UNL     1       2.903   6.570  18.983  0.00  0.00    +0.000 A 
ATOM      2  C   UNL     1       2.429   5.554  19.735  0.00  0.00    +0.000 A 
ATOM      3  C   UNL     1       3.186   4.349  19.857  0.00  0.00    +0.000 A 
ATOM      4  C   UNL     1       4.395   4.234  19.324  0.00  0.00    +0.000 A 
ATOM      5  N   UNL     1       4.964   5.246  18.577  0.00  0.00    +0.000 N 
ATOM      6  C   UNL     1       4.236   6.406  18.294  0.00  0.00    +0.000 A 
ATOM      7  O   UNL     1       4.617   7.273  17.504  0.00  0.00    +0.000 OA
ATOM      8  C   UNL     1       4.941   2.881  19.589  0.00  0.00    +0.000 C 
ATOM      9  O   UNL     1       3.994   2.271  20.496  0.00  0.00    +0.000 OA
ATOM     10  C   UNL     1       2.796   3.086  20.515  0.00  0.00    +0.000 C 
ENDROOT
BRANCH   1  12
ATOM     11  N   UNL     1       1.611   8.355  20.014  0.00  0.00    +0.000 N 
ATOM     12  C   UNL     1       2.077   7.804  18.848  0.00  0.00    +0.000 C 
ATOM     13  O   UNL     1       1.847   8.297  17.746  0.00  0.00    +0.000 OA
ATOM     14  H   UNL     1       1.875   7.916  20.902  0.00  0.00    +0.000 HD
BRANCH  11  15
ATOM     15  C   UNL     1       0.961   9.660  20.055  0.00  0.00    +0.000 C 
BRANCH  15  17
ATOM     16  O   UNL     1       1.244   9.655  22.466  0.00  0.00    +0.000 OA
ATOM     17  C   UNL     1       0.978  10.278  21.449  0.00  0.00    +0.000 C 
BRANCH  17  18
ATOM     18  O   UNL     1       0.635  11.589  21.466  0.00  0.00    +0.000 OA
ATOM     19  H   UNL     1      -0.188  11.711  21.980  0.00  0.00    +0.000 HD
ENDBRANCH  17  18
ENDBRANCH  15  17
ENDBRANCH  11  15
ENDBRANCH   1  12
BRANCH   2  20
ATOM     20  O   UNL     1       1.238   5.546  20.427  0.00  0.00    +0.000 OA
ATOM     21  H   UNL     1       1.264   4.816  21.088  0.00  0.00    +0.000 HD
ENDBRANCH   2  20
BRANCH   5  22
ATOM     22  C   UNL     1       6.300   5.098  17.989  0.00  0.00    +0.000 C 
BRANCH  22  23
ATOM     23  C   UNL     1       6.330   4.560  16.565  0.00  0.00    +0.000 A 
ATOM     24  N   UNL     1       5.263   3.840  16.158  0.00  0.00    +0.000 NA
ATOM     25  C   UNL     1       5.193   3.535  14.844  0.00  0.00    +0.000 A 
ATOM     26  C   UNL     1       6.135   3.917  13.920  0.00  0.00    +0.000 A 
ATOM     27  C   UNL     1       7.207   4.612  14.436  0.00  0.00    +0.000 A 
ATOM     28  N   UNL     1       7.328   4.944  15.743  0.00  0.00    +0.000 NA
BRANCH  26  29
ATOM     29  C   UNL     1       6.000   3.633  12.468  0.00  0.00    +0.000 C 
ATOM     30  F   UNL     1       4.765   3.924  11.975  0.00  0.00    +0.000 F 
ATOM     31  F   UNL     1       6.876   4.352  11.713  0.00  0.00    +0.000 F 
ATOM     32  F   UNL     1       6.226   2.328  12.161  0.00  0.00    +0.000 F 
ENDBRANCH  26  29
ENDBRANCH  22  23
ENDBRANCH   5  22
TORSDOF 8
ENDMDL
MODEL 5
REMARK VINA RESULT:      -7.5      0.376      1.289
REMARK  Name = 
REMARK  8 active torsions:
REMARK  status: ('A' for Active; 'I' for Inactive)
REMARK    1  A    between atoms: C_2  and  O_3
REMARK    2  A    between atoms: C_2  and  C_4
REMARK    3  A    between atoms: C_4  and  N_5
REMARK    4  A    between atoms: C_6  and  C_8
REMARK    5  A    between atoms: C_9  and  O_10
REMARK    6  A    between atoms: N_13  and  C_14
REMARK    7  A    between atoms: C_14  and  C_15
REMARK    8  A    between atoms: C_18  and  C_19
REMARK                            x       y       z     vdW  Elec       q    Type
REMARK                         _______ _______ _______ _____ _____    ______ ____
ROOT
ATOM      1  C   UNL     1       2.970   6.431  19.239  0.00  0.00    +0.000 A 
ATOM      2  C   UNL     1       2.482   5.364  19.908  0.00  0.00    +0.000 A 
ATOM      3  C   UNL     1       3.223   4.143  19.931  0.00  0.00    +0.000 A 
ATOM      4  C   UNL     1       4.430   4.055  19.388  0.00  0.00    +0.000 A 
ATOM      5  N   UNL     1       5.013   5.117  18.724  0.00  0.00    +0.000 N 
ATOM      6  C   UNL     1       4.301   6.305  18.538  0.00  0.00    +0.000 A 
ATOM      7  O   UNL     1       4.693   7.228  17.820  0.00  0.00    +0.000 OA
ATOM      8  C   UNL     1       4.957   2.678  19.542  0.00  0.00    +0.000 C 
ATOM      9  O   UNL     1       4.003   2.010  20.398  0.00  0.00    +0.000 OA
ATOM     10  C   UNL     1       2.816   2.836  20.485  0.00  0.00    +0.000 C 
ENDROOT
BRANCH   1  12
ATOM     11  N   UNL     1       2.075   8.322  17.996  0.00  0.00    +0.000 N 
ATOM     12  C   UNL     1       2.161   7.683  19.207  0.00  0.00    +0.000 C 
ATOM     13  O   UNL     1       1.595   8.099  20.216  0.00  0.00    +0.000 OA
ATOM     14  H   UNL     1       2.537   7.897  17.186  0.00  0.00    +0.000 HD
BRANCH  11  15
ATOM     15  C   UNL     1       1.166   9.439  17.767  0.00  0.00    +0.000 C 
BRANCH  15  17
ATOM     16  O   UNL     1       2.529  11.445  17.876  0.00  0.00    +0.000 OA
ATOM     17  C   UNL     1       1.671  10.739  18.384  0.00  0.00    +0.000 C 
BRANCH  17  18
ATOM     18  O   UNL     1       1.101  11.030  19.579  0.00  0.00    +0.000 OA
ATOM     19  H   UNL     1       0.640  10.242  19.928  0.00  0.00    +0.000 HD
ENDBRANCH  17  18
ENDBRANCH  15  17
ENDBRANCH  11  15
ENDBRANCH   1  12
BRANCH   2  20
ATOM     20  O   UNL     1       1.292   5.316  20.599  0.00  0.00    +0.000 OA
ATOM     21  H   UNL     1       0.652   5.925  20.163  0.00  0.00    +0.000 HD
ENDBRANCH   2  20
BRANCH   5  22
ATOM     22  C   UNL     1       6.346   4.998  18.125  0.00  0.00    +0.000 C 
BRANCH  22  23
ATOM     23  C   UNL     1       6.372   4.508  16.683  0.00  0.00    +0.000 A 
ATOM     24  N   UNL     1       5.389   3.663  16.305  0.00  0.00    +0.000 NA
ATOM     25  C   UNL     1       5.291   3.388  14.986  0.00  0.00    +0.000 A 
ATOM     26  C   UNL     1       6.125   3.917  14.030  0.00  0.00    +0.000 A 
ATOM     27  C   UNL     1       7.122   4.735  14.517  0.00  0.00    +0.000 A 
ATOM     28  N   UNL     1       7.266   5.043  15.828  0.00  0.00    +0.000 NA
BRANCH  26  29
ATOM     29  C   UNL     1       5.953   3.657  12.578  0.00  0.00    +0.000 C 
ATOM     30  F   UNL     1       6.833   4.346  11.800  0.00  0.00    +0.000 F 
ATOM     31  F   UNL     1       6.129   2.346  12.259  0.00  0.00    +0.000 F 
ATOM     32  F   UNL     1       4.715   3.989  12.124  0.00  0.00    +0.000 F 
ENDBRANCH  26  29
ENDBRANCH  22  23
ENDBRANCH   5  22
TORSDOF 8
ENDMDL
MODEL 6
REMARK VINA RESULT:      -7.3      0.923      1.113
REMARK  Name = 
REMARK  8 active torsions:
REMARK  status: ('A' for Active; 'I' for Inactive)
REMARK    1  A    between atoms: C_2  and  O_3
REMARK    2  A    between atoms: C_2  and  C_4
REMARK    3  A    between atoms: C_4  and  N_5
REMARK    4  A    between atoms: C_6  and  C_8
REMARK    5  A    between atoms: C_9  and  O_10
REMARK    6  A    between atoms: N_13  and  C_14
REMARK    7  A    between atoms: C_14  and  C_15
REMARK    8  A    between atoms: C_18  and  C_19
REMARK                            x       y       z     vdW  Elec       q    Type
REMARK                         _______ _______ _______ _____ _____    ______ ____
ROOT
ATOM      1  C   UNL     1       2.895   6.522  19.177  0.00  0.00    +0.000 A 
ATOM      2  C   UNL     1       2.255   5.472  19.734  0.00  0.00    +0.000 A 
ATOM      3  C   UNL     1       2.814   4.162  19.628  0.00  0.00    +0.000 A 
ATOM      4  C   UNL     1       4.002   3.960  19.073  0.00  0.00    +0.000 A 
ATOM      5  N   UNL     1       4.735   4.990  18.519  0.00  0.00    +0.000 N 
ATOM      6  C   UNL     1       4.201   6.281  18.460  0.00  0.00    +0.000 A 
ATOM      7  O   UNL     1       4.728   7.207  17.839  0.00  0.00    +0.000 OA
ATOM      8  C   UNL     1       4.326   2.513  19.081  0.00  0.00    +0.000 C 
ATOM      9  O   UNL     1       3.279   1.903  19.868  0.00  0.00    +0.000 OA
ATOM     10  C   UNL     1       2.221   2.877  20.047  0.00  0.00    +0.000 C 
ENDROOT
BRANCH   1  12
ATOM     11  N   UNL     1       2.320   8.651  18.149  0.00  0.00    +0.000 N 
ATOM     12  C   UNL     1       2.272   7.873  19.277  0.00  0.00    +0.000 C 
ATOM     13  O   UNL     1       1.736   8.248  20.318  0.00  0.00    +0.000 OA
ATOM     14  H   UNL     1       2.745   8.260  17.304  0.00  0.00    +0.000 HD
BRANCH  11  15
ATOM     15  C   UNL     1       1.586   9.906  18.037  0.00  0.00    +0.000 C 
BRANCH  15  17
ATOM     16  O   UNL     1      -0.660   9.346  17.301  0.00  0.00    +0.000 OA
ATOM     17  C   UNL     1       0.081   9.719  18.199  0.00  0.00    +0.000 C 
BRANCH  17  18
ATOM     18  O   UNL     1      -0.377  10.038  19.435  0.00  0.00    +0.000 OA
ATOM     19  H   UNL     1      -1.346   9.911  19.474  0.00  0.00    +0.000 HD
ENDBRANCH  17  18
ENDBRANCH  15  17
ENDBRANCH  11  15
ENDBRANCH   1  12
BRANCH   2  20
ATOM     20  O   UNL     1       1.063   5.523  20.423  0.00  0.00    +0.000 OA
ATOM     21  H   UNL     1       0.505   6.234  20.031  0.00  0.00    +0.000 HD
ENDBRANCH   2  20
BRANCH   5  22
ATOM     22  C   UNL     1       6.044   4.746  17.904  0.00  0.00    +0.000 C 
BRANCH  22  23
ATOM     23  C   UNL     1       6.040   4.630  16.385  0.00  0.00    +0.000 A 
ATOM     24  N   UNL     1       7.166   4.998  15.739  0.00  0.00    +0.000 NA
ATOM     25  C   UNL     1       7.239   4.710  14.421  0.00  0.00    +0.000 A 
ATOM     26  C   UNL     1       6.243   4.071  13.721  0.00  0.00    +0.000 A 
ATOM     27  C   UNL     1       5.117   3.772  14.457  0.00  0.00    +0.000 A 
ATOM     28  N   UNL     1       4.990   4.039  15.779  0.00  0.00    +0.000 NA
BRANCH  26  29
ATOM     29  C   UNL     1       6.376   3.699  12.289  0.00  0.00    +0.000 C 
ATOM     30  F   UNL     1       6.838   2.432  12.103  0.00  0.00    +0.000 F 
ATOM     31  F   UNL     1       5.190   3.760  11.624  0.00  0.00    +0.000 F 
ATOM     32  F   UNL     1       7.228   4.511  11.609  0.00  0.00    +0.000 F 
ENDBRANCH  26  29
ENDBRANCH  22  23
ENDBRANCH   5  22
TORSDOF 8
ENDMDL
MODEL 7
REMARK VINA RESULT:      -7.3      1.148      1.636
REMARK  Name = 
REMARK  8 active torsions:
REMARK  status: ('A' for Active; 'I' for Inactive)
REMARK    1  A    between atoms: C_2  and  O_3
REMARK    2  A    between atoms: C_2  and  C_4
REMARK    3  A    between atoms: C_4  and  N_5
REMARK    4  A    between atoms: C_6  and  C_8
REMARK    5  A    between atoms: C_9  and  O_10
REMARK    6  A    between atoms: N_13  and  C_14
REMARK    7  A    between atoms: C_14  and  C_15
REMARK    8  A    between atoms: C_18  and  C_19
REMARK                            x       y       z     vdW  Elec       q    Type
REMARK                         _______ _______ _______ _____ _____    ______ ____
ROOT
ATOM      1  C   UNL     1       3.130   6.824  18.526  0.00  0.00    +0.000 A 
ATOM      2  C   UNL     1       2.554   5.886  19.308  0.00  0.00    +0.000 A 
ATOM      3  C   UNL     1       3.234   4.655  19.557  0.00  0.00    +0.000 A 
ATOM      4  C   UNL     1       4.467   4.444  19.116  0.00  0.00    +0.000 A 
ATOM      5  N   UNL     1       5.137   5.373  18.346  0.00  0.00    +0.000 N 
ATOM      6  C   UNL     1       4.494   6.547  17.941  0.00  0.00    +0.000 A 
ATOM      7  O   UNL     1       4.972   7.339  17.125  0.00  0.00    +0.000 OA
ATOM      8  C   UNL     1       4.919   3.086  19.502  0.00  0.00    +0.000 C 
ATOM      9  O   UNL     1       3.884   2.587  20.380  0.00  0.00    +0.000 OA
ATOM     10  C   UNL     1       2.734   3.461  20.267  0.00  0.00    +0.000 C 
ENDROOT
BRANCH   1  12
ATOM     11  N   UNL     1       1.879   8.740  19.352  0.00  0.00    +0.000 N 
ATOM     12  C   UNL     1       2.383   8.086  18.258  0.00  0.00    +0.000 C 
ATOM     13  O   UNL     1       2.248   8.512  17.112  0.00  0.00    +0.000 OA
ATOM     14  H   UNL     1       2.064   8.351  20.282  0.00  0.00    +0.000 HD
BRANCH  11  15
ATOM     15  C   UNL     1       1.301  10.076  19.265  0.00  0.00    +0.000 C 
BRANCH  15  17
ATOM     16  O   UNL     1      -0.739  10.154  20.578  0.00  0.00    +0.000 OA
ATOM     17  C   UNL     1       0.448  10.425  20.480  0.00  0.00    +0.000 C 
BRANCH  17  18
ATOM     18  O   UNL     1       1.123  11.100  21.442  0.00  0.00    +0.000 OA
ATOM     19  H   UNL     1       1.044  10.629  22.296  0.00  0.00    +0.000 HD
ENDBRANCH  17  18
ENDBRANCH  15  17
ENDBRANCH  11  15
ENDBRANCH   1  12
BRANCH   2  20
ATOM     20  O   UNL     1       1.322   5.984  19.917  0.00  0.00    +0.000 OA
ATOM     21  H   UNL     1       1.403   5.657  20.842  0.00  0.00    +0.000 HD
ENDBRANCH   2  20
BRANCH   5  22
ATOM     22  C   UNL     1       6.498   5.118  17.861  0.00  0.00    +0.000 C 
BRANCH  22  23
ATOM     23  C   UNL     1       6.597   4.634  16.420  0.00  0.00    +0.000 A 
ATOM     24  N   UNL     1       5.791   3.612  16.060  0.00  0.00    +0.000 NA
ATOM     25  C   UNL     1       5.730   3.316  14.743  0.00  0.00    +0.000 A 
ATOM     26  C   UNL     1       6.430   3.990  13.773  0.00  0.00    +0.000 A 
ATOM     27  C   UNL     1       7.256   4.990  14.242  0.00  0.00    +0.000 A 
ATOM     28  N   UNL     1       7.357   5.328  15.549  0.00  0.00    +0.000 NA
BRANCH  26  29
ATOM     29  C   UNL     1       6.290   3.694  12.324  0.00  0.00    +0.000 C 
ATOM     30  F   UNL     1       6.719   2.446  11.986  0.00  0.00    +0.000 F 
ATOM     31  F   UNL     1       4.998   3.766  11.901  0.00  0.00    +0.000 F 
ATOM     32  F   UNL     1       6.989   4.555  11.538  0.00  0.00    +0.000 F 
ENDBRANCH  26  29
ENDBRANCH  22  23
ENDBRANCH   5  22
TORSDOF 8
ENDMDL
MODEL 8
REMARK VINA RESULT:      -7.3      0.986      1.309
REMARK  Name = 
REMARK  8 active torsions:
REMARK  status: ('A' for Active; 'I' for Inactive)
REMARK    1  A    between atoms: C_2  and  O_3
REMARK    2  A    between atoms: C_2  and  C_4
REMARK    3  A    between atoms: C_4  and  N_5
REMARK    4  A    between atoms: C_6  and  C_8
REMARK    5  A    between atoms: C_9  and  O_10
REMARK    6  A    between atoms: N_13  and  C_14
REMARK    7  A    between atoms: C_14  and  C_15
REMARK    8  A    between atoms: C_18  and  C_19
REMARK                            x       y       z     vdW  Elec       q    Type
REMARK                         _______ _______ _______ _____ _____    ______ ____
ROOT
ATOM      1  C   UNL     1       2.675   5.776  19.496  0.00  0.00    +0.000 A 
ATOM      2  C   UNL     1       2.046   4.592  19.657  0.00  0.00    +0.000 A 
ATOM      3  C   UNL     1       2.660   3.392  19.186  0.00  0.00    +0.000 A 
ATOM      4  C   UNL     1       3.884   3.396  18.674  0.00  0.00    +0.000 A 
ATOM      5  N   UNL     1       4.607   4.562  18.516  0.00  0.00    +0.000 N 
ATOM      6  C   UNL     1       4.027   5.796  18.825  0.00  0.00    +0.000 A 
ATOM      7  O   UNL     1       4.551   6.880  18.558  0.00  0.00    +0.000 OA
ATOM      8  C   UNL     1       4.263   2.026  18.254  0.00  0.00    +0.000 C 
ATOM      9  O   UNL     1       3.198   1.181  18.743  0.00  0.00    +0.000 OA
ATOM     10  C   UNL     1       2.094   2.029  19.145  0.00  0.00    +0.000 C 
ENDROOT
BRANCH   1  12
ATOM     11  N   UNL     1       2.033   8.093  19.122  0.00  0.00    +0.000 N 
ATOM     12  C   UNL     1       1.996   7.016  19.970  0.00  0.00    +0.000 C 
ATOM     13  O   UNL     1       1.425   7.050  21.058  0.00  0.00    +0.000 OA
ATOM     14  H   UNL     1       2.490   7.983  18.212  0.00  0.00    +0.000 HD
BRANCH  11  15
ATOM     15  C   UNL     1       1.250   9.300  19.361  0.00  0.00    +0.000 C 
BRANCH  15  17
ATOM     16  O   UNL     1       2.309  10.283  17.409  0.00  0.00    +0.000 OA
ATOM     17  C   UNL     1       1.441  10.345  18.267  0.00  0.00    +0.000 C 
BRANCH  17  18
ATOM     18  O   UNL     1       0.570  11.382  18.348  0.00  0.00    +0.000 OA
ATOM     19  H   UNL     1       0.445  11.638  19.284  0.00  0.00    +0.000 HD
ENDBRANCH  17  18
ENDBRANCH  15  17
ENDBRANCH  11  15
ENDBRANCH   1  12
BRANCH   2  20
ATOM     20  O   UNL     1       0.816   4.403  20.248  0.00  0.00    +0.000 OA
ATOM     21  H   UNL     1       0.436   3.556  19.918  0.00  0.00    +0.000 HD
ENDBRANCH   2  20
BRANCH   5  22
ATOM     22  C   UNL     1       5.956   4.547  17.941  0.00  0.00    +0.000 C 
BRANCH  22  23
ATOM     23  C   UNL     1       6.017   4.522  16.420  0.00  0.00    +0.000 A 
ATOM     24  N   UNL     1       7.227   4.710  15.851  0.00  0.00    +0.000 NA
ATOM     25  C   UNL     1       7.320   4.489  14.521  0.00  0.00    +0.000 A 
ATOM     26  C   UNL     1       6.266   4.089  13.737  0.00  0.00    +0.000 A 
ATOM     27  C   UNL     1       5.064   3.965  14.399  0.00  0.00    +0.000 A 
ATOM     28  N   UNL     1       4.913   4.174  15.728  0.00  0.00    +0.000 NA
BRANCH  26  29
ATOM     29  C   UNL     1       6.409   3.782  12.290  0.00  0.00    +0.000 C 
ATOM     30  F   UNL     1       5.225   3.793  11.618  0.00  0.00    +0.000 F 
ATOM     31  F   UNL     1       7.207   4.676  11.645  0.00  0.00    +0.000 F 
ATOM     32  F   UNL     1       6.956   2.559  12.061  0.00  0.00    +0.000 F 
ENDBRANCH  26  29
ENDBRANCH  22  23
ENDBRANCH   5  22
TORSDOF 8
ENDMDL
MODEL 9
REMARK VINA RESULT:      -7.2      4.693      6.824
REMARK  Name = 
REMARK  8 active torsions:
REMARK  status: ('A' for Active; 'I' for Inactive)
REMARK    1  A    between atoms: C_2  and  O_3
REMARK    2  A    between atoms: C_2  and  C_4
REMARK    3  A    between atoms: C_4  and  N_5
REMARK    4  A    between atoms: C_6  and  C_8
REMARK    5  A    between atoms: C_9  and  O_10
REMARK    6  A    between atoms: N_13  and  C_14
REMARK    7  A    between atoms: C_14  and  C_15
REMARK    8  A    between atoms: C_18  and  C_19
REMARK                            x       y       z     vdW  Elec       q    Type
REMARK                         _______ _______ _______ _____ _____    ______ ____
ROOT
ATOM      1  C   UNL     1      -0.643  10.641  19.009  0.00  0.00    +0.000 A 
ATOM      2  C   UNL     1      -0.945  10.941  20.291  0.00  0.00    +0.000 A 
ATOM      3  C   UNL     1      -0.237  10.303  21.355  0.00  0.00    +0.000 A 
ATOM      4  C   UNL     1       0.781   9.486  21.116  0.00  0.00    +0.000 A 
ATOM      5  N   UNL     1       1.176   9.165  19.833  0.00  0.00    +0.000 N 
ATOM      6  C   UNL     1       0.451   9.639  18.735  0.00  0.00    +0.000 A 
ATOM      7  O   UNL     1       0.647   9.263  17.577  0.00  0.00    +0.000 OA
ATOM      8  C   UNL     1       1.317   8.956  22.393  0.00  0.00    +0.000 C 
ATOM      9  O   UNL     1       0.619   9.693  23.422  0.00  0.00    +0.000 OA
ATOM     10  C   UNL     1      -0.494  10.388  22.806  0.00  0.00    +0.000 C 
ENDROOT
BRANCH   1  12
ATOM     11  N   UNL     1      -2.249  10.490  17.188  0.00  0.00    +0.000 N 
ATOM     12  C   UNL     1      -1.420  11.300  17.921  0.00  0.00    +0.000 C 
ATOM     13  O   UNL     1      -1.323  12.508  17.714  0.00  0.00    +0.000 OA
ATOM     14  H   UNL     1      -2.313   9.500  17.441  0.00  0.00    +0.000 HD
BRANCH  11  15
ATOM     15  C   UNL     1      -3.210  11.022  16.228  0.00  0.00    +0.000 C 
BRANCH  15  17
ATOM     16  O   UNL     1      -2.250   9.812  14.355  0.00  0.00    +0.000 OA
ATOM     17  C   UNL     1      -3.247  10.219  14.932  0.00  0.00    +0.000 C 
BRANCH  17  18
ATOM     18  O   UNL     1      -4.499  10.021  14.451  0.00  0.00    +0.000 OA
ATOM     19  H   UNL     1      -5.155  10.423  15.056  0.00  0.00    +0.000 HD
ENDBRANCH  17  18
ENDBRANCH  15  17
ENDBRANCH  11  15
ENDBRANCH   1  12
BRANCH   2  20
ATOM     20  O   UNL     1      -1.909  11.832  20.709  0.00  0.00    +0.000 OA
ATOM     21  H   UNL     1      -2.795  11.430  20.554  0.00  0.00    +0.000 HD
ENDBRANCH   2  20
BRANCH   5  22
ATOM     22  C   UNL     1       2.300   8.255  19.589  0.00  0.00    +0.000 C 
BRANCH  22  23
ATOM     23  C   UNL     1       1.935   6.780  19.489  0.00  0.00    +0.000 A 
ATOM     24  N   UNL     1       2.170   6.169  18.308  0.00  0.00    +0.000 NA
ATOM     25  C   UNL     1       2.038   4.825  18.277  0.00  0.00    +0.000 A 
ATOM     26  C   UNL     1       1.687   4.065  19.366  0.00  0.00    +0.000 A 
ATOM     27  C   UNL     1       1.428   4.781  20.514  0.00  0.00    +0.000 A 
ATOM     28  N   UNL     1       1.544   6.127  20.602  0.00  0.00    +0.000 NA
BRANCH  26  29
ATOM     29  C   UNL     1       1.619   2.581  19.325  0.00  0.00    +0.000 C 
ATOM     30  F   UNL     1       1.565   2.011  20.561  0.00  0.00    +0.000 F 
ATOM     31  F   UNL     1       0.521   2.128  18.662  0.00  0.00    +0.000 F 
ATOM     32  F   UNL     1       2.690   2.020  18.702  0.00  0.00    +0.000 F 
ENDBRANCH  26  29
ENDBRANCH  22  23
ENDBRANCH   5  22
TORSDOF 8
ENDMDL
