MODEL 1
REMARK VINA RESULT:      -7.7      0.000      0.000
REMARK  Name = 
REMARK  12 active torsions:
REMARK  status: ('A' for Active; 'I' for Inactive)
REMARK    1  A    between atoms: C_1  and  C_2
REMARK    2  A    between atoms: C_2  and  C_3
REMARK    3  A    between atoms: C_3  and  C_4
REMARK    4  A    between atoms: C_3  and  N_5
REMARK    5  A    between atoms: N_5  and  S_6
REMARK    6  A    between atoms: S_6  and  C_9
REMARK    7  A    between atoms: C_11  and  N_12
REMARK    8  A    between atoms: C_13  and  C_15
REMARK    9  A    between atoms: C_15  and  C_16
REMARK   10  A    between atoms: C_16  and  C_17
REMARK   11  A    between atoms: C_24  and  N_25
REMARK   12  A    between atoms: C_30  and  C_31
REMARK                            x       y       z     vdW  Elec       q    Type
REMARK                         _______ _______ _______ _____ _____    ______ ____
ROOT
ATOM      1  C   UNL     1      -0.670  11.413  19.784  0.00  0.00    +0.000 A 
ATOM      2  C   UNL     1       0.116  10.340  19.312  0.00  0.00    +0.000 A 
ATOM      3  C   UNL     1       0.825   9.507  20.173  0.00  0.00    +0.000 A 
ATOM      4  C   UNL     1       0.803   9.783  21.540  0.00  0.00    +0.000 A 
ATOM      5  C   UNL     1       0.035  10.852  22.013  0.00  0.00    +0.000 A 
ATOM      6  C   UNL     1      -0.745  11.678  21.172  0.00  0.00    +0.000 A 
ENDROOT
BRANCH   6   7
ATOM      7  N   UNL     1      -1.521  12.661  21.769  0.00  0.00    +0.000 N 
ATOM      8  C   UNL     1      -0.938  13.934  22.210  0.00  0.00    +0.000 C 
ATOM      9  C   UNL     1      -1.848  15.084  21.775  0.00  0.00    +0.000 C 
ATOM     10  C   UNL     1      -3.318  14.878  22.149  0.00  0.00    +0.000 C 
ATOM     11  C   UNL     1      -3.801  13.492  21.737  0.00  0.00    +0.000 C 
ATOM     12  C   UNL     1      -2.874  12.405  22.282  0.00  0.00    +0.000 C 
ATOM     13  C   UNL     1      -2.945  12.206  23.766  0.00  0.00    +0.000 C 
ENDBRANCH   6   7
BRANCH   3  14
ATOM     14  N   UNL     1       1.525   8.365  19.720  0.00  0.00    +0.000 N 
ATOM     15  C   UNL     1       2.093   8.227  18.462  0.00  0.00    +0.000 C 
ATOM     16  O   UNL     1       2.156   9.093  17.592  0.00  0.00    +0.000 OA
ATOM     17  H   UNL     1       1.659   7.613  20.387  0.00  0.00    +0.000 HD
BRANCH  15  18
ATOM     18  C   UNL     1       2.705   6.874  18.197  0.00  0.00    +0.000 C 
BRANCH  18  19
ATOM     19  C   UNL     1       2.925   6.086  19.482  0.00  0.00    +0.000 C 
BRANCH  19  20
ATOM     20  C   UNL     1       1.831   5.063  19.823  0.00  0.00    +0.000 C 
ATOM     21  C   UNL     1       1.596   3.965  18.791  0.00  0.00    +0.000 C 
ATOM     22  C   UNL     1       0.841   2.895  19.574  0.00  0.00    +0.000 C 
ATOM     23  C   UNL     1       1.341   3.001  21.014  0.00  0.00    +0.000 C 
ATOM     24  C   UNL     1       2.188   4.268  21.080  0.00  0.00    +0.000 C 
ENDBRANCH  19  20
ENDBRANCH  18  19
ENDBRANCH  15  18
ENDBRANCH   3  14
BRANCH   1  25
ATOM     25  S   UNL     1      -1.510  12.471  18.565  0.00  0.00    +0.000 S 
ATOM     26  O   UNL     1      -0.692  13.655  18.412  0.00  0.00    +0.000 OA
ATOM     27  O   UNL     1      -2.907  12.511  18.948  0.00  0.00    +0.000 OA
BRANCH  25  28
ATOM     28  N   UNL     1      -1.600  11.708  17.071  0.00  0.00    +0.000 NA
ATOM     29  H   UNL     1      -1.227  12.303  16.337  0.00  0.00    +0.000 HD
BRANCH  28  30
ATOM     30  C   UNL     1      -2.885  11.038  16.802  0.00  0.00    +0.000 C 
ATOM     31  C   UNL     1      -2.901   9.587  17.284  0.00  0.00    +0.000 C 
BRANCH  30  33
ATOM     32  C   UNL     1      -3.105   9.802  14.613  0.00  0.00    +0.000 C 
ATOM     33  C   UNL     1      -3.128  11.132  15.306  0.00  0.00    +0.000 C 
ENDBRANCH  30  33
ENDBRANCH  28  30
ENDBRANCH  25  28
ENDBRANCH   1  25
TORSDOF 9
ENDMDL
MODEL 2
REMARK VINA RESULT:      -7.5      3.555      9.561
REMARK  Name = 
REMARK  12 active torsions:
REMARK  status: ('A' for Active; 'I' for Inactive)
REMARK    1  A    between atoms: C_1  and  C_2
REMARK    2  A    between atoms: C_2  and  C_3
REMARK    3  A    between atoms: C_3  and  C_4
REMARK    4  A    between atoms: C_3  and  N_5
REMARK    5  A    between atoms: N_5  and  S_6
REMARK    6  A    between atoms: S_6  and  C_9
REMARK    7  A    between atoms: C_11  and  N_12
REMARK    8  A    between atoms: C_13  and  C_15
REMARK    9  A    between atoms: C_15  and  C_16
REMARK   10  A    between atoms: C_16  and  C_17
REMARK   11  A    between atoms: C_24  and  N_25
REMARK   12  A    between atoms: C_30  and  C_31
REMARK                            x       y       z     vdW  Elec       q    Type
REMARK                         _______ _______ _______ _____ _____    ______ ____
ROOT
ATOM      1  C   UNL     1       2.878   6.318  18.945  0.00  0.00    +0.000 A 
ATOM      2  C   UNL     1       2.559   7.668  19.203  0.00  0.00    +0.000 A 
ATOM      3  C   UNL     1       1.603   8.035  20.146  0.00  0.00    +0.000 A 
ATOM      4  C   UNL     1       0.898   7.031  20.810  0.00  0.00    +0.000 A 
ATOM      5  C   UNL     1       1.202   5.691  20.550  0.00  0.00    +0.000 A 
ATOM      6  C   UNL     1       2.210   5.286  19.644  0.00  0.00    +0.000 A 
ENDROOT
BRANCH   6   7
ATOM      7  N   UNL     1       2.466   3.927  19.526  0.00  0.00    +0.000 N 
ATOM      8  C   UNL     1       1.585   3.047  18.749  0.00  0.00    +0.000 C 
ATOM      9  C   UNL     1       2.437   2.123  17.877  0.00  0.00    +0.000 C 
ATOM     10  C   UNL     1       3.554   1.412  18.645  0.00  0.00    +0.000 C 
ATOM     11  C   UNL     1       4.348   2.396  19.496  0.00  0.00    +0.000 C 
ATOM     12  C   UNL     1       3.421   3.220  20.390  0.00  0.00    +0.000 C 
ATOM     13  C   UNL     1       2.788   2.454  21.513  0.00  0.00    +0.000 C 
ENDBRANCH   6   7
BRANCH   3  14
ATOM     14  N   UNL     1       1.355   9.383  20.491  0.00  0.00    +0.000 N 
ATOM     15  C   UNL     1       0.571  10.261  19.757  0.00  0.00    +0.000 C 
ATOM     16  O   UNL     1      -0.094   9.985  18.761  0.00  0.00    +0.000 OA
ATOM     17  H   UNL     1       1.745   9.714  21.368  0.00  0.00    +0.000 HD
BRANCH  15  18
ATOM     18  C   UNL     1       0.540  11.671  20.292  0.00  0.00    +0.000 C 
BRANCH  18  19
ATOM     19  C   UNL     1      -0.157  12.630  19.335  0.00  0.00    +0.000 C 
BRANCH  19  20
ATOM     20  C   UNL     1       0.759  13.645  18.636  0.00  0.00    +0.000 C 
ATOM     21  C   UNL     1       1.066  14.918  19.416  0.00  0.00    +0.000 C 
ATOM     22  C   UNL     1       2.303  15.476  18.718  0.00  0.00    +0.000 C 
ATOM     23  C   UNL     1       3.068  14.262  18.194  0.00  0.00    +0.000 C 
ATOM     24  C   UNL     1       2.152  13.059  18.393  0.00  0.00    +0.000 C 
ENDBRANCH  19  20
ENDBRANCH  18  19
ENDBRANCH  15  18
ENDBRANCH   3  14
BRANCH   1  25
ATOM     25  S   UNL     1       4.105   5.953  17.651  0.00  0.00    +0.000 S 
ATOM     26  O   UNL     1       4.333   7.191  16.936  0.00  0.00    +0.000 OA
ATOM     27  O   UNL     1       3.672   4.729  17.006  0.00  0.00    +0.000 OA
BRANCH  25  28
ATOM     28  N   UNL     1       5.564   5.470  18.327  0.00  0.00    +0.000 NA
ATOM     29  H   UNL     1       5.614   5.733  19.307  0.00  0.00    +0.000 HD
BRANCH  28  30
ATOM     30  C   UNL     1       6.748   5.751  17.495  0.00  0.00    +0.000 C 
ATOM     31  C   UNL     1       7.494   4.481  17.090  0.00  0.00    +0.000 C 
BRANCH  30  33
ATOM     32  C   UNL     1       7.824   8.029  17.644  0.00  0.00    +0.000 C 
ATOM     33  C   UNL     1       7.636   6.690  18.293  0.00  0.00    +0.000 C 
ENDBRANCH  30  33
ENDBRANCH  28  30
ENDBRANCH  25  28
ENDBRANCH   1  25
TORSDOF 9
ENDMDL
MODEL 3
REMARK VINA RESULT:      -7.4      0.616      1.540
REMARK  Name = 
REMARK  12 active torsions:
REMARK  status: ('A' for Active; 'I' for Inactive)
REMARK    1  A    between atoms: C_1  and  C_2
REMARK    2  A    between atoms: C_2  and  C_3
REMARK    3  A    between atoms: C_3  and  C_4
REMARK    4  A    between atoms: C_3  and  N_5
REMARK    5  A    between atoms: N_5  and  S_6
REMARK    6  A    between atoms: S_6  and  C_9
REMARK    7  A    between atoms: C_11  and  N_12
REMARK    8  A    between atoms: C_13  and  C_15
REMARK    9  A    between atoms: C_15  and  C_16
REMARK   10  A    between atoms: C_16  and  C_17
REMARK   11  A    between atoms: C_24  and  N_25
REMARK   12  A    between atoms: C_30  and  C_31
REMARK                            x       y       z     vdW  Elec       q    Type
REMARK                         _______ _______ _______ _____ _____    ______ ____
ROOT
ATOM      1  C   UNL     1      -0.552  11.272  19.925  0.00  0.00    +0.000 A 
ATOM      2  C   UNL     1       0.233  10.215  19.419  0.00  0.00    +0.000 A 
ATOM      3  C   UNL     1       0.928   9.344  20.254  0.00  0.00    +0.000 A 
ATOM      4  C   UNL     1       0.892   9.565  21.631  0.00  0.00    +0.000 A 
ATOM      5  C   UNL     1       0.124  10.618  22.137  0.00  0.00    +0.000 A 
ATOM      6  C   UNL     1      -0.643  11.483  21.321  0.00  0.00    +0.000 A 
ENDROOT
BRANCH   6   7
ATOM      7  N   UNL     1      -1.420  12.445  21.949  0.00  0.00    +0.000 N 
ATOM      8  C   UNL     1      -2.875  12.295  22.068  0.00  0.00    +0.000 C 
ATOM      9  C   UNL     1      -3.305  12.659  23.491  0.00  0.00    +0.000 C 
ATOM     10  C   UNL     1      -2.747  13.999  23.977  0.00  0.00    +0.000 C 
ATOM     11  C   UNL     1      -1.248  14.096  23.719  0.00  0.00    +0.000 C 
ATOM     12  C   UNL     1      -0.923  13.793  22.256  0.00  0.00    +0.000 C 
ATOM     13  C   UNL     1      -1.359  14.849  21.285  0.00  0.00    +0.000 C 
ENDBRANCH   6   7
BRANCH   3  14
ATOM     14  N   UNL     1       1.628   8.218  19.764  0.00  0.00    +0.000 N 
ATOM     15  C   UNL     1       2.156   8.103  18.486  0.00  0.00    +0.000 C 
ATOM     16  O   UNL     1       2.180   8.981  17.626  0.00  0.00    +0.000 OA
ATOM     17  H   UNL     1       1.792   7.458  20.416  0.00  0.00    +0.000 HD
BRANCH  15  18
ATOM     18  C   UNL     1       2.776   6.762  18.183  0.00  0.00    +0.000 C 
BRANCH  18  19
ATOM     19  C   UNL     1       3.115   5.990  19.452  0.00  0.00    +0.000 C 
BRANCH  19  20
ATOM     20  C   UNL     1       2.733   4.503  19.442  0.00  0.00    +0.000 C 
ATOM     21  C   UNL     1       2.176   3.945  20.747  0.00  0.00    +0.000 C 
ATOM     22  C   UNL     1       1.483   2.656  20.317  0.00  0.00    +0.000 C 
ATOM     23  C   UNL     1       0.986   2.904  18.895  0.00  0.00    +0.000 C 
ATOM     24  C   UNL     1       1.599   4.229  18.452  0.00  0.00    +0.000 C 
ENDBRANCH  19  20
ENDBRANCH  18  19
ENDBRANCH  15  18
ENDBRANCH   3  14
BRANCH   1  25
ATOM     25  S   UNL     1      -1.373  12.383  18.739  0.00  0.00    +0.000 S 
ATOM     26  O   UNL     1      -0.517  13.541  18.597  0.00  0.00    +0.000 OA
ATOM     27  O   UNL     1      -2.762  12.464  19.145  0.00  0.00    +0.000 OA
BRANCH  25  28
ATOM     28  N   UNL     1      -1.512  11.654  17.233  0.00  0.00    +0.000 NA
ATOM     29  H   UNL     1      -1.090  12.230  16.511  0.00  0.00    +0.000 HD
BRANCH  28  30
ATOM     30  C   UNL     1      -2.843  11.088  16.947  0.00  0.00    +0.000 C 
ATOM     31  C   UNL     1      -3.001   9.664  17.479  0.00  0.00    +0.000 C 
BRANCH  30  33
ATOM     32  C   UNL     1      -3.508   9.851  14.850  0.00  0.00    +0.000 C 
ATOM     33  C   UNL     1      -3.034  11.145  15.441  0.00  0.00    +0.000 C 
ENDBRANCH  30  33
ENDBRANCH  28  30
ENDBRANCH  25  28
ENDBRANCH   1  25
TORSDOF 9
ENDMDL
MODEL 4
REMARK VINA RESULT:      -7.4      8.346     10.693
REMARK  Name = 
REMARK  12 active torsions:
REMARK  status: ('A' for Active; 'I' for Inactive)
REMARK    1  A    between atoms: C_1  and  C_2
REMARK    2  A    between atoms: C_2  and  C_3
REMARK    3  A    between atoms: C_3  and  C_4
REMARK    4  A    between atoms: C_3  and  N_5
REMARK    5  A    between atoms: N_5  and  S_6
REMARK    6  A    between atoms: S_6  and  C_9
REMARK    7  A    between atoms: C_11  and  N_12
REMARK    8  A    between atoms: C_13  and  C_15
REMARK    9  A    between atoms: C_15  and  C_16
REMARK   10  A    between atoms: C_16  and  C_17
REMARK   11  A    between atoms: C_24  and  N_25
REMARK   12  A    between atoms: C_30  and  C_31
REMARK                            x       y       z     vdW  Elec       q    Type
REMARK                         _______ _______ _______ _____ _____    ______ ____
ROOT
ATOM      1  C   UNL     1       9.346  12.353  20.166  0.00  0.00    +0.000 A 
ATOM      2  C   UNL     1       9.008  10.983  20.167  0.00  0.00    +0.000 A 
ATOM      3  C   UNL     1       9.176  10.180  19.042  0.00  0.00    +0.000 A 
ATOM      4  C   UNL     1       9.634  10.766  17.862  0.00  0.00    +0.000 A 
ATOM      5  C   UNL     1       9.960  12.126  17.853  0.00  0.00    +0.000 A 
ATOM      6  C   UNL     1       9.861  12.956  18.994  0.00  0.00    +0.000 A 
ENDROOT
BRANCH   6   7
ATOM      7  N   UNL     1      10.282  14.272  18.876  0.00  0.00    +0.000 N 
ATOM      8  C   UNL     1       9.334  15.358  18.601  0.00  0.00    +0.000 C 
ATOM      9  C   UNL     1       9.639  16.541  19.523  0.00  0.00    +0.000 C 
ATOM     10  C   UNL     1      11.114  16.951  19.526  0.00  0.00    +0.000 C 
ATOM     11  C   UNL     1      12.020  15.740  19.720  0.00  0.00    +0.000 C 
ATOM     12  C   UNL     1      11.693  14.643  18.707  0.00  0.00    +0.000 C 
ATOM     13  C   UNL     1      12.084  14.959  17.294  0.00  0.00    +0.000 C 
ENDBRANCH   6   7
BRANCH   3  14
ATOM     14  N   UNL     1       8.945   8.785  19.063  0.00  0.00    +0.000 N 
ATOM     15  C   UNL     1       8.100   8.105  18.198  0.00  0.00    +0.000 C 
ATOM     16  O   UNL     1       7.503   8.584  17.236  0.00  0.00    +0.000 OA
ATOM     17  H   UNL     1       9.475   8.241  19.735  0.00  0.00    +0.000 HD
BRANCH  15  18
ATOM     18  C   UNL     1       7.958   6.632  18.491  0.00  0.00    +0.000 C 
BRANCH  18  19
ATOM     19  C   UNL     1       7.176   5.907  17.403  0.00  0.00    +0.000 C 
BRANCH  19  20
ATOM     20  C   UNL     1       5.748   5.491  17.783  0.00  0.00    +0.000 C 
ATOM     21  C   UNL     1       5.457   5.384  19.277  0.00  0.00    +0.000 C 
ATOM     22  C   UNL     1       3.933   5.424  19.347  0.00  0.00    +0.000 C 
ATOM     23  C   UNL     1       3.484   6.287  18.170  0.00  0.00    +0.000 C 
ATOM     24  C   UNL     1       4.725   6.531  17.319  0.00  0.00    +0.000 C 
ENDBRANCH  19  20
ENDBRANCH  18  19
ENDBRANCH  15  18
ENDBRANCH   3  14
BRANCH   1  25
ATOM     25  S   UNL     1       9.034  13.320  21.676  0.00  0.00    +0.000 S 
ATOM     26  O   UNL     1       7.735  13.936  21.512  0.00  0.00    +0.000 OA
ATOM     27  O   UNL     1      10.244  14.072  21.941  0.00  0.00    +0.000 OA
BRANCH  25  28
ATOM     28  N   UNL     1       8.966  12.321  23.024  0.00  0.00    +0.000 NA
ATOM     29  H   UNL     1       9.014  11.343  22.754  0.00  0.00    +0.000 HD
BRANCH  28  30
ATOM     30  C   UNL     1       7.937  12.694  24.012  0.00  0.00    +0.000 C 
ATOM     31  C   UNL     1       8.518  12.917  25.407  0.00  0.00    +0.000 C 
BRANCH  30  33
ATOM     32  C   UNL     1       6.279  11.346  25.354  0.00  0.00    +0.000 C 
ATOM     33  C   UNL     1       6.899  11.585  24.010  0.00  0.00    +0.000 C 
ENDBRANCH  30  33
ENDBRANCH  28  30
ENDBRANCH  25  28
ENDBRANCH   1  25
TORSDOF 9
ENDMDL
MODEL 5
REMARK VINA RESULT:      -7.3      3.146      9.527
REMARK  Name = 
REMARK  12 active torsions:
REMARK  status: ('A' for Active; 'I' for Inactive)
REMARK    1  A    between atoms: C_1  and  C_2
REMARK    2  A    between atoms: C_2  and  C_3
REMARK    3  A    between atoms: C_3  and  C_4
REMARK    4  A    between atoms: C_3  and  N_5
REMARK    5  A    between atoms: N_5  and  S_6
REMARK    6  A    between atoms: S_6  and  C_9
REMARK    7  A    between atoms: C_11  and  N_12
REMARK    8  A    between atoms: C_13  and  C_15
REMARK    9  A    between atoms: C_15  and  C_16
REMARK   10  A    between atoms: C_16  and  C_17
REMARK   11  A    between atoms: C_24  and  N_25
REMARK   12  A    between atoms: C_30  and  C_31
REMARK                            x       y       z     vdW  Elec       q    Type
REMARK                         _______ _______ _______ _____ _____    ______ ____
ROOT
ATOM      1  C   UNL     1       2.769   6.314  19.011  0.00  0.00    +0.000 A 
ATOM      2  C   UNL     1       2.416   7.646  19.312  0.00  0.00    +0.000 A 
ATOM      3  C   UNL     1       1.470   7.958  20.286  0.00  0.00    +0.000 A 
ATOM      4  C   UNL     1       0.810   6.916  20.937  0.00  0.00    +0.000 A 
ATOM      5  C   UNL     1       1.150   5.593  20.634  0.00  0.00    +0.000 A 
ATOM      6  C   UNL     1       2.149   5.243  19.697  0.00  0.00    +0.000 A 
ENDROOT
BRANCH   6   7
ATOM      7  N   UNL     1       2.444   3.897  19.537  0.00  0.00    +0.000 N 
ATOM      8  C   UNL     1       1.567   3.008  18.765  0.00  0.00    +0.000 C 
ATOM      9  C   UNL     1       2.421   2.133  17.845  0.00  0.00    +0.000 C 
ATOM     10  C   UNL     1       3.582   1.440  18.561  0.00  0.00    +0.000 C 
ATOM     11  C   UNL     1       4.371   2.428  19.412  0.00  0.00    +0.000 C 
ATOM     12  C   UNL     1       3.446   3.200  20.354  0.00  0.00    +0.000 C 
ATOM     13  C   UNL     1       2.873   2.387  21.475  0.00  0.00    +0.000 C 
ENDBRANCH   6   7
BRANCH   3  14
ATOM     14  N   UNL     1       1.188   9.288  20.672  0.00  0.00    +0.000 N 
ATOM     15  C   UNL     1       0.491  10.210  19.904  0.00  0.00    +0.000 C 
ATOM     16  O   UNL     1      -0.062   9.991  18.828  0.00  0.00    +0.000 OA
ATOM     17  H   UNL     1       1.480   9.570  21.602  0.00  0.00    +0.000 HD
BRANCH  15  18
ATOM     18  C   UNL     1       0.405  11.590  20.506  0.00  0.00    +0.000 C 
BRANCH  18  19
ATOM     19  C   UNL     1      -0.072  11.552  21.952  0.00  0.00    +0.000 C 
BRANCH  19  20
ATOM     20  C   UNL     1      -1.308  12.410  22.262  0.00  0.00    +0.000 C 
ATOM     21  C   UNL     1      -2.331  11.793  23.210  0.00  0.00    +0.000 C 
ATOM     22  C   UNL     1      -3.152  12.991  23.677  0.00  0.00    +0.000 C 
ATOM     23  C   UNL     1      -2.195  14.180  23.671  0.00  0.00    +0.000 C 
ATOM     24  C   UNL     1      -0.920  13.701  22.985  0.00  0.00    +0.000 C 
ENDBRANCH  19  20
ENDBRANCH  18  19
ENDBRANCH  15  18
ENDBRANCH   3  14
BRANCH   1  25
ATOM     25  S   UNL     1       3.978   6.021  17.682  0.00  0.00    +0.000 S 
ATOM     26  O   UNL     1       4.186   7.293  17.024  0.00  0.00    +0.000 OA
ATOM     27  O   UNL     1       3.544   4.826  16.987  0.00  0.00    +0.000 OA
BRANCH  25  28
ATOM     28  N   UNL     1       5.451   5.517  18.312  0.00  0.00    +0.000 NA
ATOM     29  H   UNL     1       5.527   5.761  19.295  0.00  0.00    +0.000 HD
BRANCH  28  30
ATOM     30  C   UNL     1       6.615   5.810  17.456  0.00  0.00    +0.000 C 
ATOM     31  C   UNL     1       7.196   4.554  16.807  0.00  0.00    +0.000 C 
BRANCH  30  33
ATOM     32  C   UNL     1       8.015   5.733  19.554  0.00  0.00    +0.000 C 
ATOM     33  C   UNL     1       7.641   6.512  18.328  0.00  0.00    +0.000 C 
ENDBRANCH  30  33
ENDBRANCH  28  30
ENDBRANCH  25  28
ENDBRANCH   1  25
TORSDOF 9
ENDMDL
MODEL 6
REMARK VINA RESULT:      -7.2      3.361      9.375
REMARK  Name = 
REMARK  12 active torsions:
REMARK  status: ('A' for Active; 'I' for Inactive)
REMARK    1  A    between atoms: C_1  and  C_2
REMARK    2  A    between atoms: C_2  and  C_3
REMARK    3  A    between atoms: C_3  and  C_4
REMARK    4  A    between atoms: C_3  and  N_5
REMARK    5  A    between atoms: N_5  and  S_6
REMARK    6  A    between atoms: S_6  and  C_9
REMARK    7  A    between atoms: C_11  and  N_12
REMARK    8  A    between atoms: C_13  and  C_15
REMARK    9  A    between atoms: C_15  and  C_16
REMARK   10  A    between atoms: C_16  and  C_17
REMARK   11  A    between atoms: C_24  and  N_25
REMARK   12  A    between atoms: C_30  and  C_31
REMARK                            x       y       z     vdW  Elec       q    Type
REMARK                         _______ _______ _______ _____ _____    ______ ____
ROOT
ATOM      1  C   UNL     1       3.126   6.639  18.779  0.00  0.00    +0.000 A 
ATOM      2  C   UNL     1       2.005   7.428  19.112  0.00  0.00    +0.000 A 
ATOM      3  C   UNL     1       1.745   8.645  18.488  0.00  0.00    +0.000 A 
ATOM      4  C   UNL     1       2.659   9.124  17.548  0.00  0.00    +0.000 A 
ATOM      5  C   UNL     1       3.778   8.351  17.223  0.00  0.00    +0.000 A 
ATOM      6  C   UNL     1       4.038   7.083  17.793  0.00  0.00    +0.000 A 
ENDROOT
BRANCH   6   7
ATOM      7  N   UNL     1       5.144   6.382  17.334  0.00  0.00    +0.000 N 
ATOM      8  C   UNL     1       6.507   6.880  17.548  0.00  0.00    +0.000 C 
ATOM      9  C   UNL     1       7.398   5.727  18.018  0.00  0.00    +0.000 C 
ATOM     10  C   UNL     1       7.292   4.474  17.145  0.00  0.00    +0.000 C 
ATOM     11  C   UNL     1       5.835   4.097  16.901  0.00  0.00    +0.000 C 
ATOM     12  C   UNL     1       5.044   5.287  16.360  0.00  0.00    +0.000 C 
ATOM     13  C   UNL     1       5.384   5.679  14.953  0.00  0.00    +0.000 C 
ENDBRANCH   6   7
BRANCH   3  14
ATOM     14  N   UNL     1       0.569   9.390  18.734  0.00  0.00    +0.000 N 
ATOM     15  C   UNL     1       0.499  10.532  19.519  0.00  0.00    +0.000 C 
ATOM     16  O   UNL     1       1.447  11.118  20.037  0.00  0.00    +0.000 OA
ATOM     17  H   UNL     1      -0.275   9.087  18.260  0.00  0.00    +0.000 HD
BRANCH  15  18
ATOM     18  C   UNL     1      -0.892  11.085  19.697  0.00  0.00    +0.000 C 
BRANCH  18  19
ATOM     19  C   UNL     1      -1.931  10.273  18.933  0.00  0.00    +0.000 C 
BRANCH  19  20
ATOM     20  C   UNL     1      -2.435  10.907  17.629  0.00  0.00    +0.000 C 
ATOM     21  C   UNL     1      -2.402  10.014  16.393  0.00  0.00    +0.000 C 
ATOM     22  C   UNL     1      -3.349  10.712  15.423  0.00  0.00    +0.000 C 
ATOM     23  C   UNL     1      -4.403  11.398  16.290  0.00  0.00    +0.000 C 
ATOM     24  C   UNL     1      -3.915  11.281  17.730  0.00  0.00    +0.000 C 
ENDBRANCH  19  20
ENDBRANCH  18  19
ENDBRANCH  15  18
ENDBRANCH   3  14
BRANCH   1  25
ATOM     25  S   UNL     1       3.397   5.091  19.698  0.00  0.00    +0.000 S 
ATOM     26  O   UNL     1       2.445   5.087  20.789  0.00  0.00    +0.000 OA
ATOM     27  O   UNL     1       4.828   4.971  19.889  0.00  0.00    +0.000 OA
BRANCH  25  28
ATOM     28  N   UNL     1       3.080   3.756  18.730  0.00  0.00    +0.000 NA
ATOM     29  H   UNL     1       2.282   3.928  18.125  0.00  0.00    +0.000 HD
BRANCH  28  30
ATOM     30  C   UNL     1       3.120   2.464  19.438  0.00  0.00    +0.000 C 
ATOM     31  C   UNL     1       3.752   1.355  18.597  0.00  0.00    +0.000 C 
BRANCH  30  33
ATOM     32  C   UNL     1       0.683   2.518  18.781  0.00  0.00    +0.000 C 
ATOM     33  C   UNL     1       1.690   2.126  19.822  0.00  0.00    +0.000 C 
ENDBRANCH  30  33
ENDBRANCH  28  30
ENDBRANCH  25  28
ENDBRANCH   1  25
TORSDOF 9
ENDMDL
MODEL 7
REMARK VINA RESULT:      -7.2      3.301      9.264
REMARK  Name = 
REMARK  12 active torsions:
REMARK  status: ('A' for Active; 'I' for Inactive)
REMARK    1  A    between atoms: C_1  and  C_2
REMARK    2  A    between atoms: C_2  and  C_3
REMARK    3  A    between atoms: C_3  and  C_4
REMARK    4  A    between atoms: C_3  and  N_5
REMARK    5  A    between atoms: N_5  and  S_6
REMARK    6  A    between atoms: S_6  and  C_9
REMARK    7  A    between atoms: C_11  and  N_12
REMARK    8  A    between atoms: C_13  and  C_15
REMARK    9  A    between atoms: C_15  and  C_16
REMARK   10  A    between atoms: C_16  and  C_17
REMARK   11  A    between atoms: C_24  and  N_25
REMARK   12  A    between atoms: C_30  and  C_31
REMARK                            x       y       z     vdW  Elec       q    Type
REMARK                         _______ _______ _______ _____ _____    ______ ____
ROOT
ATOM      1  C   UNL     1       2.838   6.277  19.064  0.00  0.00    +0.000 A 
ATOM      2  C   UNL     1       2.493   7.608  19.380  0.00  0.00    +0.000 A 
ATOM      3  C   UNL     1       1.547   7.914  20.355  0.00  0.00    +0.000 A 
ATOM      4  C   UNL     1       0.880   6.869  20.993  0.00  0.00    +0.000 A 
ATOM      5  C   UNL     1       1.211   5.548  20.675  0.00  0.00    +0.000 A 
ATOM      6  C   UNL     1       2.209   5.202  19.736  0.00  0.00    +0.000 A 
ENDROOT
BRANCH   6   7
ATOM      7  N   UNL     1       2.495   3.856  19.560  0.00  0.00    +0.000 N 
ATOM      8  C   UNL     1       1.617   2.984  18.772  0.00  0.00    +0.000 C 
ATOM      9  C   UNL     1       2.470   2.114  17.846  0.00  0.00    +0.000 C 
ATOM     10  C   UNL     1       3.622   1.403  18.560  0.00  0.00    +0.000 C 
ATOM     11  C   UNL     1       4.412   2.375  19.430  0.00  0.00    +0.000 C 
ATOM     12  C   UNL     1       3.487   3.141  20.375  0.00  0.00    +0.000 C 
ATOM     13  C   UNL     1       2.900   2.318  21.482  0.00  0.00    +0.000 C 
ENDBRANCH   6   7
BRANCH   3  14
ATOM     14  N   UNL     1       1.274   9.242  20.757  0.00  0.00    +0.000 N 
ATOM     15  C   UNL     1       0.166   9.639  21.492  0.00  0.00    +0.000 C 
ATOM     16  O   UNL     1      -0.686   8.901  21.981  0.00  0.00    +0.000 OA
ATOM     17  H   UNL     1       1.968   9.945  20.526  0.00  0.00    +0.000 HD
BRANCH  15  18
ATOM     18  C   UNL     1       0.061  11.128  21.711  0.00  0.00    +0.000 C 
BRANCH  18  19
ATOM     19  C   UNL     1       0.456  11.916  20.468  0.00  0.00    +0.000 C 
BRANCH  19  20
ATOM     20  C   UNL     1      -0.658  12.111  19.429  0.00  0.00    +0.000 C 
ATOM     21  C   UNL     1      -0.900  10.942  18.480  0.00  0.00    +0.000 C 
ATOM     22  C   UNL     1      -2.291  11.220  17.919  0.00  0.00    +0.000 C 
ATOM     23  C   UNL     1      -3.050  11.949  19.027  0.00  0.00    +0.000 C 
ATOM     24  C   UNL     1      -2.021  12.280  20.103  0.00  0.00    +0.000 C 
ENDBRANCH  19  20
ENDBRANCH  18  19
ENDBRANCH  15  18
ENDBRANCH   3  14
BRANCH   1  25
ATOM     25  S   UNL     1       4.048   5.991  17.734  0.00  0.00    +0.000 S 
ATOM     26  O   UNL     1       4.253   7.267  17.081  0.00  0.00    +0.000 OA
ATOM     27  O   UNL     1       3.616   4.798  17.034  0.00  0.00    +0.000 OA
BRANCH  25  28
ATOM     28  N   UNL     1       5.522   5.489  18.362  0.00  0.00    +0.000 NA
ATOM     29  H   UNL     1       5.604   5.743  19.342  0.00  0.00    +0.000 HD
BRANCH  28  30
ATOM     30  C   UNL     1       6.683   5.767  17.497  0.00  0.00    +0.000 C 
ATOM     31  C   UNL     1       7.388   4.493  17.035  0.00  0.00    +0.000 C 
BRANCH  30  33
ATOM     32  C   UNL     1       7.827   8.011  17.655  0.00  0.00    +0.000 C 
ATOM     33  C   UNL     1       7.617   6.667  18.287  0.00  0.00    +0.000 C 
ENDBRANCH  30  33
ENDBRANCH  28  30
ENDBRANCH  25  28
ENDBRANCH   1  25
TORSDOF 9
ENDMDL
MODEL 8
REMARK VINA RESULT:      -7.1      3.481      9.628
REMARK  Name = 
REMARK  12 active torsions:
REMARK  status: ('A' for Active; 'I' for Inactive)
REMARK    1  A    between atoms: C_1  and  C_2
REMARK    2  A    between atoms: C_2  and  C_3
REMARK    3  A    between atoms: C_3  and  C_4
REMARK    4  A    between atoms: C_3  and  N_5
REMARK    5  A    between atoms: N_5  and  S_6
REMARK    6  A    between atoms: S_6  and  C_9
REMARK    7  A    between atoms: C_11  and  N_12
REMARK    8  A    between atoms: C_13  and  C_15
REMARK    9  A    between atoms: C_15  and  C_16
REMARK   10  A    between atoms: C_16  and  C_17
REMARK   11  A    between atoms: C_24  and  N_25
REMARK   12  A    between atoms: C_30  and  C_31
REMARK                            x       y       z     vdW  Elec       q    Type
REMARK                         _______ _______ _______ _____ _____    ______ ____
ROOT
ATOM      1  C   UNL     1       2.865   6.358  18.991  0.00  0.00    +0.000 A 
ATOM      2  C   UNL     1       2.555   7.703  19.281  0.00  0.00    +0.000 A 
ATOM      3  C   UNL     1       1.603   8.054  20.235  0.00  0.00    +0.000 A 
ATOM      4  C   UNL     1       0.893   7.039  20.876  0.00  0.00    +0.000 A 
ATOM      5  C   UNL     1       1.188   5.704  20.584  0.00  0.00    +0.000 A 
ATOM      6  C   UNL     1       2.192   5.313  19.667  0.00  0.00    +0.000 A 
ENDROOT
BRANCH   6   7
ATOM      7  N   UNL     1       2.439   3.956  19.517  0.00  0.00    +0.000 N 
ATOM      8  C   UNL     1       1.547   3.099  18.729  0.00  0.00    +0.000 C 
ATOM      9  C   UNL     1       2.386   2.189  17.829  0.00  0.00    +0.000 C 
ATOM     10  C   UNL     1       3.506   1.455  18.572  0.00  0.00    +0.000 C 
ATOM     11  C   UNL     1       4.312   2.417  19.437  0.00  0.00    +0.000 C 
ATOM     12  C   UNL     1       3.397   3.225  20.357  0.00  0.00    +0.000 C 
ATOM     13  C   UNL     1       2.771   2.438  21.468  0.00  0.00    +0.000 C 
ENDBRANCH   6   7
BRANCH   3  14
ATOM     14  N   UNL     1       1.363   9.395  20.612  0.00  0.00    +0.000 N 
ATOM     15  C   UNL     1       0.616  10.307  19.879  0.00  0.00    +0.000 C 
ATOM     16  O   UNL     1      -0.020  10.070  18.854  0.00  0.00    +0.000 OA
ATOM     17  H   UNL     1       1.729   9.694  21.510  0.00  0.00    +0.000 HD
BRANCH  15  18
ATOM     18  C   UNL     1       0.589  11.700  20.455  0.00  0.00    +0.000 C 
BRANCH  18  19
ATOM     19  C   UNL     1       1.527  12.643  19.711  0.00  0.00    +0.000 C 
BRANCH  19  20
ATOM     20  C   UNL     1       1.105  14.120  19.701  0.00  0.00    +0.000 C 
ATOM     21  C   UNL     1      -0.071  14.474  18.797  0.00  0.00    +0.000 C 
ATOM     22  C   UNL     1      -0.536  15.826  19.331  0.00  0.00    +0.000 C 
ATOM     23  C   UNL     1      -0.228  15.813  20.827  0.00  0.00    +0.000 C 
ATOM     24  C   UNL     1       0.612  14.564  21.079  0.00  0.00    +0.000 C 
ENDBRANCH  19  20
ENDBRANCH  18  19
ENDBRANCH  15  18
ENDBRANCH   3  14
BRANCH   1  25
ATOM     25  S   UNL     1       4.087   6.015  17.686  0.00  0.00    +0.000 S 
ATOM     26  O   UNL     1       4.313   7.266  16.993  0.00  0.00    +0.000 OA
ATOM     27  O   UNL     1       3.651   4.804  17.022  0.00  0.00    +0.000 OA
BRANCH  25  28
ATOM     28  N   UNL     1       5.548   5.519  18.349  0.00  0.00    +0.000 NA
ATOM     29  H   UNL     1       5.613   5.789  19.327  0.00  0.00    +0.000 HD
BRANCH  28  30
ATOM     30  C   UNL     1       6.725   5.781  17.502  0.00  0.00    +0.000 C 
ATOM     31  C   UNL     1       7.444   4.499  17.084  0.00  0.00    +0.000 C 
BRANCH  30  33
ATOM     32  C   UNL     1       7.814   8.053  17.659  0.00  0.00    +0.000 C 
ATOM     33  C   UNL     1       7.641   6.702  18.289  0.00  0.00    +0.000 C 
ENDBRANCH  30  33
ENDBRANCH  28  30
ENDBRANCH  25  28
ENDBRANCH   1  25
TORSDOF 9
ENDMDL
MODEL 9
REMARK VINA RESULT:      -7.1      1.160      1.497
REMARK  Name = 
REMARK  12 active torsions:
REMARK  status: ('A' for Active; 'I' for Inactive)
REMARK    1  A    between atoms: C_1  and  C_2
REMARK    2  A    between atoms: C_2  and  C_3
REMARK    3  A    between atoms: C_3  and  C_4
REMARK    4  A    between atoms: C_3  and  N_5
REMARK    5  A    between atoms: N_5  and  S_6
REMARK    6  A    between atoms: S_6  and  C_9
REMARK    7  A    between atoms: C_11  and  N_12
REMARK    8  A    between atoms: C_13  and  C_15
REMARK    9  A    between atoms: C_15  and  C_16
REMARK   10  A    between atoms: C_16  and  C_17
REMARK   11  A    between atoms: C_24  and  N_25
REMARK   12  A    between atoms: C_30  and  C_31
REMARK                            x       y       z     vdW  Elec       q    Type
REMARK                         _______ _______ _______ _____ _____    ______ ____
ROOT
ATOM      1  C   UNL     1      -0.922  11.445  20.529  0.00  0.00    +0.000 A 
ATOM      2  C   UNL     1      -0.131  10.373  20.066  0.00  0.00    +0.000 A 
ATOM      3  C   UNL     1       0.502   9.491  20.938  0.00  0.00    +0.000 A 
ATOM      4  C   UNL     1       0.396   9.714  22.311  0.00  0.00    +0.000 A 
ATOM      5  C   UNL     1      -0.379  10.782  22.775  0.00  0.00    +0.000 A 
ATOM      6  C   UNL     1      -1.084  11.659  21.919  0.00  0.00    +0.000 A 
ENDROOT
BRANCH   6   7
ATOM      7  N   UNL     1      -1.876  12.637  22.503  0.00  0.00    +0.000 N 
ATOM      8  C   UNL     1      -1.286  13.752  23.252  0.00  0.00    +0.000 C 
ATOM      9  C   UNL     1      -1.973  15.056  22.839  0.00  0.00    +0.000 C 
ATOM     10  C   UNL     1      -3.502  14.983  22.877  0.00  0.00    +0.000 C 
ATOM     11  C   UNL     1      -4.010  13.738  22.157  0.00  0.00    +0.000 C 
ATOM     12  C   UNL     1      -3.325  12.480  22.690  0.00  0.00    +0.000 C 
ATOM     13  C   UNL     1      -3.730  12.085  24.078  0.00  0.00    +0.000 C 
ENDBRANCH   6   7
BRANCH   3  14
ATOM     14  N   UNL     1       1.206   8.351  20.486  0.00  0.00    +0.000 N 
ATOM     15  C   UNL     1       1.891   8.263  19.283  0.00  0.00    +0.000 C 
ATOM     16  O   UNL     1       2.069   9.175  18.478  0.00  0.00    +0.000 OA
ATOM     17  H   UNL     1       1.248   7.556  21.116  0.00  0.00    +0.000 HD
BRANCH  15  18
ATOM     18  C   UNL     1       2.481   6.905  18.996  0.00  0.00    +0.000 C 
BRANCH  18  19
ATOM     19  C   UNL     1       2.317   5.952  20.173  0.00  0.00    +0.000 C 
BRANCH  19  20
ATOM     20  C   UNL     1       2.239   4.462  19.808  0.00  0.00    +0.000 C 
ATOM     21  C   UNL     1       0.896   3.782  20.053  0.00  0.00    +0.000 C 
ATOM     22  C   UNL     1       0.975   2.518  19.202  0.00  0.00    +0.000 C 
ATOM     23  C   UNL     1       1.856   2.875  18.007  0.00  0.00    +0.000 C 
ATOM     24  C   UNL     1       2.452   4.246  18.308  0.00  0.00    +0.000 C 
ENDBRANCH  19  20
ENDBRANCH  18  19
ENDBRANCH  15  18
ENDBRANCH   3  14
BRANCH   1  25
ATOM     25  S   UNL     1      -1.658  12.569  19.301  0.00  0.00    +0.000 S 
ATOM     26  O   UNL     1      -0.966  12.327  18.053  0.00  0.00    +0.000 OA
ATOM     27  O   UNL     1      -1.734  13.873  19.929  0.00  0.00    +0.000 OA
BRANCH  25  28
ATOM     28  N   UNL     1      -3.284  12.221  19.067  0.00  0.00    +0.000 NA
ATOM     29  H   UNL     1      -3.672  11.742  19.875  0.00  0.00    +0.000 HD
BRANCH  28  30
ATOM     30  C   UNL     1      -3.607  11.668  17.740  0.00  0.00    +0.000 C 
ATOM     31  C   UNL     1      -5.068  11.892  17.352  0.00  0.00    +0.000 C 
BRANCH  30  33
ATOM     32  C   UNL     1      -2.627   9.692  16.515  0.00  0.00    +0.000 C 
ATOM     33  C   UNL     1      -3.260  10.190  17.780  0.00  0.00    +0.000 C 
ENDBRANCH  30  33
ENDBRANCH  28  30
ENDBRANCH  25  28
ENDBRANCH   1  25
TORSDOF 9
ENDMDL
