MODEL 1
REMARK VINA RESULT:      -7.6      0.000      0.000
REMARK  Name = 
REMARK  11 active torsions:
REMARK  status: ('A' for Active; 'I' for Inactive)
REMARK    1  A    between atoms: C_2  and  C_3
REMARK    2  A    between atoms: C_2  and  C_11
REMARK    3  A    between atoms: C_3  and  C_4
REMARK    4  A    between atoms: C_4  and  C_5
REMARK    5  A    between atoms: C_16  and  O_17
REMARK    6  A    between atoms: O_17  and  C_18
REMARK    7  A    between atoms: C_18  and  C_19
REMARK    8  A    between atoms: C_19  and  O_20
REMARK    9  A    between atoms: C_19  and  C_21
REMARK   10  A    between atoms: C_21  and  N_22
REMARK   11  A    between atoms: N_22  and  C_23
REMARK                            x       y       z     vdW  Elec       q    Type
REMARK                         _______ _______ _______ _____ _____    ______ ____
ROOT
ATOM      1  C   UNL     1       6.593   5.793  17.319  0.00  0.00    +0.000 A 
ATOM      2  C   UNL     1       7.245   5.386  16.116  0.00  0.00    +0.000 A 
ATOM      3  C   UNL     1       6.553   4.679  15.122  0.00  0.00    +0.000 A 
ATOM      4  C   UNL     1       5.225   4.369  15.302  0.00  0.00    +0.000 A 
ATOM      5  C   UNL     1       4.585   4.744  16.469  0.00  0.00    +0.000 A 
ATOM      6  C   UNL     1       5.235   5.462  17.496  0.00  0.00    +0.000 A 
ENDROOT
BRANCH   1   8
ATOM      7  O   UNL     1       7.912   6.016  19.276  0.00  0.00    +0.000 OA
ATOM      8  C   UNL     1       7.481   6.561  18.257  0.00  0.00    +0.000 C 
BRANCH   8   9
ATOM      9  C   UNL     1       7.836   7.988  17.924  0.00  0.00    +0.000 C 
BRANCH   9  10
ATOM     10  C   UNL     1       8.909   8.552  18.857  0.00  0.00    +0.000 C 
BRANCH  10  11
ATOM     11  C   UNL     1       8.965  10.063  18.834  0.00  0.00    +0.000 A 
ATOM     12  C   UNL     1       8.565  10.760  17.686  0.00  0.00    +0.000 A 
ATOM     13  C   UNL     1       8.598  12.155  17.653  0.00  0.00    +0.000 A 
ATOM     14  C   UNL     1       9.030  12.870  18.767  0.00  0.00    +0.000 A 
ATOM     15  C   UNL     1       9.419  12.191  19.920  0.00  0.00    +0.000 A 
ATOM     16  C   UNL     1       9.381  10.794  19.955  0.00  0.00    +0.000 A 
ENDBRANCH  10  11
ENDBRANCH   9  10
ENDBRANCH   8   9
ENDBRANCH   1   8
BRANCH   6  17
ATOM     17  O   UNL     1       4.540   5.801  18.649  0.00  0.00    +0.000 OA
BRANCH  17  18
ATOM     18  C   UNL     1       3.222   6.348  18.393  0.00  0.00    +0.000 C 
BRANCH  18  19
ATOM     19  C   UNL     1       2.639   7.146  19.560  0.00  0.00    +0.000 C 
BRANCH  19  20
ATOM     20  O   UNL     1       1.870   8.244  19.077  0.00  0.00    +0.000 OA
ATOM     21  H   UNL     1       2.289   8.531  18.246  0.00  0.00    +0.000 HD
ENDBRANCH  19  20
BRANCH  19  22
ATOM     22  C   UNL     1       1.808   6.242  20.484  0.00  0.00    +0.000 C 
BRANCH  22  23
ATOM     23  N   UNL     1       2.613   5.086  20.874  0.00  0.00    +0.000 NA
ATOM     24  H   UNL     1       3.090   5.294  21.754  0.00  0.00    +0.000 HD
BRANCH  23  25
ATOM     25  C   UNL     1       1.900   3.818  21.021  0.00  0.00    +0.000 C 
ATOM     26  C   UNL     1       0.875   3.493  19.918  0.00  0.00    +0.000 C 
ATOM     27  C   UNL     1       1.490   3.196  18.549  0.00  0.00    +0.000 C 
ATOM     28  C   UNL     1       2.594   2.145  18.633  0.00  0.00    +0.000 C 
ATOM     29  C   UNL     1       3.639   2.518  19.678  0.00  0.00    +0.000 C 
ATOM     30  C   UNL     1       2.987   2.726  21.050  0.00  0.00    +0.000 C 
ENDBRANCH  23  25
ENDBRANCH  22  23
ENDBRANCH  19  22
ENDBRANCH  18  19
ENDBRANCH  17  18
ENDBRANCH   6  17
TORSDOF 11
ENDMDL
MODEL 2
REMARK VINA RESULT:      -7.5      1.106      1.255
REMARK  Name = 
REMARK  11 active torsions:
REMARK  status: ('A' for Active; 'I' for Inactive)
REMARK    1  A    between atoms: C_2  and  C_3
REMARK    2  A    between atoms: C_2  and  C_11
REMARK    3  A    between atoms: C_3  and  C_4
REMARK    4  A    between atoms: C_4  and  C_5
REMARK    5  A    between atoms: C_16  and  O_17
REMARK    6  A    between atoms: O_17  and  C_18
REMARK    7  A    between atoms: C_18  and  C_19
REMARK    8  A    between atoms: C_19  and  O_20
REMARK    9  A    between atoms: C_19  and  C_21
REMARK   10  A    between atoms: C_21  and  N_22
REMARK   11  A    between atoms: N_22  and  C_23
REMARK                            x       y       z     vdW  Elec       q    Type
REMARK                         _______ _______ _______ _____ _____    ______ ____
ROOT
ATOM      1  C   UNL     1       6.786   6.166  17.223  0.00  0.00    +0.000 A 
ATOM      2  C   UNL     1       7.429   5.178  16.417  0.00  0.00    +0.000 A 
ATOM      3  C   UNL     1       6.691   4.358  15.552  0.00  0.00    +0.000 A 
ATOM      4  C   UNL     1       5.325   4.503  15.472  0.00  0.00    +0.000 A 
ATOM      5  C   UNL     1       4.688   5.445  16.257  0.00  0.00    +0.000 A 
ATOM      6  C   UNL     1       5.386   6.299  17.138  0.00  0.00    +0.000 A 
ENDROOT
BRANCH   1   8
ATOM      7  O   UNL     1       8.300   6.435  19.026  0.00  0.00    +0.000 OA
ATOM      8  C   UNL     1       7.736   6.968  18.068  0.00  0.00    +0.000 C 
BRANCH   8   9
ATOM      9  C   UNL     1       7.988   8.412  17.717  0.00  0.00    +0.000 C 
BRANCH   9  10
ATOM     10  C   UNL     1       8.813   9.133  18.784  0.00  0.00    +0.000 C 
BRANCH  10  11
ATOM     11  C   UNL     1       9.136  10.560  18.404  0.00  0.00    +0.000 A 
ATOM     12  C   UNL     1       8.172  11.348  17.761  0.00  0.00    +0.000 A 
ATOM     13  C   UNL     1       8.450  12.672  17.416  0.00  0.00    +0.000 A 
ATOM     14  C   UNL     1       9.694  13.225  17.709  0.00  0.00    +0.000 A 
ATOM     15  C   UNL     1      10.658  12.457  18.359  0.00  0.00    +0.000 A 
ATOM     16  C   UNL     1      10.378  11.134  18.711  0.00  0.00    +0.000 A 
ENDBRANCH  10  11
ENDBRANCH   9  10
ENDBRANCH   8   9
ENDBRANCH   1   8
BRANCH   6  17
ATOM     17  O   UNL     1       4.687   7.219  17.908  0.00  0.00    +0.000 OA
BRANCH  17  18
ATOM     18  C   UNL     1       3.370   7.530  17.390  0.00  0.00    +0.000 C 
BRANCH  18  19
ATOM     19  C   UNL     1       2.442   8.203  18.401  0.00  0.00    +0.000 C 
BRANCH  19  20
ATOM     20  O   UNL     1       1.246   8.643  17.763  0.00  0.00    +0.000 OA
ATOM     21  H   UNL     1       1.262   8.276  16.861  0.00  0.00    +0.000 HD
ENDBRANCH  19  20
BRANCH  19  22
ATOM     22  C   UNL     1       2.137   7.263  19.578  0.00  0.00    +0.000 C 
BRANCH  22  23
ATOM     23  N   UNL     1       2.324   5.879  19.146  0.00  0.00    +0.000 NA
ATOM     24  H   UNL     1       2.974   5.862  18.358  0.00  0.00    +0.000 HD
BRANCH  23  25
ATOM     25  C   UNL     1       2.800   4.941  20.161  0.00  0.00    +0.000 C 
ATOM     26  C   UNL     1       1.708   4.182  20.939  0.00  0.00    +0.000 C 
ATOM     27  C   UNL     1       0.926   3.165  20.105  0.00  0.00    +0.000 C 
ATOM     28  C   UNL     1       1.850   2.218  19.345  0.00  0.00    +0.000 C 
ATOM     29  C   UNL     1       2.879   2.984  18.523  0.00  0.00    +0.000 C 
ATOM     30  C   UNL     1       3.692   3.930  19.414  0.00  0.00    +0.000 C 
ENDBRANCH  23  25
ENDBRANCH  22  23
ENDBRANCH  19  22
ENDBRANCH  18  19
ENDBRANCH  17  18
ENDBRANCH   6  17
TORSDOF 11
ENDMDL
MODEL 3
REMARK VINA RESULT:      -7.3      2.224      8.624
REMARK  Name = 
REMARK  11 active torsions:
REMARK  status: ('A' for Active; 'I' for Inactive)
REMARK    1  A    between atoms: C_2  and  C_3
REMARK    2  A    between atoms: C_2  and  C_11
REMARK    3  A    between atoms: C_3  and  C_4
REMARK    4  A    between atoms: C_4  and  C_5
REMARK    5  A    between atoms: C_16  and  O_17
REMARK    6  A    between atoms: O_17  and  C_18
REMARK    7  A    between atoms: C_18  and  C_19
REMARK    8  A    between atoms: C_19  and  O_20
REMARK    9  A    between atoms: C_19  and  C_21
REMARK   10  A    between atoms: C_21  and  N_22
REMARK   11  A    between atoms: N_22  and  C_23
REMARK                            x       y       z     vdW  Elec       q    Type
REMARK                         _______ _______ _______ _____ _____    ______ ____
ROOT
ATOM      1  C   UNL     1       5.504   5.135  17.175  0.00  0.00    +0.000 A 
ATOM      2  C   UNL     1       4.632   4.313  16.398  0.00  0.00    +0.000 A 
ATOM      3  C   UNL     1       5.070   3.720  15.206  0.00  0.00    +0.000 A 
ATOM      4  C   UNL     1       6.359   3.927  14.772  0.00  0.00    +0.000 A 
ATOM      5  C   UNL     1       7.209   4.732  15.507  0.00  0.00    +0.000 A 
ATOM      6  C   UNL     1       6.819   5.347  16.716  0.00  0.00    +0.000 A 
ENDROOT
BRANCH   1   8
ATOM      7  O   UNL     1       5.379   5.408  19.526  0.00  0.00    +0.000 OA
ATOM      8  C   UNL     1       4.872   5.665  18.432  0.00  0.00    +0.000 C 
BRANCH   8   9
ATOM      9  C   UNL     1       3.629   6.511  18.326  0.00  0.00    +0.000 C 
BRANCH   9  10
ATOM     10  C   UNL     1       2.678   6.295  19.504  0.00  0.00    +0.000 C 
BRANCH  10  11
ATOM     11  C   UNL     1       2.149   4.881  19.573  0.00  0.00    +0.000 A 
ATOM     12  C   UNL     1       2.156   4.190  20.793  0.00  0.00    +0.000 A 
ATOM     13  C   UNL     1       1.659   2.889  20.877  0.00  0.00    +0.000 A 
ATOM     14  C   UNL     1       1.148   2.261  19.743  0.00  0.00    +0.000 A 
ATOM     15  C   UNL     1       1.124   2.939  18.527  0.00  0.00    +0.000 A 
ATOM     16  C   UNL     1       1.616   4.245  18.443  0.00  0.00    +0.000 A 
ENDBRANCH  10  11
ENDBRANCH   9  10
ENDBRANCH   8   9
ENDBRANCH   1   8
BRANCH   6  17
ATOM     17  O   UNL     1       7.716   6.153  17.403  0.00  0.00    +0.000 OA
BRANCH  17  18
ATOM     18  C   UNL     1       7.613   7.558  17.063  0.00  0.00    +0.000 C 
BRANCH  18  19
ATOM     19  C   UNL     1       7.891   8.506  18.230  0.00  0.00    +0.000 C 
BRANCH  19  20
ATOM     20  O   UNL     1       8.844   7.933  19.121  0.00  0.00    +0.000 OA
ATOM     21  H   UNL     1       8.494   7.061  19.378  0.00  0.00    +0.000 HD
ENDBRANCH  19  20
BRANCH  19  22
ATOM     22  C   UNL     1       8.353   9.882  17.723  0.00  0.00    +0.000 C 
BRANCH  22  23
ATOM     23  N   UNL     1       9.386  10.400  18.619  0.00  0.00    +0.000 NA
ATOM     24  H   UNL     1       9.969   9.623  18.937  0.00  0.00    +0.000 HD
BRANCH  23  25
ATOM     25  C   UNL     1      10.255  11.441  18.073  0.00  0.00    +0.000 C 
ATOM     26  C   UNL     1       9.631  12.845  17.960  0.00  0.00    +0.000 C 
ATOM     27  C   UNL     1       9.355  13.525  19.303  0.00  0.00    +0.000 C 
ATOM     28  C   UNL     1      10.580  13.514  20.213  0.00  0.00    +0.000 C 
ATOM     29  C   UNL     1      11.142  12.107  20.372  0.00  0.00    +0.000 C 
ATOM     30  C   UNL     1      11.480  11.497  19.007  0.00  0.00    +0.000 C 
ENDBRANCH  23  25
ENDBRANCH  22  23
ENDBRANCH  19  22
ENDBRANCH  18  19
ENDBRANCH  17  18
ENDBRANCH   6  17
TORSDOF 11
ENDMDL
MODEL 4
REMARK VINA RESULT:      -7.3      1.017      1.379
REMARK  Name = 
REMARK  11 active torsions:
REMARK  status: ('A' for Active; 'I' for Inactive)
REMARK    1  A    between atoms: C_2  and  C_3
REMARK    2  A    between atoms: C_2  and  C_11
REMARK    3  A    between atoms: C_3  and  C_4
REMARK    4  A    between atoms: C_4  and  C_5
REMARK    5  A    between atoms: C_16  and  O_17
REMARK    6  A    between atoms: O_17  and  C_18
REMARK    7  A    between atoms: C_18  and  C_19
REMARK    8  A    between atoms: C_19  and  O_20
REMARK    9  A    between atoms: C_19  and  C_21
REMARK   10  A    between atoms: C_21  and  N_22
REMARK   11  A    between atoms: N_22  and  C_23
REMARK                            x       y       z     vdW  Elec       q    Type
REMARK                         _______ _______ _______ _____ _____    ______ ____
ROOT
ATOM      1  C   UNL     1       6.802   6.234  16.915  0.00  0.00    +0.000 A 
ATOM      2  C   UNL     1       7.572   5.309  16.147  0.00  0.00    +0.000 A 
ATOM      3  C   UNL     1       6.976   4.524  15.150  0.00  0.00    +0.000 A 
ATOM      4  C   UNL     1       5.628   4.641  14.902  0.00  0.00    +0.000 A 
ATOM      5  C   UNL     1       4.867   5.523  15.648  0.00  0.00    +0.000 A 
ATOM      6  C   UNL     1       5.421   6.339  16.657  0.00  0.00    +0.000 A 
ENDROOT
BRANCH   1   8
ATOM      7  O   UNL     1       8.038   6.440  18.927  0.00  0.00    +0.000 OA
ATOM      8  C   UNL     1       7.611   7.007  17.918  0.00  0.00    +0.000 C 
BRANCH   8   9
ATOM      9  C   UNL     1       7.894   8.465  17.663  0.00  0.00    +0.000 C 
BRANCH   9  10
ATOM     10  C   UNL     1       8.783   9.082  18.745  0.00  0.00    +0.000 C 
BRANCH  10  11
ATOM     11  C   UNL     1       9.102  10.535  18.478  0.00  0.00    +0.000 A 
ATOM     12  C   UNL     1      10.306  11.084  18.938  0.00  0.00    +0.000 A 
ATOM     13  C   UNL     1      10.622  12.420  18.688  0.00  0.00    +0.000 A 
ATOM     14  C   UNL     1       9.737  13.225  17.975  0.00  0.00    +0.000 A 
ATOM     15  C   UNL     1       8.541  12.691  17.500  0.00  0.00    +0.000 A 
ATOM     16  C   UNL     1       8.228  11.351  17.745  0.00  0.00    +0.000 A 
ENDBRANCH  10  11
ENDBRANCH   9  10
ENDBRANCH   8   9
ENDBRANCH   1   8
BRANCH   6  17
ATOM     17  O   UNL     1       4.602   7.198  17.378  0.00  0.00    +0.000 OA
BRANCH  17  18
ATOM     18  C   UNL     1       3.997   6.582  18.543  0.00  0.00    +0.000 C 
BRANCH  18  19
ATOM     19  C   UNL     1       2.725   7.277  19.028  0.00  0.00    +0.000 C 
BRANCH  19  20
ATOM     20  O   UNL     1       1.858   7.551  17.930  0.00  0.00    +0.000 OA
ATOM     21  H   UNL     1       0.951   7.400  18.249  0.00  0.00    +0.000 HD
ENDBRANCH  19  20
BRANCH  19  22
ATOM     22  C   UNL     1       2.017   6.439  20.105  0.00  0.00    +0.000 C 
BRANCH  22  23
ATOM     23  N   UNL     1       2.399   5.036  19.948  0.00  0.00    +0.000 NA
ATOM     24  H   UNL     1       2.661   4.659  20.861  0.00  0.00    +0.000 HD
BRANCH  23  25
ATOM     25  C   UNL     1       1.398   4.154  19.352  0.00  0.00    +0.000 C 
ATOM     26  C   UNL     1       1.427   4.047  17.816  0.00  0.00    +0.000 C 
ATOM     27  C   UNL     1       2.657   3.331  17.254  0.00  0.00    +0.000 C 
ATOM     28  C   UNL     1       2.890   1.981  17.926  0.00  0.00    +0.000 C 
ATOM     29  C   UNL     1       2.931   2.114  19.444  0.00  0.00    +0.000 C 
ATOM     30  C   UNL     1       1.645   2.762  19.968  0.00  0.00    +0.000 C 
ENDBRANCH  23  25
ENDBRANCH  22  23
ENDBRANCH  19  22
ENDBRANCH  18  19
ENDBRANCH  17  18
ENDBRANCH   6  17
TORSDOF 11
ENDMDL
MODEL 5
REMARK VINA RESULT:      -7.2      2.736      6.119
REMARK  Name = 
REMARK  11 active torsions:
REMARK  status: ('A' for Active; 'I' for Inactive)
REMARK    1  A    between atoms: C_2  and  C_3
REMARK    2  A    between atoms: C_2  and  C_11
REMARK    3  A    between atoms: C_3  and  C_4
REMARK    4  A    between atoms: C_4  and  C_5
REMARK    5  A    between atoms: C_16  and  O_17
REMARK    6  A    between atoms: O_17  and  C_18
REMARK    7  A    between atoms: C_18  and  C_19
REMARK    8  A    between atoms: C_19  and  O_20
REMARK    9  A    between atoms: C_19  and  C_21
REMARK   10  A    between atoms: C_21  and  N_22
REMARK   11  A    between atoms: N_22  and  C_23
REMARK                            x       y       z     vdW  Elec       q    Type
REMARK                         _______ _______ _______ _____ _____    ______ ____
ROOT
ATOM      1  C   UNL     1       2.539   3.703  19.050  0.00  0.00    +0.000 A 
ATOM      2  C   UNL     1       1.953   2.472  19.475  0.00  0.00    +0.000 A 
ATOM      3  C   UNL     1       1.575   2.275  20.811  0.00  0.00    +0.000 A 
ATOM      4  C   UNL     1       1.767   3.280  21.731  0.00  0.00    +0.000 A 
ATOM      5  C   UNL     1       2.346   4.471  21.336  0.00  0.00    +0.000 A 
ATOM      6  C   UNL     1       2.738   4.720  20.003  0.00  0.00    +0.000 A 
ENDROOT
BRANCH   1   8
ATOM      7  O   UNL     1       1.940   3.757  16.757  0.00  0.00    +0.000 OA
ATOM      8  C   UNL     1       2.857   3.743  17.581  0.00  0.00    +0.000 C 
BRANCH   8   9
ATOM      9  C   UNL     1       4.300   3.776  17.145  0.00  0.00    +0.000 C 
BRANCH   9  10
ATOM     10  C   UNL     1       4.701   5.134  16.568  0.00  0.00    +0.000 C 
BRANCH  10  11
ATOM     11  C   UNL     1       5.881   5.747  17.287  0.00  0.00    +0.000 A 
ATOM     12  C   UNL     1       6.510   5.044  18.323  0.00  0.00    +0.000 A 
ATOM     13  C   UNL     1       7.610   5.589  18.989  0.00  0.00    +0.000 A 
ATOM     14  C   UNL     1       8.094   6.843  18.626  0.00  0.00    +0.000 A 
ATOM     15  C   UNL     1       7.487   7.549  17.589  0.00  0.00    +0.000 A 
ATOM     16  C   UNL     1       6.390   7.000  16.919  0.00  0.00    +0.000 A 
ENDBRANCH  10  11
ENDBRANCH   9  10
ENDBRANCH   8   9
ENDBRANCH   1   8
BRANCH   6  17
ATOM     17  O   UNL     1       3.325   5.934  19.670  0.00  0.00    +0.000 OA
BRANCH  17  18
ATOM     18  C   UNL     1       2.425   7.065  19.785  0.00  0.00    +0.000 C 
BRANCH  18  19
ATOM     19  C   UNL     1       2.408   7.978  18.559  0.00  0.00    +0.000 C 
BRANCH  19  20
ATOM     20  O   UNL     1       1.916   7.274  17.422  0.00  0.00    +0.000 OA
ATOM     21  H   UNL     1       1.446   7.929  16.874  0.00  0.00    +0.000 HD
ENDBRANCH  19  20
BRANCH  19  22
ATOM     22  C   UNL     1       1.587   9.249  18.831  0.00  0.00    +0.000 C 
BRANCH  22  23
ATOM     23  N   UNL     1       1.204   9.278  20.242  0.00  0.00    +0.000 NA
ATOM     24  H   UNL     1       1.585  10.124  20.671  0.00  0.00    +0.000 HD
BRANCH  23  25
ATOM     25  C   UNL     1      -0.228   9.218  20.526  0.00  0.00    +0.000 C 
ATOM     26  C   UNL     1      -0.613   8.691  21.922  0.00  0.00    +0.000 C 
ATOM     27  C   UNL     1      -0.238   9.623  23.076  0.00  0.00    +0.000 C 
ATOM     28  C   UNL     1      -0.734  11.048  22.845  0.00  0.00    +0.000 C 
ATOM     29  C   UNL     1      -0.284  11.581  21.490  0.00  0.00    +0.000 C 
ATOM     30  C   UNL     1      -0.751  10.658  20.359  0.00  0.00    +0.000 C 
ENDBRANCH  23  25
ENDBRANCH  22  23
ENDBRANCH  19  22
ENDBRANCH  18  19
ENDBRANCH  17  18
ENDBRANCH   6  17
TORSDOF 11
ENDMDL
MODEL 6
REMARK VINA RESULT:      -7.1      2.895      7.021
REMARK  Name = 
REMARK  11 active torsions:
REMARK  status: ('A' for Active; 'I' for Inactive)
REMARK    1  A    between atoms: C_2  and  C_3
REMARK    2  A    between atoms: C_2  and  C_11
REMARK    3  A    between atoms: C_3  and  C_4
REMARK    4  A    between atoms: C_4  and  C_5
REMARK    5  A    between atoms: C_16  and  O_17
REMARK    6  A    between atoms: O_17  and  C_18
REMARK    7  A    between atoms: C_18  and  C_19
REMARK    8  A    between atoms: C_19  and  O_20
REMARK    9  A    between atoms: C_19  and  C_21
REMARK   10  A    between atoms: C_21  and  N_22
REMARK   11  A    between atoms: N_22  and  C_23
REMARK                            x       y       z     vdW  Elec       q    Type
REMARK                         _______ _______ _______ _____ _____    ______ ____
ROOT
ATOM      1  C   UNL     1       1.959   4.923  19.724  0.00  0.00    +0.000 A 
ATOM      2  C   UNL     1       2.139   4.804  21.136  0.00  0.00    +0.000 A 
ATOM      3  C   UNL     1       2.018   3.565  21.778  0.00  0.00    +0.000 A 
ATOM      4  C   UNL     1       1.722   2.439  21.044  0.00  0.00    +0.000 A 
ATOM      5  C   UNL     1       1.531   2.542  19.679  0.00  0.00    +0.000 A 
ATOM      6  C   UNL     1       1.649   3.765  18.984  0.00  0.00    +0.000 A 
ENDROOT
BRANCH   1   8
ATOM      7  O   UNL     1       2.359   6.505  18.005  0.00  0.00    +0.000 OA
ATOM      8  C   UNL     1       2.152   6.320  19.206  0.00  0.00    +0.000 C 
BRANCH   8   9
ATOM      9  C   UNL     1       2.077   7.475  20.172  0.00  0.00    +0.000 C 
BRANCH   9  10
ATOM     10  C   UNL     1       0.780   7.471  20.983  0.00  0.00    +0.000 C 
BRANCH  10  11
ATOM     11  C   UNL     1       0.345   8.861  21.391  0.00  0.00    +0.000 A 
ATOM     12  C   UNL     1      -0.371   9.048  22.582  0.00  0.00    +0.000 A 
ATOM     13  C   UNL     1      -0.768  10.325  22.980  0.00  0.00    +0.000 A 
ATOM     14  C   UNL     1      -0.455  11.431  22.194  0.00  0.00    +0.000 A 
ATOM     15  C   UNL     1       0.266  11.262  21.014  0.00  0.00    +0.000 A 
ATOM     16  C   UNL     1       0.669   9.984  20.618  0.00  0.00    +0.000 A 
ENDBRANCH  10  11
ENDBRANCH   9  10
ENDBRANCH   8   9
ENDBRANCH   1   8
BRANCH   6  17
ATOM     17  O   UNL     1       1.435   3.804  17.613  0.00  0.00    +0.000 OA
BRANCH  17  18
ATOM     18  C   UNL     1       2.426   3.073  16.849  0.00  0.00    +0.000 C 
BRANCH  18  19
ATOM     19  C   UNL     1       3.827   3.092  17.462  0.00  0.00    +0.000 C 
BRANCH  19  20
ATOM     20  O   UNL     1       4.235   1.773  17.813  0.00  0.00    +0.000 OA
ATOM     21  H   UNL     1       5.135   1.849  18.177  0.00  0.00    +0.000 HD
ENDBRANCH  19  20
BRANCH  19  22
ATOM     22  C   UNL     1       4.835   3.757  16.510  0.00  0.00    +0.000 C 
BRANCH  22  23
ATOM     23  N   UNL     1       5.957   4.278  17.289  0.00  0.00    +0.000 NA
ATOM     24  H   UNL     1       6.679   4.611  16.648  0.00  0.00    +0.000 HD
BRANCH  23  25
ATOM     25  C   UNL     1       5.647   5.347  18.237  0.00  0.00    +0.000 C 
ATOM     26  C   UNL     1       6.538   5.408  19.493  0.00  0.00    +0.000 C 
ATOM     27  C   UNL     1       7.987   5.819  19.223  0.00  0.00    +0.000 C 
ATOM     28  C   UNL     1       8.075   7.098  18.395  0.00  0.00    +0.000 C 
ATOM     29  C   UNL     1       7.246   6.995  17.121  0.00  0.00    +0.000 C 
ATOM     30  C   UNL     1       5.786   6.662  17.445  0.00  0.00    +0.000 C 
ENDBRANCH  23  25
ENDBRANCH  22  23
ENDBRANCH  19  22
ENDBRANCH  18  19
ENDBRANCH  17  18
ENDBRANCH   6  17
TORSDOF 11
ENDMDL
MODEL 7
REMARK VINA RESULT:      -7.1      6.325     10.135
REMARK  Name = 
REMARK  11 active torsions:
REMARK  status: ('A' for Active; 'I' for Inactive)
REMARK    1  A    between atoms: C_2  and  C_3
REMARK    2  A    between atoms: C_2  and  C_11
REMARK    3  A    between atoms: C_3  and  C_4
REMARK    4  A    between atoms: C_4  and  C_5
REMARK    5  A    between atoms: C_16  and  O_17
REMARK    6  A    between atoms: O_17  and  C_18
REMARK    7  A    between atoms: C_18  and  C_19
REMARK    8  A    between atoms: C_19  and  O_20
REMARK    9  A    between atoms: C_19  and  C_21
REMARK   10  A    between atoms: C_21  and  N_22
REMARK   11  A    between atoms: N_22  and  C_23
REMARK                            x       y       z     vdW  Elec       q    Type
REMARK                         _______ _______ _______ _____ _____    ______ ____
ROOT
ATOM      1  C   UNL     1       0.341   9.932  20.907  0.00  0.00    +0.000 A 
ATOM      2  C   UNL     1       0.020   9.353  22.172  0.00  0.00    +0.000 A 
ATOM      3  C   UNL     1      -0.701  10.074  23.134  0.00  0.00    +0.000 A 
ATOM      4  C   UNL     1      -1.111  11.358  22.862  0.00  0.00    +0.000 A 
ATOM      5  C   UNL     1      -0.795  11.936  21.646  0.00  0.00    +0.000 A 
ATOM      6  C   UNL     1      -0.077  11.251  20.643  0.00  0.00    +0.000 A 
ENDROOT
BRANCH   1   8
ATOM      7  O   UNL     1       1.226   9.295  18.802  0.00  0.00    +0.000 OA
ATOM      8  C   UNL     1       1.095   9.006  19.994  0.00  0.00    +0.000 C 
BRANCH   8   9
ATOM      9  C   UNL     1       1.686   7.740  20.561  0.00  0.00    +0.000 C 
BRANCH   9  10
ATOM     10  C   UNL     1       2.456   6.938  19.510  0.00  0.00    +0.000 C 
BRANCH  10  11
ATOM     11  C   UNL     1       1.979   5.506  19.407  0.00  0.00    +0.000 A 
ATOM     12  C   UNL     1       2.016   4.844  18.173  0.00  0.00    +0.000 A 
ATOM     13  C   UNL     1       1.593   3.518  18.063  0.00  0.00    +0.000 A 
ATOM     14  C   UNL     1       1.128   2.838  19.186  0.00  0.00    +0.000 A 
ATOM     15  C   UNL     1       1.097   3.480  20.422  0.00  0.00    +0.000 A 
ATOM     16  C   UNL     1       1.527   4.805  20.534  0.00  0.00    +0.000 A 
ENDBRANCH  10  11
ENDBRANCH   9  10
ENDBRANCH   8   9
ENDBRANCH   1   8
BRANCH   6  17
ATOM     17  O   UNL     1       0.219  11.890  19.445  0.00  0.00    +0.000 OA
BRANCH  17  18
ATOM     18  C   UNL     1      -0.911  12.590  18.867  0.00  0.00    +0.000 C 
BRANCH  18  19
ATOM     19  C   UNL     1      -1.738  11.748  17.895  0.00  0.00    +0.000 C 
BRANCH  19  20
ATOM     20  O   UNL     1      -0.957  10.674  17.378  0.00  0.00    +0.000 OA
ATOM     21  H   UNL     1      -0.062  11.028  17.231  0.00  0.00    +0.000 HD
ENDBRANCH  19  20
BRANCH  19  22
ATOM     22  C   UNL     1      -3.022  11.236  18.567  0.00  0.00    +0.000 C 
BRANCH  22  23
ATOM     23  N   UNL     1      -4.111  12.175  18.298  0.00  0.00    +0.000 NA
ATOM     24  H   UNL     1      -3.744  12.961  17.758  0.00  0.00    +0.000 HD
BRANCH  23  25
ATOM     25  C   UNL     1      -5.275  11.634  17.598  0.00  0.00    +0.000 C 
ATOM     26  C   UNL     1      -6.260  10.824  18.462  0.00  0.00    +0.000 C 
ATOM     27  C   UNL     1      -7.034  11.654  19.488  0.00  0.00    +0.000 C 
ATOM     28  C   UNL     1      -7.698  12.873  18.854  0.00  0.00    +0.000 C 
ATOM     29  C   UNL     1      -6.695  13.704  18.062  0.00  0.00    +0.000 C 
ATOM     30  C   UNL     1      -6.003  12.850  16.994  0.00  0.00    +0.000 C 
ENDBRANCH  23  25
ENDBRANCH  22  23
ENDBRANCH  19  22
ENDBRANCH  18  19
ENDBRANCH  17  18
ENDBRANCH   6  17
TORSDOF 11
ENDMDL
MODEL 8
REMARK VINA RESULT:      -7.0      4.001      6.922
REMARK  Name = 
REMARK  11 active torsions:
REMARK  status: ('A' for Active; 'I' for Inactive)
REMARK    1  A    between atoms: C_2  and  C_3
REMARK    2  A    between atoms: C_2  and  C_11
REMARK    3  A    between atoms: C_3  and  C_4
REMARK    4  A    between atoms: C_4  and  C_5
REMARK    5  A    between atoms: C_16  and  O_17
REMARK    6  A    between atoms: O_17  and  C_18
REMARK    7  A    between atoms: C_18  and  C_19
REMARK    8  A    between atoms: C_19  and  O_20
REMARK    9  A    between atoms: C_19  and  C_21
REMARK   10  A    between atoms: C_21  and  N_22
REMARK   11  A    between atoms: N_22  and  C_23
REMARK                            x       y       z     vdW  Elec       q    Type
REMARK                         _______ _______ _______ _____ _____    ______ ____
ROOT
ATOM      1  C   UNL     1       3.465   3.838  18.852  0.00  0.00    +0.000 A 
ATOM      2  C   UNL     1       2.909   2.524  18.794  0.00  0.00    +0.000 A 
ATOM      3  C   UNL     1       1.681   2.232  19.403  0.00  0.00    +0.000 A 
ATOM      4  C   UNL     1       0.994   3.221  20.068  0.00  0.00    +0.000 A 
ATOM      5  C   UNL     1       1.528   4.494  20.145  0.00  0.00    +0.000 A 
ATOM      6  C   UNL     1       2.757   4.841  19.543  0.00  0.00    +0.000 A 
ENDROOT
BRANCH   1   8
ATOM      7  O   UNL     1       5.824   4.050  18.763  0.00  0.00    +0.000 OA
ATOM      8  C   UNL     1       4.773   3.972  18.123  0.00  0.00    +0.000 C 
BRANCH   8   9
ATOM      9  C   UNL     1       4.771   4.000  16.616  0.00  0.00    +0.000 C 
BRANCH   9  10
ATOM     10  C   UNL     1       5.758   5.024  16.053  0.00  0.00    +0.000 C 
BRANCH  10  11
ATOM     11  C   UNL     1       6.193   4.699  14.642  0.00  0.00    +0.000 A 
ATOM     12  C   UNL     1       7.340   5.300  14.107  0.00  0.00    +0.000 A 
ATOM     13  C   UNL     1       7.763   5.000  12.811  0.00  0.00    +0.000 A 
ATOM     14  C   UNL     1       7.044   4.096  12.033  0.00  0.00    +0.000 A 
ATOM     15  C   UNL     1       5.908   3.481  12.556  0.00  0.00    +0.000 A 
ATOM     16  C   UNL     1       5.488   3.776  13.856  0.00  0.00    +0.000 A 
ENDBRANCH  10  11
ENDBRANCH   9  10
ENDBRANCH   8   9
ENDBRANCH   1   8
BRANCH   6  17
ATOM     17  O   UNL     1       3.245   6.135  19.664  0.00  0.00    +0.000 OA
BRANCH  17  18
ATOM     18  C   UNL     1       2.274   7.156  19.325  0.00  0.00    +0.000 C 
BRANCH  18  19
ATOM     19  C   UNL     1       2.746   8.136  18.251  0.00  0.00    +0.000 C 
BRANCH  19  20
ATOM     20  O   UNL     1       3.570   7.470  17.298  0.00  0.00    +0.000 OA
ATOM     21  H   UNL     1       3.068   7.451  16.463  0.00  0.00    +0.000 HD
ENDBRANCH  19  20
BRANCH  19  22
ATOM     22  C   UNL     1       1.551   8.827  17.574  0.00  0.00    +0.000 C 
BRANCH  22  23
ATOM     23  N   UNL     1       1.341  10.135  18.193  0.00  0.00    +0.000 NA
ATOM     24  H   UNL     1       1.566  10.864  17.513  0.00  0.00    +0.000 HD
BRANCH  23  25
ATOM     25  C   UNL     1       0.005  10.393  18.725  0.00  0.00    +0.000 C 
ATOM     26  C   UNL     1      -0.258   9.883  20.155  0.00  0.00    +0.000 C 
ATOM     27  C   UNL     1       0.518  10.625  21.245  0.00  0.00    +0.000 C 
ATOM     28  C   UNL     1       0.351  12.138  21.137  0.00  0.00    +0.000 C 
ATOM     29  C   UNL     1       0.684  12.637  19.736  0.00  0.00    +0.000 C 
ATOM     30  C   UNL     1      -0.174  11.924  18.686  0.00  0.00    +0.000 C 
ENDBRANCH  23  25
ENDBRANCH  22  23
ENDBRANCH  19  22
ENDBRANCH  18  19
ENDBRANCH  17  18
ENDBRANCH   6  17
TORSDOF 11
ENDMDL
MODEL 9
REMARK VINA RESULT:      -7.0      2.380      8.560
REMARK  Name = 
REMARK  11 active torsions:
REMARK  status: ('A' for Active; 'I' for Inactive)
REMARK    1  A    between atoms: C_2  and  C_3
REMARK    2  A    between atoms: C_2  and  C_11
REMARK    3  A    between atoms: C_3  and  C_4
REMARK    4  A    between atoms: C_4  and  C_5
REMARK    5  A    between atoms: C_16  and  O_17
REMARK    6  A    between atoms: O_17  and  C_18
REMARK    7  A    between atoms: C_18  and  C_19
REMARK    8  A    between atoms: C_19  and  O_20
REMARK    9  A    between atoms: C_19  and  C_21
REMARK   10  A    between atoms: C_21  and  N_22
REMARK   11  A    between atoms: N_22  and  C_23
REMARK                            x       y       z     vdW  Elec       q    Type
REMARK                         _______ _______ _______ _____ _____    ______ ____
ROOT
ATOM      1  C   UNL     1       5.961   4.864  17.349  0.00  0.00    +0.000 A 
ATOM      2  C   UNL     1       5.311   3.986  16.429  0.00  0.00    +0.000 A 
ATOM      3  C   UNL     1       5.703   3.930  15.084  0.00  0.00    +0.000 A 
ATOM      4  C   UNL     1       6.730   4.729  14.637  0.00  0.00    +0.000 A 
ATOM      5  C   UNL     1       7.358   5.593  15.514  0.00  0.00    +0.000 A 
ATOM      6  C   UNL     1       7.005   5.683  16.877  0.00  0.00    +0.000 A 
ENDROOT
BRANCH   1   8
ATOM      7  O   UNL     1       5.687   3.784  19.441  0.00  0.00    +0.000 OA
ATOM      8  C   UNL     1       5.426   4.771  18.751  0.00  0.00    +0.000 C 
BRANCH   8   9
ATOM      9  C   UNL     1       4.583   5.900  19.288  0.00  0.00    +0.000 C 
BRANCH   9  10
ATOM     10  C   UNL     1       3.206   5.962  18.627  0.00  0.00    +0.000 C 
BRANCH  10  11
ATOM     11  C   UNL     1       2.323   4.796  19.011  0.00  0.00    +0.000 A 
ATOM     12  C   UNL     1       1.918   4.634  20.342  0.00  0.00    +0.000 A 
ATOM     13  C   UNL     1       1.092   3.571  20.711  0.00  0.00    +0.000 A 
ATOM     14  C   UNL     1       0.660   2.657  19.754  0.00  0.00    +0.000 A 
ATOM     15  C   UNL     1       1.045   2.812  18.423  0.00  0.00    +0.000 A 
ATOM     16  C   UNL     1       1.867   3.879  18.053  0.00  0.00    +0.000 A 
ENDBRANCH  10  11
ENDBRANCH   9  10
ENDBRANCH   8   9
ENDBRANCH   1   8
BRANCH   6  17
ATOM     17  O   UNL     1       7.667   6.579  17.706  0.00  0.00    +0.000 OA
BRANCH  17  18
ATOM     18  C   UNL     1       7.128   7.924  17.656  0.00  0.00    +0.000 C 
BRANCH  18  19
ATOM     19  C   UNL     1       8.190   9.024  17.661  0.00  0.00    +0.000 C 
BRANCH  19  20
ATOM     20  O   UNL     1       7.602  10.284  17.351  0.00  0.00    +0.000 OA
ATOM     21  H   UNL     1       7.182  10.187  16.479  0.00  0.00    +0.000 HD
ENDBRANCH  19  20
BRANCH  19  22
ATOM     22  C   UNL     1       8.931   9.066  19.007  0.00  0.00    +0.000 C 
BRANCH  22  23
ATOM     23  N   UNL     1       9.148  10.460  19.391  0.00  0.00    +0.000 NA
ATOM     24  H   UNL     1       8.864  10.584  20.365  0.00  0.00    +0.000 HD
BRANCH  23  25
ATOM     25  C   UNL     1      10.508  10.972  19.235  0.00  0.00    +0.000 C 
ATOM     26  C   UNL     1      10.812  11.672  17.898  0.00  0.00    +0.000 C 
ATOM     27  C   UNL     1      10.092  13.009  17.704  0.00  0.00    +0.000 C 
ATOM     28  C   UNL     1      10.288  13.942  18.896  0.00  0.00    +0.000 C 
ATOM     29  C   UNL     1       9.914  13.257  20.206  0.00  0.00    +0.000 C 
ATOM     30  C   UNL     1      10.718  11.966  20.394  0.00  0.00    +0.000 C 
ENDBRANCH  23  25
ENDBRANCH  22  23
ENDBRANCH  19  22
ENDBRANCH  18  19
ENDBRANCH  17  18
ENDBRANCH   6  17
TORSDOF 11
ENDMDL
