MODEL 1
REMARK VINA RESULT:      -6.1      0.000      0.000
REMARK  Name = 
REMARK  6 active torsions:
REMARK  status: ('A' for Active; 'I' for Inactive)
REMARK    1  A    between atoms: C_1  and  C_2
REMARK    2  A    between atoms: C_2  and  C_3
REMARK    3  A    between atoms: N_16  and  C_17
REMARK    4  A    between atoms: C_17  and  C_18
REMARK    5  A    between atoms: C_19  and  C_20
REMARK    6  A    between atoms: C_23  and  C_24
REMARK                            x       y       z     vdW  Elec       q    Type
REMARK                         _______ _______ _______ _____ _____    ______ ____
ROOT
ATOM      1  C   UNL     1       6.683   4.535  16.692  0.00  0.00    +0.000 A 
ATOM      2  N   UNL     1       7.170   4.388  17.904  0.00  0.00    +0.000 NA
ATOM      3  N   UNL     1       6.189   4.046  18.812  0.00  0.00    +0.000 NA
ATOM      4  C   UNL     1       4.988   3.908  18.277  0.00  0.00    +0.000 A 
ATOM      5  N   UNL     1       3.852   3.635  18.992  0.00  0.00    +0.000 N 
ATOM      6  C   UNL     1       3.806   4.037  20.404  0.00  0.00    +0.000 C 
ATOM      7  C   UNL     1       2.589   4.957  20.741  0.00  0.00    +0.000 C 
ATOM      8  C   UNL     1       1.310   4.132  20.960  0.00  0.00    +0.000 C 
ATOM      9  C   UNL     1       0.576   3.842  19.651  0.00  0.00    +0.000 C 
ATOM     10  C   UNL     1       1.460   4.091  18.424  0.00  0.00    +0.000 C 
ATOM     11  C   UNL     1       2.640   3.119  18.366  0.00  0.00    +0.000 C 
ATOM     12  C   UNL     1       1.905   5.544  18.451  0.00  0.00    +0.000 C 
ATOM     13  O   UNL     1       1.877   6.246  17.443  0.00  0.00    +0.000 OA
ATOM     14  N   UNL     1       2.344   5.973  19.702  0.00  0.00    +0.000 N 
ATOM     15  S   UNL     1       5.016   4.180  16.563  0.00  0.00    +0.000 S 
ENDROOT
BRANCH   1  17
ATOM     16  C   UNL     1       6.720   4.716  14.216  0.00  0.00    +0.000 C 
ATOM     17  C   UNL     1       7.464   5.009  15.512  0.00  0.00    +0.000 C 
ENDBRANCH   1  17
BRANCH  14  18
ATOM     18  C   UNL     1       2.780   7.351  19.906  0.00  0.00    +0.000 C 
BRANCH  18  19
ATOM     19  C   UNL     1       1.614   8.280  19.808  0.00  0.00    +0.000 A 
ATOM     20  C   UNL     1       1.343   9.265  18.808  0.00  0.00    +0.000 A 
ATOM     21  C   UNL     1       2.122   9.647  17.607  0.00  0.00    +0.000 C 
ATOM     22  N   UNL     1       0.209   9.928  19.065  0.00  0.00    +0.000 NA
ATOM     23  O   UNL     1      -0.270   9.415  20.246  0.00  0.00    +0.000 OA
ATOM     24  C   UNL     1       0.571   8.451  20.702  0.00  0.00    +0.000 A 
ATOM     25  C   UNL     1       0.195   7.855  21.996  0.00  0.00    +0.000 C 
ENDBRANCH  18  19
ENDBRANCH  14  18
TORSDOF 3
ENDMDL
MODEL 2
REMARK VINA RESULT:      -5.9      7.975     10.869
REMARK  Name = 
REMARK  6 active torsions:
REMARK  status: ('A' for Active; 'I' for Inactive)
REMARK    1  A    between atoms: C_1  and  C_2
REMARK    2  A    between atoms: C_2  and  C_3
REMARK    3  A    between atoms: N_16  and  C_17
REMARK    4  A    between atoms: C_17  and  C_18
REMARK    5  A    between atoms: C_19  and  C_20
REMARK    6  A    between atoms: C_23  and  C_24
REMARK                            x       y       z     vdW  Elec       q    Type
REMARK                         _______ _______ _______ _____ _____    ______ ____
ROOT
ATOM      1  C   UNL     1      -4.174  12.948  22.376  0.00  0.00    +0.000 A 
ATOM      2  N   UNL     1      -4.585  13.119  21.140  0.00  0.00    +0.000 NA
ATOM      3  N   UNL     1      -3.579  12.873  20.227  0.00  0.00    +0.000 NA
ATOM      4  C   UNL     1      -2.439  12.491  20.777  0.00  0.00    +0.000 A 
ATOM      5  N   UNL     1      -1.286  12.253  20.075  0.00  0.00    +0.000 N 
ATOM      6  C   UNL     1      -1.100  12.941  18.791  0.00  0.00    +0.000 C 
ATOM      7  C   UNL     1       0.223  13.771  18.726  0.00  0.00    +0.000 C 
ATOM      8  C   UNL     1       1.427  12.875  18.393  0.00  0.00    +0.000 C 
ATOM      9  C   UNL     1       2.032  12.230  19.640  0.00  0.00    +0.000 C 
ATOM     10  C   UNL     1       1.091  12.307  20.846  0.00  0.00    +0.000 C 
ATOM     11  C   UNL     1      -0.179  11.483  20.631  0.00  0.00    +0.000 C 
ATOM     12  C   UNL     1       0.794  13.773  21.120  0.00  0.00    +0.000 C 
ATOM     13  O   UNL     1       0.817  14.235  22.258  0.00  0.00    +0.000 OA
ATOM     14  N   UNL     1       0.490  14.506  19.975  0.00  0.00    +0.000 N 
ATOM     15  S   UNL     1      -2.564  12.390  22.505  0.00  0.00    +0.000 S 
ENDROOT
BRANCH   1  17
ATOM     16  C   UNL     1      -4.517  12.407  24.775  0.00  0.00    +0.000 C 
ATOM     17  C   UNL     1      -4.989  13.242  23.592  0.00  0.00    +0.000 C 
ENDBRANCH   1  17
BRANCH  14  18
ATOM     18  C   UNL     1       0.207  15.936  20.059  0.00  0.00    +0.000 C 
BRANCH  18  19
ATOM     19  C   UNL     1       1.105  16.693  19.136  0.00  0.00    +0.000 A 
ATOM     20  C   UNL     1       0.747  17.514  18.020  0.00  0.00    +0.000 A 
ATOM     21  C   UNL     1      -0.587  17.842  17.466  0.00  0.00    +0.000 C 
ATOM     22  N   UNL     1       1.828  18.014  17.410  0.00  0.00    +0.000 NA
ATOM     23  O   UNL     1       2.912  17.512  18.090  0.00  0.00    +0.000 OA
ATOM     24  C   UNL     1       2.489  16.712  19.102  0.00  0.00    +0.000 A 
ATOM     25  C   UNL     1       3.562  16.067  19.878  0.00  0.00    +0.000 C 
ENDBRANCH  18  19
ENDBRANCH  14  18
TORSDOF 3
ENDMDL
MODEL 3
REMARK VINA RESULT:      -5.8     10.395     12.792
REMARK  Name = 
REMARK  6 active torsions:
REMARK  status: ('A' for Active; 'I' for Inactive)
REMARK    1  A    between atoms: C_1  and  C_2
REMARK    2  A    between atoms: C_2  and  C_3
REMARK    3  A    between atoms: N_16  and  C_17
REMARK    4  A    between atoms: C_17  and  C_18
REMARK    5  A    between atoms: C_19  and  C_20
REMARK    6  A    between atoms: C_23  and  C_24
REMARK                            x       y       z     vdW  Elec       q    Type
REMARK                         _______ _______ _______ _____ _____    ______ ____
ROOT
ATOM      1  C   UNL     1      -7.173  10.802  20.472  0.00  0.00    +0.000 A 
ATOM      2  N   UNL     1      -7.534  10.626  21.723  0.00  0.00    +0.000 NA
ATOM      3  N   UNL     1      -7.432  11.791  22.454  0.00  0.00    +0.000 NA
ATOM      4  C   UNL     1      -7.030  12.834  21.748  0.00  0.00    +0.000 A 
ATOM      5  N   UNL     1      -6.796  14.078  22.273  0.00  0.00    +0.000 N 
ATOM      6  C   UNL     1      -6.434  14.176  23.693  0.00  0.00    +0.000 C 
ATOM      7  C   UNL     1      -5.083  14.925  23.932  0.00  0.00    +0.000 C 
ATOM      8  C   UNL     1      -5.279  16.449  23.902  0.00  0.00    +0.000 C 
ATOM      9  C   UNL     1      -5.204  17.015  22.483  0.00  0.00    +0.000 C 
ATOM     10  C   UNL     1      -5.344  15.924  21.417  0.00  0.00    +0.000 C 
ATOM     11  C   UNL     1      -6.729  15.275  21.443  0.00  0.00    +0.000 C 
ATOM     12  C   UNL     1      -4.226  14.915  21.625  0.00  0.00    +0.000 C 
ATOM     13  O   UNL     1      -3.566  14.480  20.685  0.00  0.00    +0.000 OA
ATOM     14  N   UNL     1      -4.047  14.544  22.956  0.00  0.00    +0.000 N 
ATOM     15  S   UNL     1      -6.772  12.417  20.083  0.00  0.00    +0.000 S 
ENDROOT
BRANCH   1  17
ATOM     16  C   UNL     1      -7.281   8.350  20.096  0.00  0.00    +0.000 C 
ATOM     17  C   UNL     1      -7.066   9.714  19.455  0.00  0.00    +0.000 C 
ENDBRANCH   1  17
BRANCH  14  18
ATOM     18  C   UNL     1      -2.995  13.604  23.333  0.00  0.00    +0.000 C 
BRANCH  18  19
ATOM     19  C   UNL     1      -1.702  14.327  23.520  0.00  0.00    +0.000 A 
ATOM     20  C   UNL     1      -1.319  15.208  24.580  0.00  0.00    +0.000 A 
ATOM     21  C   UNL     1      -2.077  15.653  25.772  0.00  0.00    +0.000 C 
ATOM     22  N   UNL     1      -0.084  15.691  24.397  0.00  0.00    +0.000 NA
ATOM     23  O   UNL     1       0.356  15.165  23.207  0.00  0.00    +0.000 OA
ATOM     24  C   UNL     1      -0.608  14.370  22.673  0.00  0.00    +0.000 A 
ATOM     25  C   UNL     1      -0.277  13.784  21.362  0.00  0.00    +0.000 C 
ENDBRANCH  18  19
ENDBRANCH  14  18
TORSDOF 3
ENDMDL
MODEL 4
REMARK VINA RESULT:      -5.8      5.805      8.988
REMARK  Name = 
REMARK  6 active torsions:
REMARK  status: ('A' for Active; 'I' for Inactive)
REMARK    1  A    between atoms: C_1  and  C_2
REMARK    2  A    between atoms: C_2  and  C_3
REMARK    3  A    between atoms: N_16  and  C_17
REMARK    4  A    between atoms: C_17  and  C_18
REMARK    5  A    between atoms: C_19  and  C_20
REMARK    6  A    between atoms: C_23  and  C_24
REMARK                            x       y       z     vdW  Elec       q    Type
REMARK                         _______ _______ _______ _____ _____    ______ ____
ROOT
ATOM      1  C   UNL     1       1.229   9.004  20.658  0.00  0.00    +0.000 A 
ATOM      2  N   UNL     1       1.117   9.397  21.907  0.00  0.00    +0.000 NA
ATOM      3  N   UNL     1       0.605  10.675  21.998  0.00  0.00    +0.000 NA
ATOM      4  C   UNL     1       0.308  11.217  20.829  0.00  0.00    +0.000 A 
ATOM      5  N   UNL     1      -0.153  12.498  20.667  0.00  0.00    +0.000 N 
ATOM      6  C   UNL     1       0.193  13.495  21.688  0.00  0.00    +0.000 C 
ATOM      7  C   UNL     1       0.913  14.752  21.100  0.00  0.00    +0.000 C 
ATOM      8  C   UNL     1      -0.100  15.746  20.507  0.00  0.00    +0.000 C 
ATOM      9  C   UNL     1      -0.454  15.417  19.057  0.00  0.00    +0.000 C 
ATOM     10  C   UNL     1      -0.039  13.995  18.668  0.00  0.00    +0.000 C 
ATOM     11  C   UNL     1      -0.823  12.938  19.449  0.00  0.00    +0.000 C 
ATOM     12  C   UNL     1       1.463  13.870  18.869  0.00  0.00    +0.000 C 
ATOM     13  O   UNL     1       2.184  13.336  18.031  0.00  0.00    +0.000 OA
ATOM     14  N   UNL     1       1.913  14.402  20.076  0.00  0.00    +0.000 N 
ATOM     15  S   UNL     1       0.634  10.129  19.517  0.00  0.00    +0.000 S 
ENDROOT
BRANCH   1  17
ATOM     16  C   UNL     1       2.275   7.789  18.763  0.00  0.00    +0.000 C 
ATOM     17  C   UNL     1       1.850   7.718  20.222  0.00  0.00    +0.000 C 
ENDBRANCH   1  17
BRANCH  14  18
ATOM     18  C   UNL     1       3.333  14.389  20.412  0.00  0.00    +0.000 C 
BRANCH  18  19
ATOM     19  C   UNL     1       3.987  15.644  19.933  0.00  0.00    +0.000 A 
ATOM     20  C   UNL     1       4.875  15.818  18.825  0.00  0.00    +0.000 A 
ATOM     21  C   UNL     1       5.395  14.828  17.854  0.00  0.00    +0.000 C 
ATOM     22  N   UNL     1       5.282  17.089  18.716  0.00  0.00    +0.000 NA
ATOM     23  O   UNL     1       4.697  17.765  19.760  0.00  0.00    +0.000 OA
ATOM     24  C   UNL     1       3.944  16.908  20.497  0.00  0.00    +0.000 A 
ATOM     25  C   UNL     1       3.303  17.502  21.683  0.00  0.00    +0.000 C 
ENDBRANCH  18  19
ENDBRANCH  14  18
TORSDOF 3
ENDMDL
MODEL 5
REMARK VINA RESULT:      -5.8      5.812      9.179
REMARK  Name = 
REMARK  6 active torsions:
REMARK  status: ('A' for Active; 'I' for Inactive)
REMARK    1  A    between atoms: C_1  and  C_2
REMARK    2  A    between atoms: C_2  and  C_3
REMARK    3  A    between atoms: N_16  and  C_17
REMARK    4  A    between atoms: C_17  and  C_18
REMARK    5  A    between atoms: C_19  and  C_20
REMARK    6  A    between atoms: C_23  and  C_24
REMARK                            x       y       z     vdW  Elec       q    Type
REMARK                         _______ _______ _______ _____ _____    ______ ____
ROOT
ATOM      1  C   UNL     1       0.976   9.105  21.151  0.00  0.00    +0.000 A 
ATOM      2  N   UNL     1       0.827   9.632  22.345  0.00  0.00    +0.000 NA
ATOM      3  N   UNL     1       0.392  10.940  22.277  0.00  0.00    +0.000 NA
ATOM      4  C   UNL     1       0.188  11.372  21.045  0.00  0.00    +0.000 A 
ATOM      5  N   UNL     1      -0.184  12.653  20.729  0.00  0.00    +0.000 N 
ATOM      6  C   UNL     1       0.173  13.731  21.661  0.00  0.00    +0.000 C 
ATOM      7  C   UNL     1       0.998  14.876  20.990  0.00  0.00    +0.000 C 
ATOM      8  C   UNL     1       0.080  15.859  20.244  0.00  0.00    +0.000 C 
ATOM      9  C   UNL     1      -0.221  15.400  18.817  0.00  0.00    +0.000 C 
ATOM     10  C   UNL     1       0.123  13.924  18.598  0.00  0.00    +0.000 C 
ATOM     11  C   UNL     1      -0.763  13.002  19.437  0.00  0.00    +0.000 C 
ATOM     12  C   UNL     1       1.602  13.736  18.894  0.00  0.00    +0.000 C 
ATOM     13  O   UNL     1       2.330  13.077  18.156  0.00  0.00    +0.000 OA
ATOM     14  N   UNL     1       2.024  14.364  20.064  0.00  0.00    +0.000 N 
ATOM     15  S   UNL     1       0.510  10.136  19.871  0.00  0.00    +0.000 S 
ENDROOT
BRANCH   1  17
ATOM     16  C   UNL     1       2.145   7.677  19.490  0.00  0.00    +0.000 C 
ATOM     17  C   UNL     1       1.536   7.747  20.883  0.00  0.00    +0.000 C 
ENDBRANCH   1  17
BRANCH  14  18
ATOM     18  C   UNL     1       3.422  14.306  20.479  0.00  0.00    +0.000 C 
BRANCH  18  19
ATOM     19  C   UNL     1       4.161  15.499  19.967  0.00  0.00    +0.000 A 
ATOM     20  C   UNL     1       4.123  16.845  20.450  0.00  0.00    +0.000 A 
ATOM     21  C   UNL     1       3.355  17.436  21.570  0.00  0.00    +0.000 C 
ATOM     22  N   UNL     1       4.904  17.651  19.721  0.00  0.00    +0.000 NA
ATOM     23  O   UNL     1       5.445  16.864  18.734  0.00  0.00    +0.000 OA
ATOM     24  C   UNL     1       4.992  15.590  18.863  0.00  0.00    +0.000 A 
ATOM     25  C   UNL     1       5.460  14.652  17.827  0.00  0.00    +0.000 C 
ENDBRANCH  18  19
ENDBRANCH  14  18
TORSDOF 3
ENDMDL
MODEL 6
REMARK VINA RESULT:      -5.7      7.914     10.850
REMARK  Name = 
REMARK  6 active torsions:
REMARK  status: ('A' for Active; 'I' for Inactive)
REMARK    1  A    between atoms: C_1  and  C_2
REMARK    2  A    between atoms: C_2  and  C_3
REMARK    3  A    between atoms: N_16  and  C_17
REMARK    4  A    between atoms: C_17  and  C_18
REMARK    5  A    between atoms: C_19  and  C_20
REMARK    6  A    between atoms: C_23  and  C_24
REMARK                            x       y       z     vdW  Elec       q    Type
REMARK                         _______ _______ _______ _____ _____    ______ ____
ROOT
ATOM      1  C   UNL     1      -3.914  13.018  22.353  0.00  0.00    +0.000 A 
ATOM      2  N   UNL     1      -4.346  13.185  21.123  0.00  0.00    +0.000 NA
ATOM      3  N   UNL     1      -3.359  12.931  20.194  0.00  0.00    +0.000 NA
ATOM      4  C   UNL     1      -2.210  12.546  20.725  0.00  0.00    +0.000 A 
ATOM      5  N   UNL     1      -1.071  12.300  20.003  0.00  0.00    +0.000 N 
ATOM      6  C   UNL     1      -0.905  12.981  18.713  0.00  0.00    +0.000 C 
ATOM      7  C   UNL     1       0.420  13.805  18.620  0.00  0.00    +0.000 C 
ATOM      8  C   UNL     1       1.614  12.903  18.269  0.00  0.00    +0.000 C 
ATOM      9  C   UNL     1       2.239  12.261  19.508  0.00  0.00    +0.000 C 
ATOM     10  C   UNL     1       1.320  12.347  20.731  0.00  0.00    +0.000 C 
ATOM     11  C   UNL     1       0.042  11.528  20.542  0.00  0.00    +0.000 C 
ATOM     12  C   UNL     1       1.034  13.815  21.003  0.00  0.00    +0.000 C 
ATOM     13  O   UNL     1       1.080  14.282  22.138  0.00  0.00    +0.000 OA
ATOM     14  N   UNL     1       0.712  14.545  19.860  0.00  0.00    +0.000 N 
ATOM     15  S   UNL     1      -2.304  12.453  22.455  0.00  0.00    +0.000 S 
ENDROOT
BRANCH   1  17
ATOM     16  C   UNL     1      -4.423  12.296  24.673  0.00  0.00    +0.000 C 
ATOM     17  C   UNL     1      -4.705  13.320  23.582  0.00  0.00    +0.000 C 
ENDBRANCH   1  17
BRANCH  14  18
ATOM     18  C   UNL     1       0.437  15.976  19.943  0.00  0.00    +0.000 C 
BRANCH  18  19
ATOM     19  C   UNL     1       1.151  16.702  18.850  0.00  0.00    +0.000 A 
ATOM     20  C   UNL     1       2.556  16.754  18.585  0.00  0.00    +0.000 A 
ATOM     21  C   UNL     1       3.686  16.121  19.302  0.00  0.00    +0.000 C 
ATOM     22  N   UNL     1       2.829  17.529  17.528  0.00  0.00    +0.000 NA
ATOM     23  O   UNL     1       1.621  18.022  17.098  0.00  0.00    +0.000 OA
ATOM     24  C   UNL     1       0.624  17.550  17.891  0.00  0.00    +0.000 A 
ATOM     25  C   UNL     1      -0.723  18.050  17.564  0.00  0.00    +0.000 C 
ENDBRANCH  18  19
ENDBRANCH  14  18
TORSDOF 3
ENDMDL
MODEL 7
REMARK VINA RESULT:      -5.7      9.114     12.078
REMARK  Name = 
REMARK  6 active torsions:
REMARK  status: ('A' for Active; 'I' for Inactive)
REMARK    1  A    between atoms: C_1  and  C_2
REMARK    2  A    between atoms: C_2  and  C_3
REMARK    3  A    between atoms: N_16  and  C_17
REMARK    4  A    between atoms: C_17  and  C_18
REMARK    5  A    between atoms: C_19  and  C_20
REMARK    6  A    between atoms: C_23  and  C_24
REMARK                            x       y       z     vdW  Elec       q    Type
REMARK                         _______ _______ _______ _____ _____    ______ ____
ROOT
ATOM      1  C   UNL     1       3.194  15.970  19.256  0.00  0.00    +0.000 A 
ATOM      2  N   UNL     1       3.165  14.852  19.946  0.00  0.00    +0.000 NA
ATOM      3  N   UNL     1       4.335  14.653  20.649  0.00  0.00    +0.000 NA
ATOM      4  C   UNL     1       5.216  15.629  20.510  0.00  0.00    +0.000 A 
ATOM      5  N   UNL     1       6.471  15.620  21.061  0.00  0.00    +0.000 N 
ATOM      6  C   UNL     1       7.096  14.321  21.345  0.00  0.00    +0.000 C 
ATOM      7  C   UNL     1       8.490  14.148  20.660  0.00  0.00    +0.000 C 
ATOM      8  C   UNL     1       9.599  14.833  21.474  0.00  0.00    +0.000 C 
ATOM      9  C   UNL     1       9.744  16.315  21.126  0.00  0.00    +0.000 C 
ATOM     10  C   UNL     1       8.531  16.850  20.360  0.00  0.00    +0.000 C 
ATOM     11  C   UNL     1       7.264  16.834  21.217  0.00  0.00    +0.000 C 
ATOM     12  C   UNL     1       8.381  16.036  19.085  0.00  0.00    +0.000 C 
ATOM     13  O   UNL     1       8.159  16.570  18.001  0.00  0.00    +0.000 OA
ATOM     14  N   UNL     1       8.508  14.662  19.279  0.00  0.00    +0.000 N 
ATOM     15  S   UNL     1       4.612  16.895  19.489  0.00  0.00    +0.000 S 
ENDROOT
BRANCH   1  17
ATOM     16  C   UNL     1       1.334  17.574  18.894  0.00  0.00    +0.000 C 
ATOM     17  C   UNL     1       2.129  16.415  18.310  0.00  0.00    +0.000 C 
ENDBRANCH   1  17
BRANCH  14  18
ATOM     18  C   UNL     1       8.418  13.739  18.152  0.00  0.00    +0.000 C 
BRANCH  18  19
ATOM     19  C   UNL     1       9.720  13.030  17.962  0.00  0.00    +0.000 A 
ATOM     20  C   UNL     1      10.955  13.554  17.468  0.00  0.00    +0.000 A 
ATOM     21  C   UNL     1      11.297  14.920  17.007  0.00  0.00    +0.000 C 
ATOM     22  N   UNL     1      11.903  12.611  17.415  0.00  0.00    +0.000 NA
ATOM     23  O   UNL     1      11.307  11.450  17.842  0.00  0.00    +0.000 OA
ATOM     24  C   UNL     1      10.005  11.689  18.149  0.00  0.00    +0.000 A 
ATOM     25  C   UNL     1       9.236  10.505  18.573  0.00  0.00    +0.000 C 
ENDBRANCH  18  19
ENDBRANCH  14  18
TORSDOF 3
ENDMDL
MODEL 8
REMARK VINA RESULT:      -5.7      9.089     12.106
REMARK  Name = 
REMARK  6 active torsions:
REMARK  status: ('A' for Active; 'I' for Inactive)
REMARK    1  A    between atoms: C_1  and  C_2
REMARK    2  A    between atoms: C_2  and  C_3
REMARK    3  A    between atoms: N_16  and  C_17
REMARK    4  A    between atoms: C_17  and  C_18
REMARK    5  A    between atoms: C_19  and  C_20
REMARK    6  A    between atoms: C_23  and  C_24
REMARK                            x       y       z     vdW  Elec       q    Type
REMARK                         _______ _______ _______ _____ _____    ______ ____
ROOT
ATOM      1  C   UNL     1       3.195  15.778  19.404  0.00  0.00    +0.000 A 
ATOM      2  N   UNL     1       3.224  14.688  20.137  0.00  0.00    +0.000 NA
ATOM      3  N   UNL     1       4.421  14.553  20.809  0.00  0.00    +0.000 NA
ATOM      4  C   UNL     1       5.265  15.550  20.604  0.00  0.00    +0.000 A 
ATOM      5  N   UNL     1       6.535  15.603  21.115  0.00  0.00    +0.000 N 
ATOM      6  C   UNL     1       7.211  14.336  21.429  0.00  0.00    +0.000 C 
ATOM      7  C   UNL     1       8.589  14.181  20.707  0.00  0.00    +0.000 C 
ATOM      8  C   UNL     1       9.699  14.932  21.459  0.00  0.00    +0.000 C 
ATOM      9  C   UNL     1       9.785  16.402  21.049  0.00  0.00    +0.000 C 
ATOM     10  C   UNL     1       8.532  16.869  20.302  0.00  0.00    +0.000 C 
ATOM     11  C   UNL     1       7.293  16.846  21.199  0.00  0.00    +0.000 C 
ATOM     12  C   UNL     1       8.369  16.001  19.065  0.00  0.00    +0.000 C 
ATOM     13  O   UNL     1       8.097  16.484  17.969  0.00  0.00    +0.000 OA
ATOM     14  N   UNL     1       8.547  14.640  19.307  0.00  0.00    +0.000 N 
ATOM     15  S   UNL     1       4.589  16.756  19.555  0.00  0.00    +0.000 S 
ENDROOT
BRANCH   1  17
ATOM     16  C   UNL     1       0.735  15.789  19.071  0.00  0.00    +0.000 C 
ATOM     17  C   UNL     1       2.088  16.152  18.475  0.00  0.00    +0.000 C 
ENDBRANCH   1  17
BRANCH  14  18
ATOM     18  C   UNL     1       8.454  13.671  18.219  0.00  0.00    +0.000 C 
BRANCH  18  19
ATOM     19  C   UNL     1       9.784  13.036  17.980  0.00  0.00    +0.000 A 
ATOM     20  C   UNL     1      10.209  11.710  18.308  0.00  0.00    +0.000 A 
ATOM     21  C   UNL     1       9.473  10.607  18.967  0.00  0.00    +0.000 C 
ATOM     22  N   UNL     1      11.486  11.503  17.962  0.00  0.00    +0.000 NA
ATOM     23  O   UNL     1      11.931  12.689  17.431  0.00  0.00    +0.000 OA
ATOM     24  C   UNL     1      10.931  13.608  17.458  0.00  0.00    +0.000 A 
ATOM     25  C   UNL     1      11.299  14.946  16.961  0.00  0.00    +0.000 C 
ENDBRANCH  18  19
ENDBRANCH  14  18
TORSDOF 3
ENDMDL
MODEL 9
REMARK VINA RESULT:      -5.6      5.136      9.848
REMARK  Name = 
REMARK  6 active torsions:
REMARK  status: ('A' for Active; 'I' for Inactive)
REMARK    1  A    between atoms: C_1  and  C_2
REMARK    2  A    between atoms: C_2  and  C_3
REMARK    3  A    between atoms: N_16  and  C_17
REMARK    4  A    between atoms: C_17  and  C_18
REMARK    5  A    between atoms: C_19  and  C_20
REMARK    6  A    between atoms: C_23  and  C_24
REMARK                            x       y       z     vdW  Elec       q    Type
REMARK                         _______ _______ _______ _____ _____    ______ ____
ROOT
ATOM      1  C   UNL     1      -4.230  13.107  22.370  0.00  0.00    +0.000 A 
ATOM      2  N   UNL     1      -3.424  12.585  23.267  0.00  0.00    +0.000 NA
ATOM      3  N   UNL     1      -2.099  12.713  22.901  0.00  0.00    +0.000 NA
ATOM      4  C   UNL     1      -1.919  13.353  21.759  0.00  0.00    +0.000 A 
ATOM      5  N   UNL     1      -0.698  13.543  21.166  0.00  0.00    +0.000 N 
ATOM      6  C   UNL     1       0.375  12.583  21.459  0.00  0.00    +0.000 C 
ATOM      7  C   UNL     1       0.978  11.926  20.176  0.00  0.00    +0.000 C 
ATOM      8  C   UNL     1       2.017  12.847  19.515  0.00  0.00    +0.000 C 
ATOM      9  C   UNL     1       1.375  13.850  18.556  0.00  0.00    +0.000 C 
ATOM     10  C   UNL     1      -0.138  13.966  18.767  0.00  0.00    +0.000 C 
ATOM     11  C   UNL     1      -0.479  14.553  20.137  0.00  0.00    +0.000 C 
ATOM     12  C   UNL     1      -0.750  12.590  18.555  0.00  0.00    +0.000 C 
ATOM     13  O   UNL     1      -1.770  12.434  17.889  0.00  0.00    +0.000 OA
ATOM     14  N   UNL     1      -0.054  11.563  19.189  0.00  0.00    +0.000 N 
ATOM     15  S   UNL     1      -3.425  13.867  21.068  0.00  0.00    +0.000 S 
ENDROOT
BRANCH   1  17
ATOM     16  C   UNL     1      -6.250  13.619  23.720  0.00  0.00    +0.000 C 
ATOM     17  C   UNL     1      -5.720  13.033  22.419  0.00  0.00    +0.000 C 
ENDBRANCH   1  17
BRANCH  14  18
ATOM     18  C   UNL     1      -0.493  10.177  19.063  0.00  0.00    +0.000 C 
BRANCH  18  19
ATOM     19  C   UNL     1       0.471   9.267  19.752  0.00  0.00    +0.000 A 
ATOM     20  C   UNL     1       1.587   8.566  19.196  0.00  0.00    +0.000 A 
ATOM     21  C   UNL     1       2.099   8.536  17.807  0.00  0.00    +0.000 C 
ATOM     22  N   UNL     1       2.209   7.821  20.118  0.00  0.00    +0.000 NA
ATOM     23  O   UNL     1       1.503   7.993  21.283  0.00  0.00    +0.000 OA
ATOM     24  C   UNL     1       0.458   8.834  21.067  0.00  0.00    +0.000 A 
ATOM     25  C   UNL     1      -0.413   9.060  22.233  0.00  0.00    +0.000 C 
ENDBRANCH  18  19
ENDBRANCH  14  18
TORSDOF 3
ENDMDL
