MODEL 1
REMARK VINA RESULT:      -5.1      0.000      0.000
REMARK  Name = 
REMARK  1 active torsions:
REMARK  status: ('A' for Active; 'I' for Inactive)
REMARK    1  A    between atoms: N_1  and  C_2
REMARK                            x       y       z     vdW  Elec       q    Type
REMARK                         _______ _______ _______ _____ _____    ______ ____
ROOT
ATOM      1  C   UNL     1       3.939   2.797  19.373  0.00  0.00    +0.000 A 
ATOM      2  C   UNL     1       4.099   3.074  18.009  0.00  0.00    +0.000 A 
ATOM      3  C   UNL     1       3.086   3.710  17.288  0.00  0.00    +0.000 A 
ATOM      4  C   UNL     1       1.892   4.032  17.922  0.00  0.00    +0.000 A 
ATOM      5  F   UNL     1       0.922   4.639  17.226  0.00  0.00    +0.000 F 
ATOM      6  C   UNL     1       1.682   3.723  19.258  0.00  0.00    +0.000 A 
ATOM      7  C   UNL     1       2.698   3.090  19.973  0.00  0.00    +0.000 A 
ATOM      8 CL   UNL     1       2.411   2.701  21.636  0.00  0.00    +0.000 Cl
ENDROOT
BRANCH   1   9
ATOM      9  N   UNL     1       4.924   2.042  20.035  0.00  0.00    +0.000 N 
ATOM     10  H   UNL     1       4.714   1.833  21.006  0.00  0.00    +0.000 HD
ATOM     11  H   UNL     1       5.206   1.217  19.507  0.00  0.00    +0.000 HD
ENDBRANCH   1   9
TORSDOF 1
ENDMDL
MODEL 2
REMARK VINA RESULT:      -5.0      1.778      1.999
REMARK  Name = 
REMARK  1 active torsions:
REMARK  status: ('A' for Active; 'I' for Inactive)
REMARK    1  A    between atoms: N_1  and  C_2
REMARK                            x       y       z     vdW  Elec       q    Type
REMARK                         _______ _______ _______ _____ _____    ______ ____
ROOT
ATOM      1  C   UNL     1       4.059   2.706  19.162  0.00  0.00    +0.000 A 
ATOM      2  C   UNL     1       2.876   2.019  18.859  0.00  0.00    +0.000 A 
ATOM      3  C   UNL     1       1.835   2.659  18.184  0.00  0.00    +0.000 A 
ATOM      4  C   UNL     1       1.957   4.001  17.848  0.00  0.00    +0.000 A 
ATOM      5  F   UNL     1       0.954   4.612  17.204  0.00  0.00    +0.000 F 
ATOM      6  C   UNL     1       3.093   4.724  18.183  0.00  0.00    +0.000 A 
ATOM      7  C   UNL     1       4.131   4.079  18.854  0.00  0.00    +0.000 A 
ATOM      8 CL   UNL     1       5.535   5.002  19.273  0.00  0.00    +0.000 Cl
ENDROOT
BRANCH   1   9
ATOM      9  N   UNL     1       5.032   2.070  19.954  0.00  0.00    +0.000 N 
ATOM     10  H   UNL     1       4.816   1.107  20.195  0.00  0.00    +0.000 HD
ATOM     11  H   UNL     1       5.974   2.181  19.582  0.00  0.00    +0.000 HD
ENDBRANCH   1   9
TORSDOF 1
ENDMDL
MODEL 3
REMARK VINA RESULT:      -4.9      2.333      2.809
REMARK  Name = 
REMARK  1 active torsions:
REMARK  status: ('A' for Active; 'I' for Inactive)
REMARK    1  A    between atoms: N_1  and  C_2
REMARK                            x       y       z     vdW  Elec       q    Type
REMARK                         _______ _______ _______ _____ _____    ______ ____
ROOT
ATOM      1  C   UNL     1       4.240   3.141  19.063  0.00  0.00    +0.000 A 
ATOM      2  C   UNL     1       3.477   2.689  20.148  0.00  0.00    +0.000 A 
ATOM      3  C   UNL     1       2.126   2.373  19.984  0.00  0.00    +0.000 A 
ATOM      4  C   UNL     1       1.526   2.549  18.744  0.00  0.00    +0.000 A 
ATOM      5  F   UNL     1       0.229   2.248  18.593  0.00  0.00    +0.000 F 
ATOM      6  C   UNL     1       2.241   3.046  17.664  0.00  0.00    +0.000 A 
ATOM      7  C   UNL     1       3.590   3.357  17.832  0.00  0.00    +0.000 A 
ATOM      8 CL   UNL     1       4.462   3.987  16.475  0.00  0.00    +0.000 Cl
ENDROOT
BRANCH   1   9
ATOM      9  N   UNL     1       5.560   3.571  19.293  0.00  0.00    +0.000 N 
ATOM     10  H   UNL     1       6.094   2.977  19.919  0.00  0.00    +0.000 HD
ATOM     11  H   UNL     1       6.059   3.783  18.430  0.00  0.00    +0.000 HD
ENDBRANCH   1   9
TORSDOF 1
ENDMDL
MODEL 4
REMARK VINA RESULT:      -4.8      2.212      2.468
REMARK  Name = 
REMARK  1 active torsions:
REMARK  status: ('A' for Active; 'I' for Inactive)
REMARK    1  A    between atoms: N_1  and  C_2
REMARK                            x       y       z     vdW  Elec       q    Type
REMARK                         _______ _______ _______ _____ _____    ______ ____
ROOT
ATOM      1  C   UNL     1       1.781   3.115  18.950  0.00  0.00    +0.000 A 
ATOM      2  C   UNL     1       2.014   3.994  17.884  0.00  0.00    +0.000 A 
ATOM      3  C   UNL     1       2.320   5.335  18.121  0.00  0.00    +0.000 A 
ATOM      4  C   UNL     1       2.352   5.811  19.426  0.00  0.00    +0.000 A 
ATOM      5  F   UNL     1       2.643   7.100  19.648  0.00  0.00    +0.000 F 
ATOM      6  C   UNL     1       2.072   4.980  20.500  0.00  0.00    +0.000 A 
ATOM      7  C   UNL     1       1.770   3.640  20.258  0.00  0.00    +0.000 A 
ATOM      8 CL   UNL     1       1.413   2.621  21.611  0.00  0.00    +0.000 Cl
ENDROOT
BRANCH   1   9
ATOM      9  N   UNL     1       1.349   1.806  18.671  0.00  0.00    +0.000 N 
ATOM     10  H   UNL     1       2.090   1.111  18.662  0.00  0.00    +0.000 HD
ATOM     11  H   UNL     1       0.553   1.525  19.242  0.00  0.00    +0.000 HD
ENDBRANCH   1   9
TORSDOF 1
ENDMDL
MODEL 5
REMARK VINA RESULT:      -4.8      2.951      3.457
REMARK  Name = 
REMARK  1 active torsions:
REMARK  status: ('A' for Active; 'I' for Inactive)
REMARK    1  A    between atoms: N_1  and  C_2
REMARK                            x       y       z     vdW  Elec       q    Type
REMARK                         _______ _______ _______ _____ _____    ______ ____
ROOT
ATOM      1  C   UNL     1       2.397   5.178  19.720  0.00  0.00    +0.000 A 
ATOM      2  C   UNL     1       1.418   4.615  20.549  0.00  0.00    +0.000 A 
ATOM      3  C   UNL     1       0.747   3.451  20.169  0.00  0.00    +0.000 A 
ATOM      4  C   UNL     1       1.025   2.871  18.937  0.00  0.00    +0.000 A 
ATOM      5  F   UNL     1       0.376   1.756  18.575  0.00  0.00    +0.000 F 
ATOM      6  C   UNL     1       1.949   3.434  18.070  0.00  0.00    +0.000 A 
ATOM      7  C   UNL     1       2.619   4.595  18.456  0.00  0.00    +0.000 A 
ATOM      8 CL   UNL     1       3.760   5.289  17.355  0.00  0.00    +0.000 Cl
ENDROOT
BRANCH   1   9
ATOM      9  N   UNL     1       2.959   6.418  20.075  0.00  0.00    +0.000 N 
ATOM     10  H   UNL     1       3.973   6.445  20.046  0.00  0.00    +0.000 HD
ATOM     11  H   UNL     1       2.530   7.198  19.579  0.00  0.00    +0.000 HD
ENDBRANCH   1   9
TORSDOF 1
ENDMDL
MODEL 6
REMARK VINA RESULT:      -4.8      2.112      2.797
REMARK  Name = 
REMARK  1 active torsions:
REMARK  status: ('A' for Active; 'I' for Inactive)
REMARK    1  A    between atoms: N_1  and  C_2
REMARK                            x       y       z     vdW  Elec       q    Type
REMARK                         _______ _______ _______ _____ _____    ______ ____
ROOT
ATOM      1  C   UNL     1       3.708   2.517  19.993  0.00  0.00    +0.000 A 
ATOM      2  C   UNL     1       3.047   2.533  21.228  0.00  0.00    +0.000 A 
ATOM      3  C   UNL     1       1.858   3.248  21.389  0.00  0.00    +0.000 A 
ATOM      4  C   UNL     1       1.350   3.984  20.326  0.00  0.00    +0.000 A 
ATOM      5  F   UNL     1       0.211   4.670  20.486  0.00  0.00    +0.000 F 
ATOM      6  C   UNL     1       2.010   4.032  19.106  0.00  0.00    +0.000 A 
ATOM      7  C   UNL     1       3.195   3.313  18.950  0.00  0.00    +0.000 A 
ATOM      8 CL   UNL     1       4.009   3.396  17.424  0.00  0.00    +0.000 Cl
ENDROOT
BRANCH   1   9
ATOM      9  N   UNL     1       4.966   1.895  19.903  0.00  0.00    +0.000 N 
ATOM     10  H   UNL     1       4.952   0.891  20.053  0.00  0.00    +0.000 HD
ATOM     11  H   UNL     1       5.475   2.159  19.060  0.00  0.00    +0.000 HD
ENDBRANCH   1   9
TORSDOF 1
ENDMDL
MODEL 7
REMARK VINA RESULT:      -4.7      2.292      2.619
REMARK  Name = 
REMARK  1 active torsions:
REMARK  status: ('A' for Active; 'I' for Inactive)
REMARK    1  A    between atoms: N_1  and  C_2
REMARK                            x       y       z     vdW  Elec       q    Type
REMARK                         _______ _______ _______ _____ _____    ______ ____
ROOT
ATOM      1  C   UNL     1       4.291   3.396  18.610  0.00  0.00    +0.000 A 
ATOM      2  C   UNL     1       3.811   2.222  19.206  0.00  0.00    +0.000 A 
ATOM      3  C   UNL     1       2.455   1.896  19.143  0.00  0.00    +0.000 A 
ATOM      4  C   UNL     1       1.569   2.764  18.519  0.00  0.00    +0.000 A 
ATOM      5  F   UNL     1       0.268   2.448  18.463  0.00  0.00    +0.000 F 
ATOM      6  C   UNL     1       2.004   3.960  17.966  0.00  0.00    +0.000 A 
ATOM      7  C   UNL     1       3.360   4.280  18.030  0.00  0.00    +0.000 A 
ATOM      8 CL   UNL     1       3.881   5.782  17.345  0.00  0.00    +0.000 Cl
ENDROOT
BRANCH   1   9
ATOM      9  N   UNL     1       5.637   3.757  18.804  0.00  0.00    +0.000 N 
ATOM     10  H   UNL     1       6.294   3.278  18.196  0.00  0.00    +0.000 HD
ATOM     11  H   UNL     1       5.775   4.766  18.815  0.00  0.00    +0.000 HD
ENDBRANCH   1   9
TORSDOF 1
ENDMDL
MODEL 8
REMARK VINA RESULT:      -4.7      1.634      1.848
REMARK  Name = 
REMARK  1 active torsions:
REMARK  status: ('A' for Active; 'I' for Inactive)
REMARK    1  A    between atoms: N_1  and  C_2
REMARK                            x       y       z     vdW  Elec       q    Type
REMARK                         _______ _______ _______ _____ _____    ______ ____
ROOT
ATOM      1  C   UNL     1       4.256   3.529  18.610  0.00  0.00    +0.000 A 
ATOM      2  C   UNL     1       3.396   4.066  17.643  0.00  0.00    +0.000 A 
ATOM      3  C   UNL     1       2.046   3.710  17.615  0.00  0.00    +0.000 A 
ATOM      4  C   UNL     1       1.563   2.781  18.528  0.00  0.00    +0.000 A 
ATOM      5  F   UNL     1       0.268   2.440  18.495  0.00  0.00    +0.000 F 
ATOM      6  C   UNL     1       2.400   2.190  19.463  0.00  0.00    +0.000 A 
ATOM      7  C   UNL     1       3.747   2.552  19.489  0.00  0.00    +0.000 A 
ATOM      8 CL   UNL     1       4.778   1.794  20.655  0.00  0.00    +0.000 Cl
ENDROOT
BRANCH   1   9
ATOM      9  N   UNL     1       5.632   3.810  18.528  0.00  0.00    +0.000 N 
ATOM     10  H   UNL     1       6.015   3.770  17.589  0.00  0.00    +0.000 HD
ATOM     11  H   UNL     1       5.888   4.663  19.022  0.00  0.00    +0.000 HD
ENDBRANCH   1   9
TORSDOF 1
ENDMDL
MODEL 9
REMARK VINA RESULT:      -4.7      2.546      3.006
REMARK  Name = 
REMARK  1 active torsions:
REMARK  status: ('A' for Active; 'I' for Inactive)
REMARK    1  A    between atoms: N_1  and  C_2
REMARK                            x       y       z     vdW  Elec       q    Type
REMARK                         _______ _______ _______ _____ _____    ______ ____
ROOT
ATOM      1  C   UNL     1       3.914   2.881  20.044  0.00  0.00    +0.000 A 
ATOM      2  C   UNL     1       2.871   2.709  20.963  0.00  0.00    +0.000 A 
ATOM      3  C   UNL     1       1.972   3.745  21.222  0.00  0.00    +0.000 A 
ATOM      4  C   UNL     1       2.141   4.973  20.593  0.00  0.00    +0.000 A 
ATOM      5  F   UNL     1       1.279   5.966  20.848  0.00  0.00    +0.000 F 
ATOM      6  C   UNL     1       3.196   5.193  19.719  0.00  0.00    +0.000 A 
ATOM      7  C   UNL     1       4.089   4.153  19.462  0.00  0.00    +0.000 A 
ATOM      8 CL   UNL     1       5.405   4.451  18.378  0.00  0.00    +0.000 Cl
ENDROOT
BRANCH   1   9
ATOM      9  N   UNL     1       4.874   1.862  19.904  0.00  0.00    +0.000 N 
ATOM     10  H   UNL     1       4.538   0.932  20.135  0.00  0.00    +0.000 HD
ATOM     11  H   UNL     1       5.353   1.896  19.006  0.00  0.00    +0.000 HD
ENDBRANCH   1   9
TORSDOF 1
ENDMDL
