MODEL 1
REMARK VINA RESULT:      -8.2      0.000      0.000
REMARK  Name = 
REMARK  4 active torsions:
REMARK  status: ('A' for Active; 'I' for Inactive)
REMARK    1  A    between atoms: C_1  and  C_2
REMARK    2  A    between atoms: C_8  and  C_9
REMARK    3  A    between atoms: N_19  and  C_20
REMARK    4  A    between atoms: C_24  and  C_25
REMARK                            x       y       z     vdW  Elec       q    Type
REMARK                         _______ _______ _______ _____ _____    ______ ____
ROOT
ATOM      1  C   UNL     1       0.997   9.148  20.050  0.00  0.00    +0.000 A 
ATOM      2  C   UNL     1       0.304   8.504  21.078  0.00  0.00    +0.000 A 
ATOM      3  C   UNL     1      -0.526   9.163  21.948  0.00  0.00    +0.000 A 
ATOM      4  C   UNL     1      -0.551  10.513  22.027  0.00  0.00    +0.000 A 
ATOM      5  N   UNL     1      -1.269  10.828  23.101  0.00  0.00    +0.000 NA
ATOM      6  C   UNL     1      -1.420  12.097  23.428  0.00  0.00    +0.000 A 
ATOM      7  C   UNL     1      -0.887  13.061  22.638  0.00  0.00    +0.000 A 
ATOM      8  N   UNL     1      -1.081  14.407  22.828  0.00  0.00    +0.000 N 
ATOM      9  C   UNL     1      -0.429  15.100  21.830  0.00  0.00    +0.000 A 
ATOM     10  O   UNL     1      -0.452  16.319  21.759  0.00  0.00    +0.000 OA
ATOM     11  N   UNL     1       0.302  14.118  21.049  0.00  0.00    +0.000 N 
ATOM     12  C   UNL     1      -0.069  12.785  21.521  0.00  0.00    +0.000 A 
ATOM     13  C   UNL     1       0.146  11.375  21.119  0.00  0.00    +0.000 A 
ATOM     14  C   UNL     1       0.853  10.593  20.036  0.00  0.00    +0.000 A 
ATOM     15  H   UNL     1      -1.584  14.855  23.578  0.00  0.00    +0.000 HD
ENDROOT
BRANCH   1  23
ATOM     16  C   UNL     1       5.225   4.100  19.291  0.00  0.00    +0.000 C 
ATOM     17  C   UNL     1       5.648   4.787  18.023  0.00  0.00    +0.000 C 
ATOM     18  O   UNL     1       6.644   4.397  17.397  0.00  0.00    +0.000 OA
ATOM     19  N   UNL     1       4.953   5.851  17.523  0.00  0.00    +0.000 N 
ATOM     20  C   UNL     1       3.859   6.550  18.033  0.00  0.00    +0.000 A 
ATOM     21  C   UNL     1       3.431   7.721  17.395  0.00  0.00    +0.000 A 
ATOM     22  C   UNL     1       2.444   8.561  17.976  0.00  0.00    +0.000 A 
ATOM     23  C   UNL     1       1.867   8.235  19.199  0.00  0.00    +0.000 A 
ATOM     24  C   UNL     1       2.271   6.948  19.650  0.00  0.00    +0.000 A 
ATOM     25  N   UNL     1       3.235   6.132  19.133  0.00  0.00    +0.000 NA
ATOM     26  H   UNL     1       5.389   6.218  16.689  0.00  0.00    +0.000 HD
ENDBRANCH   1  23
BRANCH  11  27
ATOM     27  C   UNL     1       1.586  14.548  20.619  0.00  0.00    +0.000 A 
ATOM     28  C   UNL     1       2.737  14.167  21.348  0.00  0.00    +0.000 A 
ATOM     29  C   UNL     1       4.028  14.474  20.910  0.00  0.00    +0.000 A 
ATOM     30  C   UNL     1       4.195  15.190  19.733  0.00  0.00    +0.000 A 
ATOM     31  C   UNL     1       3.074  15.523  18.958  0.00  0.00    +0.000 A 
ATOM     32  C   UNL     1       1.781  15.149  19.381  0.00  0.00    +0.000 A 
BRANCH  31  33
ATOM     33  C   UNL     1       3.218  16.317  17.689  0.00  0.00    +0.000 C 
ATOM     34  F   UNL     1       3.457  15.542  16.596  0.00  0.00    +0.000 F 
ATOM     35  F   UNL     1       2.124  17.070  17.393  0.00  0.00    +0.000 F 
ATOM     36  F   UNL     1       4.265  17.187  17.757  0.00  0.00    +0.000 F 
ENDBRANCH  31  33
ENDBRANCH  11  27
TORSDOF 3
ENDMDL
MODEL 2
REMARK VINA RESULT:      -8.1      0.987      1.189
REMARK  Name = 
REMARK  4 active torsions:
REMARK  status: ('A' for Active; 'I' for Inactive)
REMARK    1  A    between atoms: C_1  and  C_2
REMARK    2  A    between atoms: C_8  and  C_9
REMARK    3  A    between atoms: N_19  and  C_20
REMARK    4  A    between atoms: C_24  and  C_25
REMARK                            x       y       z     vdW  Elec       q    Type
REMARK                         _______ _______ _______ _____ _____    ______ ____
ROOT
ATOM      1  C   UNL     1       0.982   9.063  20.043  0.00  0.00    +0.000 A 
ATOM      2  C   UNL     1       0.582   8.467  21.242  0.00  0.00    +0.000 A 
ATOM      3  C   UNL     1      -0.221   9.094  22.158  0.00  0.00    +0.000 A 
ATOM      4  C   UNL     1      -0.491  10.418  22.083  0.00  0.00    +0.000 A 
ATOM      5  N   UNL     1      -1.092  10.759  23.220  0.00  0.00    +0.000 NA
ATOM      6  C   UNL     1      -1.431  12.018  23.418  0.00  0.00    +0.000 A 
ATOM      7  C   UNL     1      -1.213  12.934  22.443  0.00  0.00    +0.000 A 
ATOM      8  N   UNL     1      -1.630  14.240  22.506  0.00  0.00    +0.000 N 
ATOM      9  C   UNL     1      -1.275  14.882  21.337  0.00  0.00    +0.000 A 
ATOM     10  O   UNL     1      -1.540  16.056  21.130  0.00  0.00    +0.000 OA
ATOM     11  N   UNL     1      -0.493  13.935  20.562  0.00  0.00    +0.000 N 
ATOM     12  C   UNL     1      -0.530  12.641  21.243  0.00  0.00    +0.000 A 
ATOM     13  C   UNL     1      -0.112  11.245  20.976  0.00  0.00    +0.000 A 
ATOM     14  C   UNL     1       0.565  10.445  19.886  0.00  0.00    +0.000 A 
ATOM     15  H   UNL     1      -2.094  14.700  23.273  0.00  0.00    +0.000 HD
ENDROOT
BRANCH   1  23
ATOM     16  C   UNL     1       5.328   4.140  19.147  0.00  0.00    +0.000 C 
ATOM     17  C   UNL     1       5.739   4.875  17.902  0.00  0.00    +0.000 C 
ATOM     18  O   UNL     1       6.746   4.527  17.268  0.00  0.00    +0.000 OA
ATOM     19  N   UNL     1       5.022   5.937  17.433  0.00  0.00    +0.000 N 
ATOM     20  C   UNL     1       3.911   6.595  17.959  0.00  0.00    +0.000 A 
ATOM     21  C   UNL     1       3.457   7.775  17.355  0.00  0.00    +0.000 A 
ATOM     22  C   UNL     1       2.449   8.573  17.958  0.00  0.00    +0.000 A 
ATOM     23  C   UNL     1       1.876   8.197  19.168  0.00  0.00    +0.000 A 
ATOM     24  C   UNL     1       2.308   6.906  19.581  0.00  0.00    +0.000 A 
ATOM     25  N   UNL     1       3.293   6.128  19.043  0.00  0.00    +0.000 NA
ATOM     26  H   UNL     1       5.452   6.340  16.612  0.00  0.00    +0.000 HD
ENDBRANCH   1  23
BRANCH  11  27
ATOM     27  C   UNL     1       0.609  14.509  19.873  0.00  0.00    +0.000 A 
ATOM     28  C   UNL     1       1.836  13.809  19.800  0.00  0.00    +0.000 A 
ATOM     29  C   UNL     1       2.915  14.281  19.047  0.00  0.00    +0.000 A 
ATOM     30  C   UNL     1       2.793  15.481  18.361  0.00  0.00    +0.000 A 
ATOM     31  C   UNL     1       1.566  16.161  18.365  0.00  0.00    +0.000 A 
ATOM     32  C   UNL     1       0.466  15.639  19.076  0.00  0.00    +0.000 A 
BRANCH  31  33
ATOM     33  C   UNL     1       1.407  17.475  17.650  0.00  0.00    +0.000 C 
ATOM     34  F   UNL     1       2.332  17.668  16.670  0.00  0.00    +0.000 F 
ATOM     35  F   UNL     1       0.189  17.631  17.065  0.00  0.00    +0.000 F 
ATOM     36  F   UNL     1       1.553  18.530  18.502  0.00  0.00    +0.000 F 
ENDBRANCH  31  33
ENDBRANCH  11  27
TORSDOF 3
ENDMDL
MODEL 3
REMARK VINA RESULT:      -8.1      4.713      6.201
REMARK  Name = 
REMARK  4 active torsions:
REMARK  status: ('A' for Active; 'I' for Inactive)
REMARK    1  A    between atoms: C_1  and  C_2
REMARK    2  A    between atoms: C_8  and  C_9
REMARK    3  A    between atoms: N_19  and  C_20
REMARK    4  A    between atoms: C_24  and  C_25
REMARK                            x       y       z     vdW  Elec       q    Type
REMARK                         _______ _______ _______ _____ _____    ______ ____
ROOT
ATOM      1  C   UNL     1      -1.592  10.586  18.799  0.00  0.00    +0.000 A 
ATOM      2  C   UNL     1      -2.232  10.030  17.689  0.00  0.00    +0.000 A 
ATOM      3  C   UNL     1      -3.386  10.543  17.156  0.00  0.00    +0.000 A 
ATOM      4  C   UNL     1      -4.119  11.477  17.805  0.00  0.00    +0.000 A 
ATOM      5  N   UNL     1      -5.271  11.593  17.151  0.00  0.00    +0.000 NA
ATOM      6  C   UNL     1      -6.190  12.423  17.604  0.00  0.00    +0.000 A 
ATOM      7  C   UNL     1      -5.929  13.183  18.695  0.00  0.00    +0.000 A 
ATOM      8  N   UNL     1      -6.771  14.154  19.178  0.00  0.00    +0.000 N 
ATOM      9  C   UNL     1      -6.185  14.753  20.273  0.00  0.00    +0.000 A 
ATOM     10  O   UNL     1      -6.722  15.662  20.887  0.00  0.00    +0.000 OA
ATOM     11  N   UNL     1      -4.958  14.024  20.542  0.00  0.00    +0.000 N 
ATOM     12  C   UNL     1      -4.749  13.061  19.461  0.00  0.00    +0.000 A 
ATOM     13  C   UNL     1      -3.689  12.131  19.005  0.00  0.00    +0.000 A 
ATOM     14  C   UNL     1      -2.301  11.694  19.415  0.00  0.00    +0.000 A 
ATOM     15  H   UNL     1      -7.687  14.397  18.836  0.00  0.00    +0.000 HD
ENDROOT
BRANCH   1  23
ATOM     16  C   UNL     1       3.575   6.594  17.659  0.00  0.00    +0.000 C 
ATOM     17  C   UNL     1       3.573   6.348  19.141  0.00  0.00    +0.000 C 
ATOM     18  O   UNL     1       4.284   5.459  19.633  0.00  0.00    +0.000 OA
ATOM     19  N   UNL     1       2.799   7.091  19.985  0.00  0.00    +0.000 N 
ATOM     20  C   UNL     1       1.859   8.088  19.726  0.00  0.00    +0.000 A 
ATOM     21  C   UNL     1       1.074   8.585  20.774  0.00  0.00    +0.000 A 
ATOM     22  C   UNL     1      -0.015   9.464  20.529  0.00  0.00    +0.000 A 
ATOM     23  C   UNL     1      -0.326   9.863  19.233  0.00  0.00    +0.000 A 
ATOM     24  C   UNL     1       0.646   9.419  18.293  0.00  0.00    +0.000 A 
ATOM     25  N   UNL     1       1.682   8.553  18.490  0.00  0.00    +0.000 NA
ATOM     26  H   UNL     1       2.886   6.774  20.941  0.00  0.00    +0.000 HD
ENDBRANCH   1  23
BRANCH  11  27
ATOM     27  C   UNL     1      -4.676  13.836  21.922  0.00  0.00    +0.000 A 
ATOM     28  C   UNL     1      -5.440  12.917  22.678  0.00  0.00    +0.000 A 
ATOM     29  C   UNL     1      -5.136  12.619  24.010  0.00  0.00    +0.000 A 
ATOM     30  C   UNL     1      -4.064  13.254  24.621  0.00  0.00    +0.000 A 
ATOM     31  C   UNL     1      -3.253  14.121  23.875  0.00  0.00    +0.000 A 
ATOM     32  C   UNL     1      -3.533  14.361  22.514  0.00  0.00    +0.000 A 
BRANCH  31  33
ATOM     33  C   UNL     1      -2.097  14.843  24.513  0.00  0.00    +0.000 C 
ATOM     34  F   UNL     1      -1.957  16.124  24.073  0.00  0.00    +0.000 F 
ATOM     35  F   UNL     1      -2.182  14.910  25.869  0.00  0.00    +0.000 F 
ATOM     36  F   UNL     1      -0.911  14.230  24.240  0.00  0.00    +0.000 F 
ENDBRANCH  31  33
ENDBRANCH  11  27
TORSDOF 3
ENDMDL
MODEL 4
REMARK VINA RESULT:      -8.1      5.206      7.995
REMARK  Name = 
REMARK  4 active torsions:
REMARK  status: ('A' for Active; 'I' for Inactive)
REMARK    1  A    between atoms: C_1  and  C_2
REMARK    2  A    between atoms: C_8  and  C_9
REMARK    3  A    between atoms: N_19  and  C_20
REMARK    4  A    between atoms: C_24  and  C_25
REMARK                            x       y       z     vdW  Elec       q    Type
REMARK                         _______ _______ _______ _____ _____    ______ ____
ROOT
ATOM      1  C   UNL     1       3.278  14.642  19.701  0.00  0.00    +0.000 A 
ATOM      2  C   UNL     1       2.738  15.875  20.073  0.00  0.00    +0.000 A 
ATOM      3  C   UNL     1       3.466  17.036  20.090  0.00  0.00    +0.000 A 
ATOM      4  C   UNL     1       4.815  17.035  19.979  0.00  0.00    +0.000 A 
ATOM      5  N   UNL     1       5.230  18.267  20.259  0.00  0.00    +0.000 NA
ATOM      6  C   UNL     1       6.523  18.529  20.256  0.00  0.00    +0.000 A 
ATOM      7  C   UNL     1       7.404  17.556  19.917  0.00  0.00    +0.000 A 
ATOM      8  N   UNL     1       8.755  17.755  19.776  0.00  0.00    +0.000 N 
ATOM      9  C   UNL     1       9.346  16.569  19.393  0.00  0.00    +0.000 A 
ATOM     10  O   UNL     1      10.546  16.474  19.186  0.00  0.00    +0.000 OA
ATOM     11  N   UNL     1       8.304  15.558  19.413  0.00  0.00    +0.000 N 
ATOM     12  C   UNL     1       7.024  16.219  19.667  0.00  0.00    +0.000 A 
ATOM     13  C   UNL     1       5.585  15.867  19.673  0.00  0.00    +0.000 A 
ATOM     14  C   UNL     1       4.705  14.662  19.431  0.00  0.00    +0.000 A 
ATOM     15  H   UNL     1       9.271  18.603  19.944  0.00  0.00    +0.000 HD
ENDROOT
BRANCH   1  23
ATOM     16  C   UNL     1      -0.286  10.113  22.976  0.00  0.00    +0.000 C 
ATOM     17  C   UNL     1      -0.249   9.319  21.699  0.00  0.00    +0.000 C 
ATOM     18  O   UNL     1      -0.648   8.146  21.675  0.00  0.00    +0.000 OA
ATOM     19  N   UNL     1       0.219   9.862  20.537  0.00  0.00    +0.000 N 
ATOM     20  C   UNL     1       0.794  11.105  20.274  0.00  0.00    +0.000 A 
ATOM     21  C   UNL     1       1.344  11.356  19.011  0.00  0.00    +0.000 A 
ATOM     22  C   UNL     1       2.097  12.533  18.754  0.00  0.00    +0.000 A 
ATOM     23  C   UNL     1       2.301  13.477  19.755  0.00  0.00    +0.000 A 
ATOM     24  C   UNL     1       1.554  13.176  20.928  0.00  0.00    +0.000 A 
ATOM     25  N   UNL     1       0.847  12.044  21.216  0.00  0.00    +0.000 NA
ATOM     26  H   UNL     1       0.211   9.186  19.786  0.00  0.00    +0.000 HD
ENDBRANCH   1  23
BRANCH  11  27
ATOM     27  C   UNL     1       8.725  14.291  19.900  0.00  0.00    +0.000 A 
ATOM     28  C   UNL     1       8.898  14.093  21.290  0.00  0.00    +0.000 A 
ATOM     29  C   UNL     1       9.207  12.840  21.827  0.00  0.00    +0.000 A 
ATOM     30  C   UNL     1       9.369  11.756  20.976  0.00  0.00    +0.000 A 
ATOM     31  C   UNL     1       9.139  11.912  19.601  0.00  0.00    +0.000 A 
ATOM     32  C   UNL     1       8.763  13.168  19.082  0.00  0.00    +0.000 A 
BRANCH  31  33
ATOM     33  C   UNL     1       9.327  10.762  18.649  0.00  0.00    +0.000 C 
ATOM     34  F   UNL     1       9.563   9.578  19.279  0.00  0.00    +0.000 F 
ATOM     35  F   UNL     1       8.262  10.556  17.830  0.00  0.00    +0.000 F 
ATOM     36  F   UNL     1      10.399  10.960  17.830  0.00  0.00    +0.000 F 
ENDBRANCH  31  33
ENDBRANCH  11  27
TORSDOF 3
ENDMDL
MODEL 5
REMARK VINA RESULT:      -8.0      5.916      9.722
REMARK  Name = 
REMARK  4 active torsions:
REMARK  status: ('A' for Active; 'I' for Inactive)
REMARK    1  A    between atoms: C_1  and  C_2
REMARK    2  A    between atoms: C_8  and  C_9
REMARK    3  A    between atoms: N_19  and  C_20
REMARK    4  A    between atoms: C_24  and  C_25
REMARK                            x       y       z     vdW  Elec       q    Type
REMARK                         _______ _______ _______ _____ _____    ______ ____
ROOT
ATOM      1  C   UNL     1       5.309  15.544  18.671  0.00  0.00    +0.000 A 
ATOM      2  C   UNL     1       5.544  16.914  18.810  0.00  0.00    +0.000 A 
ATOM      3  C   UNL     1       6.751  17.498  18.529  0.00  0.00    +0.000 A 
ATOM      4  C   UNL     1       7.871  16.764  18.327  0.00  0.00    +0.000 A 
ATOM      5  N   UNL     1       8.895  17.612  18.310  0.00  0.00    +0.000 NA
ATOM      6  C   UNL     1      10.119  17.142  18.162  0.00  0.00    +0.000 A 
ATOM      7  C   UNL     1      10.310  15.814  17.977  0.00  0.00    +0.000 A 
ATOM      8  N   UNL     1      11.528  15.241  17.704  0.00  0.00    +0.000 N 
ATOM      9  C   UNL     1      11.358  13.882  17.541  0.00  0.00    +0.000 A 
ATOM     10  O   UNL     1      12.287  13.135  17.277  0.00  0.00    +0.000 OA
ATOM     11  N   UNL     1       9.968  13.595  17.847  0.00  0.00    +0.000 N 
ATOM     12  C   UNL     1       9.268  14.864  18.043  0.00  0.00    +0.000 A 
ATOM     13  C   UNL     1       7.875  15.336  18.223  0.00  0.00    +0.000 A 
ATOM     14  C   UNL     1       6.478  14.764  18.305  0.00  0.00    +0.000 A 
ATOM     15  H   UNL     1      12.423  15.699  17.652  0.00  0.00    +0.000 HD
ENDROOT
BRANCH   1  23
ATOM     16  C   UNL     1       0.967  11.075  20.932  0.00  0.00    +0.000 C 
ATOM     17  C   UNL     1      -0.062  11.838  20.146  0.00  0.00    +0.000 C 
ATOM     18  O   UNL     1      -1.205  11.382  19.995  0.00  0.00    +0.000 OA
ATOM     19  N   UNL     1       0.226  13.048  19.582  0.00  0.00    +0.000 N 
ATOM     20  C   UNL     1       1.419  13.766  19.517  0.00  0.00    +0.000 A 
ATOM     21  C   UNL     1       1.485  14.922  18.729  0.00  0.00    +0.000 A 
ATOM     22  C   UNL     1       2.720  15.582  18.488  0.00  0.00    +0.000 A 
ATOM     23  C   UNL     1       3.902  15.098  19.039  0.00  0.00    +0.000 A 
ATOM     24  C   UNL     1       3.666  14.025  19.943  0.00  0.00    +0.000 A 
ATOM     25  N   UNL     1       2.501  13.352  20.174  0.00  0.00    +0.000 NA
ATOM     26  H   UNL     1      -0.561  13.407  19.059  0.00  0.00    +0.000 HD
ENDBRANCH   1  23
BRANCH  11  27
ATOM     27  C   UNL     1       9.762  12.384  18.562  0.00  0.00    +0.000 A 
ATOM     28  C   UNL     1      10.019  12.334  19.952  0.00  0.00    +0.000 A 
ATOM     29  C   UNL     1       9.734  11.200  20.719  0.00  0.00    +0.000 A 
ATOM     30  C   UNL     1       9.198  10.079  20.102  0.00  0.00    +0.000 A 
ATOM     31  C   UNL     1       8.874  10.125  18.738  0.00  0.00    +0.000 A 
ATOM     32  C   UNL     1       9.107  11.298  17.991  0.00  0.00    +0.000 A 
BRANCH  31  33
ATOM     33  C   UNL     1       8.313   8.920  18.033  0.00  0.00    +0.000 C 
ATOM     34  F   UNL     1       8.872   8.705  16.811  0.00  0.00    +0.000 F 
ATOM     35  F   UNL     1       8.463   7.764  18.733  0.00  0.00    +0.000 F 
ATOM     36  F   UNL     1       6.975   9.050  17.805  0.00  0.00    +0.000 F 
ENDBRANCH  31  33
ENDBRANCH  11  27
TORSDOF 3
ENDMDL
MODEL 6
REMARK VINA RESULT:      -8.0      5.689      9.540
REMARK  Name = 
REMARK  4 active torsions:
REMARK  status: ('A' for Active; 'I' for Inactive)
REMARK    1  A    between atoms: C_1  and  C_2
REMARK    2  A    between atoms: C_8  and  C_9
REMARK    3  A    between atoms: N_19  and  C_20
REMARK    4  A    between atoms: C_24  and  C_25
REMARK                            x       y       z     vdW  Elec       q    Type
REMARK                         _______ _______ _______ _____ _____    ______ ____
ROOT
ATOM      1  C   UNL     1       4.587  15.112  18.831  0.00  0.00    +0.000 A 
ATOM      2  C   UNL     1       4.595  16.499  18.996  0.00  0.00    +0.000 A 
ATOM      3  C   UNL     1       5.682  17.281  18.705  0.00  0.00    +0.000 A 
ATOM      4  C   UNL     1       6.902  16.747  18.463  0.00  0.00    +0.000 A 
ATOM      5  N   UNL     1       7.772  17.753  18.444  0.00  0.00    +0.000 NA
ATOM      6  C   UNL     1       9.053  17.495  18.261  0.00  0.00    +0.000 A 
ATOM      7  C   UNL     1       9.456  16.221  18.041  0.00  0.00    +0.000 A 
ATOM      8  N   UNL     1      10.745  15.863  17.730  0.00  0.00    +0.000 N 
ATOM      9  C   UNL     1      10.798  14.498  17.539  0.00  0.00    +0.000 A 
ATOM     10  O   UNL     1      11.831  13.921  17.238  0.00  0.00    +0.000 OA
ATOM     11  N   UNL     1       9.482  13.979  17.867  0.00  0.00    +0.000 N 
ATOM     12  C   UNL     1       8.587  15.110  18.106  0.00  0.00    +0.000 A 
ATOM     13  C   UNL     1       7.140  15.341  18.326  0.00  0.00    +0.000 A 
ATOM     14  C   UNL     1       5.859  14.544  18.422  0.00  0.00    +0.000 A 
ATOM     15  H   UNL     1      11.551  16.464  17.670  0.00  0.00    +0.000 HD
ENDROOT
BRANCH   1  23
ATOM     16  C   UNL     1      -0.568  14.171  22.889  0.00  0.00    +0.000 C 
ATOM     17  C   UNL     1      -0.669  12.806  22.268  0.00  0.00    +0.000 C 
ATOM     18  O   UNL     1      -1.427  11.950  22.747  0.00  0.00    +0.000 OA
ATOM     19  N   UNL     1       0.062  12.470  21.165  0.00  0.00    +0.000 N 
ATOM     20  C   UNL     1       1.036  13.179  20.462  0.00  0.00    +0.000 A 
ATOM     21  C   UNL     1       1.759  12.537  19.449  0.00  0.00    +0.000 A 
ATOM     22  C   UNL     1       2.878  13.158  18.833  0.00  0.00    +0.000 A 
ATOM     23  C   UNL     1       3.282  14.432  19.216  0.00  0.00    +0.000 A 
ATOM     24  C   UNL     1       2.366  15.027  20.129  0.00  0.00    +0.000 A 
ATOM     25  N   UNL     1       1.302  14.449  20.760  0.00  0.00    +0.000 NA
ATOM     26  H   UNL     1      -0.094  11.508  20.898  0.00  0.00    +0.000 HD
ENDBRANCH   1  23
BRANCH  11  27
ATOM     27  C   UNL     1       9.497  12.737  18.557  0.00  0.00    +0.000 A 
ATOM     28  C   UNL     1       9.923  12.685  19.904  0.00  0.00    +0.000 A 
ATOM     29  C   UNL     1       9.857  11.510  20.659  0.00  0.00    +0.000 A 
ATOM     30  C   UNL     1       9.375  10.349  20.069  0.00  0.00    +0.000 A 
ATOM     31  C   UNL     1       8.886  10.389  18.755  0.00  0.00    +0.000 A 
ATOM     32  C   UNL     1       8.899  11.598  18.029  0.00  0.00    +0.000 A 
BRANCH  31  33
ATOM     33  C   UNL     1       8.378   9.145  18.079  0.00  0.00    +0.000 C 
ATOM     34  F   UNL     1       7.026   9.138  17.916  0.00  0.00    +0.000 F 
ATOM     35  F   UNL     1       8.915   8.940  16.846  0.00  0.00    +0.000 F 
ATOM     36  F   UNL     1       8.664   8.028  18.805  0.00  0.00    +0.000 F 
ENDBRANCH  31  33
ENDBRANCH  11  27
TORSDOF 3
ENDMDL
MODEL 7
REMARK VINA RESULT:      -7.9      1.418      1.893
REMARK  Name = 
REMARK  4 active torsions:
REMARK  status: ('A' for Active; 'I' for Inactive)
REMARK    1  A    between atoms: C_1  and  C_2
REMARK    2  A    between atoms: C_8  and  C_9
REMARK    3  A    between atoms: N_19  and  C_20
REMARK    4  A    between atoms: C_24  and  C_25
REMARK                            x       y       z     vdW  Elec       q    Type
REMARK                         _______ _______ _______ _____ _____    ______ ____
ROOT
ATOM      1  C   UNL     1       1.021   9.123  20.063  0.00  0.00    +0.000 A 
ATOM      2  C   UNL     1       0.471   8.527  21.200  0.00  0.00    +0.000 A 
ATOM      3  C   UNL     1      -0.327   9.202  22.087  0.00  0.00    +0.000 A 
ATOM      4  C   UNL     1      -0.445  10.550  22.059  0.00  0.00    +0.000 A 
ATOM      5  N   UNL     1      -1.088  10.909  23.165  0.00  0.00    +0.000 NA
ATOM      6  C   UNL     1      -1.303  12.189  23.401  0.00  0.00    +0.000 A 
ATOM      7  C   UNL     1      -0.915  13.113  22.490  0.00  0.00    +0.000 A 
ATOM      8  N   UNL     1      -1.191  14.455  22.587  0.00  0.00    +0.000 N 
ATOM      9  C   UNL     1      -0.682  15.100  21.479  0.00  0.00    +0.000 A 
ATOM     10  O   UNL     1      -0.801  16.304  21.312  0.00  0.00    +0.000 OA
ATOM     11  N   UNL     1       0.049  14.104  20.715  0.00  0.00    +0.000 N 
ATOM     12  C   UNL     1      -0.179  12.795  21.327  0.00  0.00    +0.000 A 
ATOM     13  C   UNL     1       0.104  11.373  21.023  0.00  0.00    +0.000 A 
ATOM     14  C   UNL     1       0.770  10.548  19.945  0.00  0.00    +0.000 A 
ATOM     15  H   UNL     1      -1.658  14.932  23.341  0.00  0.00    +0.000 HD
ENDROOT
BRANCH   1  23
ATOM     16  C   UNL     1       5.226   4.055  19.308  0.00  0.00    +0.000 C 
ATOM     17  C   UNL     1       5.637   4.728  18.028  0.00  0.00    +0.000 C 
ATOM     18  O   UNL     1       6.625   4.329  17.395  0.00  0.00    +0.000 OA
ATOM     19  N   UNL     1       4.940   5.789  17.526  0.00  0.00    +0.000 N 
ATOM     20  C   UNL     1       3.854   6.497  18.041  0.00  0.00    +0.000 A 
ATOM     21  C   UNL     1       3.422   7.662  17.396  0.00  0.00    +0.000 A 
ATOM     22  C   UNL     1       2.444   8.511  17.980  0.00  0.00    +0.000 A 
ATOM     23  C   UNL     1       1.880   8.199  19.212  0.00  0.00    +0.000 A 
ATOM     24  C   UNL     1       2.285   6.915  19.672  0.00  0.00    +0.000 A 
ATOM     25  N   UNL     1       3.241   6.091  19.152  0.00  0.00    +0.000 NA
ATOM     26  H   UNL     1       5.368   6.146  16.684  0.00  0.00    +0.000 HD
ENDBRANCH   1  23
BRANCH  11  27
ATOM     27  C   UNL     1       1.256  14.579  20.135  0.00  0.00    +0.000 A 
ATOM     28  C   UNL     1       1.220  15.266  18.898  0.00  0.00    +0.000 A 
ATOM     29  C   UNL     1       2.363  15.844  18.337  0.00  0.00    +0.000 A 
ATOM     30  C   UNL     1       3.577  15.730  19.000  0.00  0.00    +0.000 A 
ATOM     31  C   UNL     1       3.627  15.111  20.257  0.00  0.00    +0.000 A 
ATOM     32  C   UNL     1       2.454  14.590  20.840  0.00  0.00    +0.000 A 
BRANCH  31  33
ATOM     33  C   UNL     1       4.931  14.951  20.990  0.00  0.00    +0.000 C 
ATOM     34  F   UNL     1       5.989  14.730  20.161  0.00  0.00    +0.000 F 
ATOM     35  F   UNL     1       5.260  16.027  21.753  0.00  0.00    +0.000 F 
ATOM     36  F   UNL     1       4.902  13.884  21.838  0.00  0.00    +0.000 F 
ENDBRANCH  31  33
ENDBRANCH  11  27
TORSDOF 3
ENDMDL
MODEL 8
REMARK VINA RESULT:      -7.9      1.528      2.230
REMARK  Name = 
REMARK  4 active torsions:
REMARK  status: ('A' for Active; 'I' for Inactive)
REMARK    1  A    between atoms: C_1  and  C_2
REMARK    2  A    between atoms: C_8  and  C_9
REMARK    3  A    between atoms: N_19  and  C_20
REMARK    4  A    between atoms: C_24  and  C_25
REMARK                            x       y       z     vdW  Elec       q    Type
REMARK                         _______ _______ _______ _____ _____    ______ ____
ROOT
ATOM      1  C   UNL     1       0.352  10.511  20.292  0.00  0.00    +0.000 A 
ATOM      2  C   UNL     1       0.058  10.139  21.606  0.00  0.00    +0.000 A 
ATOM      3  C   UNL     1      -0.551  10.978  22.502  0.00  0.00    +0.000 A 
ATOM      4  C   UNL     1      -0.696  12.301  22.258  0.00  0.00    +0.000 A 
ATOM      5  N   UNL     1      -1.103  12.865  23.391  0.00  0.00    +0.000 NA
ATOM      6  C   UNL     1      -1.288  14.170  23.432  0.00  0.00    +0.000 A 
ATOM      7  C   UNL     1      -1.112  14.909  22.310  0.00  0.00    +0.000 A 
ATOM      8  N   UNL     1      -1.386  16.251  22.220  0.00  0.00    +0.000 N 
ATOM      9  C   UNL     1      -1.128  16.677  20.933  0.00  0.00    +0.000 A 
ATOM     10  O   UNL     1      -1.301  17.833  20.581  0.00  0.00    +0.000 OA
ATOM     11  N   UNL     1      -0.553  15.546  20.227  0.00  0.00    +0.000 N 
ATOM     12  C   UNL     1      -0.627  14.373  21.097  0.00  0.00    +0.000 A 
ATOM     13  C   UNL     1      -0.388  12.914  21.001  0.00  0.00    +0.000 A 
ATOM     14  C   UNL     1       0.057  11.896  19.975  0.00  0.00    +0.000 A 
ATOM     15  H   UNL     1      -1.696  16.865  22.956  0.00  0.00    +0.000 HD
ENDROOT
BRANCH   1  23
ATOM     16  C   UNL     1       4.353   5.269  19.617  0.00  0.00    +0.000 C 
ATOM     17  C   UNL     1       4.504   5.705  18.186  0.00  0.00    +0.000 C 
ATOM     18  O   UNL     1       5.352   5.177  17.453  0.00  0.00    +0.000 OA
ATOM     19  N   UNL     1       3.717   6.686  17.655  0.00  0.00    +0.000 N 
ATOM     20  C   UNL     1       2.749   7.501  18.240  0.00  0.00    +0.000 A 
ATOM     21  C   UNL     1       2.194   8.553  17.501  0.00  0.00    +0.000 A 
ATOM     22  C   UNL     1       1.344   9.515  18.109  0.00  0.00    +0.000 A 
ATOM     23  C   UNL     1       1.033   9.432  19.462  0.00  0.00    +0.000 A 
ATOM     24  C   UNL     1       1.526   8.233  20.047  0.00  0.00    +0.000 A 
ATOM     25  N   UNL     1       2.366   7.306  19.501  0.00  0.00    +0.000 NA
ATOM     26  H   UNL     1       3.971   6.884  16.697  0.00  0.00    +0.000 HD
ENDBRANCH   1  23
BRANCH  11  27
ATOM     27  C   UNL     1       0.499  15.885  19.334  0.00  0.00    +0.000 A 
ATOM     28  C   UNL     1       0.439  17.093  18.600  0.00  0.00    +0.000 A 
ATOM     29  C   UNL     1       1.494  17.523  17.790  0.00  0.00    +0.000 A 
ATOM     30  C   UNL     1       2.633  16.737  17.685  0.00  0.00    +0.000 A 
ATOM     31  C   UNL     1       2.745  15.568  18.451  0.00  0.00    +0.000 A 
ATOM     32  C   UNL     1       1.698  15.182  19.314  0.00  0.00    +0.000 A 
BRANCH  31  33
ATOM     33  C   UNL     1       3.956  14.683  18.343  0.00  0.00    +0.000 C 
ATOM     34  F   UNL     1       4.792  15.041  17.329  0.00  0.00    +0.000 F 
ATOM     35  F   UNL     1       4.712  14.657  19.473  0.00  0.00    +0.000 F 
ATOM     36  F   UNL     1       3.610  13.389  18.091  0.00  0.00    +0.000 F 
ENDBRANCH  31  33
ENDBRANCH  11  27
TORSDOF 3
ENDMDL
MODEL 9
REMARK VINA RESULT:      -7.9      5.525      8.292
REMARK  Name = 
REMARK  4 active torsions:
REMARK  status: ('A' for Active; 'I' for Inactive)
REMARK    1  A    between atoms: C_1  and  C_2
REMARK    2  A    between atoms: C_8  and  C_9
REMARK    3  A    between atoms: N_19  and  C_20
REMARK    4  A    between atoms: C_24  and  C_25
REMARK                            x       y       z     vdW  Elec       q    Type
REMARK                         _______ _______ _______ _____ _____    ______ ____
ROOT
ATOM      1  C   UNL     1       3.502  14.329  18.945  0.00  0.00    +0.000 A 
ATOM      2  C   UNL     1       3.089  15.585  19.395  0.00  0.00    +0.000 A 
ATOM      3  C   UNL     1       3.876  16.704  19.317  0.00  0.00    +0.000 A 
ATOM      4  C   UNL     1       5.195  16.631  19.022  0.00  0.00    +0.000 A 
ATOM      5  N   UNL     1       5.713  17.834  19.249  0.00  0.00    +0.000 NA
ATOM      6  C   UNL     1       7.006  18.024  19.070  0.00  0.00    +0.000 A 
ATOM      7  C   UNL     1       7.776  17.009  18.607  0.00  0.00    +0.000 A 
ATOM      8  N   UNL     1       9.104  17.135  18.283  0.00  0.00    +0.000 N 
ATOM      9  C   UNL     1       9.569  15.924  17.815  0.00  0.00    +0.000 A 
ATOM     10  O   UNL     1      10.722  15.766  17.445  0.00  0.00    +0.000 OA
ATOM     11  N   UNL     1       8.485  14.971  17.972  0.00  0.00    +0.000 N 
ATOM     12  C   UNL     1       7.291  15.699  18.404  0.00  0.00    +0.000 A 
ATOM     13  C   UNL     1       5.849  15.426  18.606  0.00  0.00    +0.000 A 
ATOM     14  C   UNL     1       4.877  14.275  18.481  0.00  0.00    +0.000 A 
ATOM     15  H   UNL     1       9.685  17.952  18.383  0.00  0.00    +0.000 HD
ENDROOT
BRANCH   1  23
ATOM     16  C   UNL     1      -0.220  10.328  22.696  0.00  0.00    +0.000 C 
ATOM     17  C   UNL     1      -0.227   9.403  21.511  0.00  0.00    +0.000 C 
ATOM     18  O   UNL     1      -0.675   8.251  21.613  0.00  0.00    +0.000 OA
ATOM     19  N   UNL     1       0.253   9.798  20.296  0.00  0.00    +0.000 N 
ATOM     20  C   UNL     1       0.877  10.981  19.899  0.00  0.00    +0.000 A 
ATOM     21  C   UNL     1       1.427  11.073  18.615  0.00  0.00    +0.000 A 
ATOM     22  C   UNL     1       2.227  12.183  18.232  0.00  0.00    +0.000 A 
ATOM     23  C   UNL     1       2.478  13.218  19.126  0.00  0.00    +0.000 A 
ATOM     24  C   UNL     1       1.729  13.076  20.327  0.00  0.00    +0.000 A 
ATOM     25  N   UNL     1       0.978  12.012  20.737  0.00  0.00    +0.000 NA
ATOM     26  H   UNL     1       0.211   9.048  19.620  0.00  0.00    +0.000 HD
ENDBRANCH   1  23
BRANCH  11  27
ATOM     27  C   UNL     1       8.896  13.677  18.390  0.00  0.00    +0.000 A 
ATOM     28  C   UNL     1       9.605  12.841  17.496  0.00  0.00    +0.000 A 
ATOM     29  C   UNL     1      10.123  11.603  17.890  0.00  0.00    +0.000 A 
ATOM     30  C   UNL     1       9.925  11.168  19.193  0.00  0.00    +0.000 A 
ATOM     31  C   UNL     1       9.283  12.005  20.116  0.00  0.00    +0.000 A 
ATOM     32  C   UNL     1       8.823  13.279  19.720  0.00  0.00    +0.000 A 
BRANCH  31  33
ATOM     33  C   UNL     1       9.033  11.554  21.529  0.00  0.00    +0.000 C 
ATOM     34  F   UNL     1       7.769  11.821  21.961  0.00  0.00    +0.000 F 
ATOM     35  F   UNL     1       9.228  10.221  21.715  0.00  0.00    +0.000 F 
ATOM     36  F   UNL     1       9.861  12.182  22.410  0.00  0.00    +0.000 F 
ENDBRANCH  31  33
ENDBRANCH  11  27
TORSDOF 3
ENDMDL
