MODEL 1
REMARK VINA RESULT:      -7.2      0.000      0.000
REMARK  Name = 
REMARK  6 active torsions:
REMARK  status: ('A' for Active; 'I' for Inactive)
REMARK    1  A    between atoms: N_2  and  C_4
REMARK    2  A    between atoms: C_7  and  C_8
REMARK    3  A    between atoms: N_9  and  N_10
REMARK    4  A    between atoms: N_10  and  C_11
REMARK    5  A    between atoms: C_14  and  S_15
REMARK    6  A    between atoms: S_15  and  O_18
REMARK                            x       y       z     vdW  Elec       q    Type
REMARK                         _______ _______ _______ _____ _____    ______ ____
ROOT
ATOM      1  N   UNL     1       2.371   6.131  20.098  0.00  0.00    +0.000 N 
ATOM      2  H   UNL     1       1.758   5.359  20.345  0.00  0.00    +0.000 HD
ENDROOT
BRANCH   1   3
ATOM      3  C   UNL     1       3.421   5.847  19.203  0.00  0.00    +0.000 A 
ATOM      4  C   UNL     1       3.595   6.588  18.023  0.00  0.00    +0.000 A 
ATOM      5  C   UNL     1       4.659   6.333  17.157  0.00  0.00    +0.000 A 
ATOM      6  C   UNL     1       5.575   5.334  17.479  0.00  0.00    +0.000 A 
ATOM      7  C   UNL     1       5.456   4.613  18.670  0.00  0.00    +0.000 A 
ATOM      8  C   UNL     1       4.386   4.883  19.530  0.00  0.00    +0.000 A 
BRANCH   6   9
ATOM      9  S   UNL     1       6.926   5.013  16.378  0.00  0.00    +0.000 S 
ATOM     10  O   UNL     1       6.462   4.083  15.378  0.00  0.00    +0.000 OA
ATOM     11  O   UNL     1       7.521   6.290  16.037  0.00  0.00    +0.000 OA
BRANCH   9  12
ATOM     12  O   UNL     1       7.992   4.185  17.264  0.00  0.00    +0.000 OA
ATOM     13  H   UNL     1       7.940   3.245  16.991  0.00  0.00    +0.000 HD
ENDBRANCH   9  12
ENDBRANCH   6   9
ENDBRANCH   1   3
BRANCH   1  15
ATOM     14  C   UNL     1       1.142   7.652  21.203  0.00  0.00    +0.000 C 
ATOM     15  N   UNL     1       2.003   7.424  20.266  0.00  0.00    +0.000 NA
BRANCH  14  19
ATOM     16  C   UNL     1      -0.303  11.589  21.969  0.00  0.00    +0.000 A 
ATOM     17  C   UNL     1       0.469  11.350  20.826  0.00  0.00    +0.000 A 
ATOM     18  C   UNL     1       0.935  10.059  20.571  0.00  0.00    +0.000 A 
ATOM     19  C   UNL     1       0.636   9.018  21.460  0.00  0.00    +0.000 A 
ATOM     20  C   UNL     1      -0.139   9.264  22.601  0.00  0.00    +0.000 A 
ATOM     21  C   UNL     1      -0.607  10.553  22.863  0.00  0.00    +0.000 A 
BRANCH  16  23
ATOM     22  O   UNL     1      -1.994  13.171  21.972  0.00  0.00    +0.000 OA
ATOM     23  N   UNL     1      -0.805  12.939  22.229  0.00  0.00    +0.000 N 
ATOM     24  O   UNL     1      -0.009  13.767  22.696  0.00  0.00    +0.000 OA
ENDBRANCH  16  23
ENDBRANCH  14  19
ENDBRANCH   1  15
TORSDOF 6
ENDMDL
MODEL 2
REMARK VINA RESULT:      -7.2      0.413      1.106
REMARK  Name = 
REMARK  6 active torsions:
REMARK  status: ('A' for Active; 'I' for Inactive)
REMARK    1  A    between atoms: N_2  and  C_4
REMARK    2  A    between atoms: C_7  and  C_8
REMARK    3  A    between atoms: N_9  and  N_10
REMARK    4  A    between atoms: N_10  and  C_11
REMARK    5  A    between atoms: C_14  and  S_15
REMARK    6  A    between atoms: S_15  and  O_18
REMARK                            x       y       z     vdW  Elec       q    Type
REMARK                         _______ _______ _______ _____ _____    ______ ____
ROOT
ATOM      1  N   UNL     1       2.473   6.091  20.155  0.00  0.00    +0.000 N 
ATOM      2  H   UNL     1       1.935   5.283  20.460  0.00  0.00    +0.000 HD
ENDROOT
BRANCH   1   3
ATOM      3  C   UNL     1       3.539   5.845  19.269  0.00  0.00    +0.000 A 
ATOM      4  C   UNL     1       4.560   4.935  19.591  0.00  0.00    +0.000 A 
ATOM      5  C   UNL     1       5.595   4.661  18.696  0.00  0.00    +0.000 A 
ATOM      6  C   UNL     1       5.607   5.292  17.454  0.00  0.00    +0.000 A 
ATOM      7  C   UNL     1       4.579   6.164  17.086  0.00  0.00    +0.000 A 
ATOM      8  C   UNL     1       3.545   6.425  17.992  0.00  0.00    +0.000 A 
BRANCH   6   9
ATOM      9  S   UNL     1       6.923   4.941  16.320  0.00  0.00    +0.000 S 
ATOM     10  O   UNL     1       6.427   3.986  15.359  0.00  0.00    +0.000 OA
ATOM     11  O   UNL     1       7.508   6.208  15.928  0.00  0.00    +0.000 OA
BRANCH   9  12
ATOM     12  O   UNL     1       8.016   4.134  17.194  0.00  0.00    +0.000 OA
ATOM     13  H   UNL     1       8.502   4.787  17.739  0.00  0.00    +0.000 HD
ENDBRANCH   9  12
ENDBRANCH   6   9
ENDBRANCH   1   3
BRANCH   1  15
ATOM     14  C   UNL     1       1.162   7.579  21.210  0.00  0.00    +0.000 C 
ATOM     15  N   UNL     1       1.988   7.353  20.242  0.00  0.00    +0.000 NA
BRANCH  14  19
ATOM     16  C   UNL     1      -0.617  11.415  21.744  0.00  0.00    +0.000 A 
ATOM     17  C   UNL     1      -0.123  11.056  20.484  0.00  0.00    +0.000 A 
ATOM     18  C   UNL     1       0.453   9.796  20.308  0.00  0.00    +0.000 A 
ATOM     19  C   UNL     1       0.537   8.907  21.388  0.00  0.00    +0.000 A 
ATOM     20  C   UNL     1       0.038   9.273  22.645  0.00  0.00    +0.000 A 
ATOM     21  C   UNL     1      -0.537  10.532  22.829  0.00  0.00    +0.000 A 
BRANCH  16  23
ATOM     22  O   UNL     1      -1.992  13.139  21.035  0.00  0.00    +0.000 OA
ATOM     23  N   UNL     1      -1.235  12.730  21.926  0.00  0.00    +0.000 N 
ATOM     24  O   UNL     1      -0.965  13.352  22.964  0.00  0.00    +0.000 OA
ENDBRANCH  16  23
ENDBRANCH  14  19
ENDBRANCH   1  15
TORSDOF 6
ENDMDL
MODEL 3
REMARK VINA RESULT:      -7.2      6.718      7.629
REMARK  Name = 
REMARK  6 active torsions:
REMARK  status: ('A' for Active; 'I' for Inactive)
REMARK    1  A    between atoms: N_2  and  C_4
REMARK    2  A    between atoms: C_7  and  C_8
REMARK    3  A    between atoms: N_9  and  N_10
REMARK    4  A    between atoms: N_10  and  C_11
REMARK    5  A    between atoms: C_14  and  S_15
REMARK    6  A    between atoms: S_15  and  O_18
REMARK                            x       y       z     vdW  Elec       q    Type
REMARK                         _______ _______ _______ _____ _____    ______ ____
ROOT
ATOM      1  N   UNL     1       7.592   7.385  17.014  0.00  0.00    +0.000 N 
ATOM      2  H   UNL     1       8.021   7.268  16.100  0.00  0.00    +0.000 HD
ENDROOT
BRANCH   1   3
ATOM      3  C   UNL     1       6.789   6.325  17.478  0.00  0.00    +0.000 A 
ATOM      4  C   UNL     1       6.839   5.903  18.817  0.00  0.00    +0.000 A 
ATOM      5  C   UNL     1       6.014   4.880  19.286  0.00  0.00    +0.000 A 
ATOM      6  C   UNL     1       5.114   4.276  18.412  0.00  0.00    +0.000 A 
ATOM      7  C   UNL     1       5.007   4.706  17.087  0.00  0.00    +0.000 A 
ATOM      8  C   UNL     1       5.838   5.737  16.632  0.00  0.00    +0.000 A 
BRANCH   6   9
ATOM      9  S   UNL     1       4.068   2.977  19.011  0.00  0.00    +0.000 S 
ATOM     10  O   UNL     1       3.185   3.549  19.997  0.00  0.00    +0.000 OA
ATOM     11  O   UNL     1       3.581   2.245  17.858  0.00  0.00    +0.000 OA
BRANCH   9  12
ATOM     12  O   UNL     1       5.055   2.003  19.840  0.00  0.00    +0.000 OA
ATOM     13  H   UNL     1       5.723   1.653  19.215  0.00  0.00    +0.000 HD
ENDBRANCH   9  12
ENDBRANCH   6   9
ENDBRANCH   1   3
BRANCH   1  15
ATOM     14  C   UNL     1       8.277   9.476  17.468  0.00  0.00    +0.000 C 
ATOM     15  N   UNL     1       8.053   8.284  17.917  0.00  0.00    +0.000 NA
BRANCH  14  19
ATOM     16  C   UNL     1       9.803  12.544  20.004  0.00  0.00    +0.000 A 
ATOM     17  C   UNL     1       9.745  11.227  20.476  0.00  0.00    +0.000 A 
ATOM     18  C   UNL     1       9.253  10.221  19.642  0.00  0.00    +0.000 A 
ATOM     19  C   UNL     1       8.816  10.535  18.348  0.00  0.00    +0.000 A 
ATOM     20  C   UNL     1       8.878  11.854  17.882  0.00  0.00    +0.000 A 
ATOM     21  C   UNL     1       9.368  12.866  18.711  0.00  0.00    +0.000 A 
BRANCH  16  23
ATOM     22  O   UNL     1       9.834  13.722  21.998  0.00  0.00    +0.000 OA
ATOM     23  N   UNL     1      10.334  13.597  20.871  0.00  0.00    +0.000 N 
ATOM     24  O   UNL     1      11.256  14.296  20.426  0.00  0.00    +0.000 OA
ENDBRANCH  16  23
ENDBRANCH  14  19
ENDBRANCH   1  15
TORSDOF 6
ENDMDL
MODEL 4
REMARK VINA RESULT:      -7.1      0.514      1.626
REMARK  Name = 
REMARK  6 active torsions:
REMARK  status: ('A' for Active; 'I' for Inactive)
REMARK    1  A    between atoms: N_2  and  C_4
REMARK    2  A    between atoms: C_7  and  C_8
REMARK    3  A    between atoms: N_9  and  N_10
REMARK    4  A    between atoms: N_10  and  C_11
REMARK    5  A    between atoms: C_14  and  S_15
REMARK    6  A    between atoms: S_15  and  O_18
REMARK                            x       y       z     vdW  Elec       q    Type
REMARK                         _______ _______ _______ _____ _____    ______ ____
ROOT
ATOM      1  N   UNL     1       2.490   6.135  20.167  0.00  0.00    +0.000 N 
ATOM      2  H   UNL     1       2.009   5.331  20.560  0.00  0.00    +0.000 HD
ENDROOT
BRANCH   1   3
ATOM      3  C   UNL     1       3.550   5.869  19.278  0.00  0.00    +0.000 A 
ATOM      4  C   UNL     1       4.513   4.887  19.564  0.00  0.00    +0.000 A 
ATOM      5  C   UNL     1       5.538   4.594  18.664  0.00  0.00    +0.000 A 
ATOM      6  C   UNL     1       5.598   5.280  17.453  0.00  0.00    +0.000 A 
ATOM      7  C   UNL     1       4.627   6.227  17.119  0.00  0.00    +0.000 A 
ATOM      8  C   UNL     1       3.601   6.507  18.030  0.00  0.00    +0.000 A 
BRANCH   6   9
ATOM      9  S   UNL     1       6.902   4.906  16.312  0.00  0.00    +0.000 S 
ATOM     10  O   UNL     1       6.405   3.912  15.393  0.00  0.00    +0.000 OA
ATOM     11  O   UNL     1       7.466   6.166  15.869  0.00  0.00    +0.000 OA
BRANCH   9  12
ATOM     12  O   UNL     1       8.018   4.144  17.198  0.00  0.00    +0.000 OA
ATOM     13  H   UNL     1       8.895   4.494  16.938  0.00  0.00    +0.000 HD
ENDBRANCH   9  12
ENDBRANCH   6   9
ENDBRANCH   1   3
BRANCH   1  15
ATOM     14  C   UNL     1       1.302   7.723  21.223  0.00  0.00    +0.000 C 
ATOM     15  N   UNL     1       1.933   7.370  20.151  0.00  0.00    +0.000 NA
BRANCH  14  19
ATOM     16  C   UNL     1      -0.679  11.489  21.462  0.00  0.00    +0.000 A 
ATOM     17  C   UNL     1      -0.593  10.684  22.604  0.00  0.00    +0.000 A 
ATOM     18  C   UNL     1       0.064   9.454  22.527  0.00  0.00    +0.000 A 
ATOM     19  C   UNL     1       0.622   9.033  21.313  0.00  0.00    +0.000 A 
ATOM     20  C   UNL     1       0.533   9.845  20.175  0.00  0.00    +0.000 A 
ATOM     21  C   UNL     1      -0.124  11.075  20.244  0.00  0.00    +0.000 A 
BRANCH  16  23
ATOM     22  O   UNL     1      -1.305  13.392  22.624  0.00  0.00    +0.000 OA
ATOM     23  N   UNL     1      -1.354  12.786  21.546  0.00  0.00    +0.000 N 
ATOM     24  O   UNL     1      -1.929  13.200  20.528  0.00  0.00    +0.000 OA
ENDBRANCH  16  23
ENDBRANCH  14  19
ENDBRANCH   1  15
TORSDOF 6
ENDMDL
MODEL 5
REMARK VINA RESULT:      -7.1      0.543      1.528
REMARK  Name = 
REMARK  6 active torsions:
REMARK  status: ('A' for Active; 'I' for Inactive)
REMARK    1  A    between atoms: N_2  and  C_4
REMARK    2  A    between atoms: C_7  and  C_8
REMARK    3  A    between atoms: N_9  and  N_10
REMARK    4  A    between atoms: N_10  and  C_11
REMARK    5  A    between atoms: C_14  and  S_15
REMARK    6  A    between atoms: S_15  and  O_18
REMARK                            x       y       z     vdW  Elec       q    Type
REMARK                         _______ _______ _______ _____ _____    ______ ____
ROOT
ATOM      1  N   UNL     1       2.285   6.318  19.995  0.00  0.00    +0.000 N 
ATOM      2  H   UNL     1       1.698   5.503  20.152  0.00  0.00    +0.000 HD
ENDROOT
BRANCH   1   3
ATOM      3  C   UNL     1       3.400   6.144  19.152  0.00  0.00    +0.000 A 
ATOM      4  C   UNL     1       3.520   6.852  17.945  0.00  0.00    +0.000 A 
ATOM      5  C   UNL     1       4.644   6.710  17.131  0.00  0.00    +0.000 A 
ATOM      6  C   UNL     1       5.673   5.860  17.531  0.00  0.00    +0.000 A 
ATOM      7  C   UNL     1       5.604   5.180  18.749  0.00  0.00    +0.000 A 
ATOM      8  C   UNL     1       4.473   5.336  19.558  0.00  0.00    +0.000 A 
BRANCH   6   9
ATOM      9  S   UNL     1       7.099   5.683  16.494  0.00  0.00    +0.000 S 
ATOM     10  O   UNL     1       7.785   6.951  16.475  0.00  0.00    +0.000 OA
ATOM     11  O   UNL     1       7.757   4.447  16.868  0.00  0.00    +0.000 OA
BRANCH   9  12
ATOM     12  O   UNL     1       6.505   5.501  15.003  0.00  0.00    +0.000 OA
ATOM     13  H   UNL     1       5.698   6.053  14.934  0.00  0.00    +0.000 HD
ENDBRANCH   9  12
ENDBRANCH   6   9
ENDBRANCH   1   3
BRANCH   1  15
ATOM     14  C   UNL     1       1.093   7.737  21.264  0.00  0.00    +0.000 C 
ATOM     15  N   UNL     1       1.843   7.578  20.223  0.00  0.00    +0.000 NA
BRANCH  14  19
ATOM     16  C   UNL     1      -0.575  11.546  22.203  0.00  0.00    +0.000 A 
ATOM     17  C   UNL     1      -0.797  10.466  23.067  0.00  0.00    +0.000 A 
ATOM     18  C   UNL     1      -0.243   9.221  22.763  0.00  0.00    +0.000 A 
ATOM     19  C   UNL     1       0.520   9.058  21.598  0.00  0.00    +0.000 A 
ATOM     20  C   UNL     1       0.739  10.143  20.740  0.00  0.00    +0.000 A 
ATOM     21  C   UNL     1       0.187  11.392  21.037  0.00  0.00    +0.000 A 
BRANCH  16  23
ATOM     22  O   UNL     1      -2.365  12.926  22.709  0.00  0.00    +0.000 OA
ATOM     23  N   UNL     1      -1.142  12.856  22.529  0.00  0.00    +0.000 N 
ATOM     24  O   UNL     1      -0.359  13.815  22.608  0.00  0.00    +0.000 OA
ENDBRANCH  16  23
ENDBRANCH  14  19
ENDBRANCH   1  15
TORSDOF 6
ENDMDL
MODEL 6
REMARK VINA RESULT:      -7.1      6.254      7.815
REMARK  Name = 
REMARK  6 active torsions:
REMARK  status: ('A' for Active; 'I' for Inactive)
REMARK    1  A    between atoms: N_2  and  C_4
REMARK    2  A    between atoms: C_7  and  C_8
REMARK    3  A    between atoms: N_9  and  N_10
REMARK    4  A    between atoms: N_10  and  C_11
REMARK    5  A    between atoms: C_14  and  S_15
REMARK    6  A    between atoms: S_15  and  O_18
REMARK                            x       y       z     vdW  Elec       q    Type
REMARK                         _______ _______ _______ _____ _____    ______ ____
ROOT
ATOM      1  N   UNL     1       7.509   7.161  17.133  0.00  0.00    +0.000 N 
ATOM      2  H   UNL     1       7.923   6.743  16.304  0.00  0.00    +0.000 HD
ENDROOT
BRANCH   1   3
ATOM      3  C   UNL     1       6.414   6.485  17.705  0.00  0.00    +0.000 A 
ATOM      4  C   UNL     1       6.576   5.642  18.817  0.00  0.00    +0.000 A 
ATOM      5  C   UNL     1       5.484   5.005  19.408  0.00  0.00    +0.000 A 
ATOM      6  C   UNL     1       4.208   5.222  18.895  0.00  0.00    +0.000 A 
ATOM      7  C   UNL     1       4.009   6.094  17.821  0.00  0.00    +0.000 A 
ATOM      8  C   UNL     1       5.113   6.729  17.241  0.00  0.00    +0.000 A 
BRANCH   6   9
ATOM      9  S   UNL     1       2.824   4.412  19.649  0.00  0.00    +0.000 S 
ATOM     10  O   UNL     1       1.682   4.612  18.792  0.00  0.00    +0.000 OA
ATOM     11  O   UNL     1       3.265   3.096  20.065  0.00  0.00    +0.000 OA
BRANCH   9  12
ATOM     12  O   UNL     1       2.513   5.278  20.977  0.00  0.00    +0.000 OA
ATOM     13  H   UNL     1       3.139   6.032  20.995  0.00  0.00    +0.000 HD
ENDBRANCH   9  12
ENDBRANCH   6   9
ENDBRANCH   1   3
BRANCH   1  15
ATOM     14  C   UNL     1       7.995   9.306  17.590  0.00  0.00    +0.000 C 
ATOM     15  N   UNL     1       8.176   8.063  17.894  0.00  0.00    +0.000 NA
BRANCH  14  19
ATOM     16  C   UNL     1      10.041  12.391  19.704  0.00  0.00    +0.000 A 
ATOM     17  C   UNL     1       9.492  12.667  18.445  0.00  0.00    +0.000 A 
ATOM     18  C   UNL     1       8.815  11.658  17.757  0.00  0.00    +0.000 A 
ATOM     19  C   UNL     1       8.696  10.382  18.323  0.00  0.00    +0.000 A 
ATOM     20  C   UNL     1       9.245  10.114  19.584  0.00  0.00    +0.000 A 
ATOM     21  C   UNL     1       9.926  11.117  20.277  0.00  0.00    +0.000 A 
BRANCH  16  23
ATOM     22  O   UNL     1      10.253  13.824  21.511  0.00  0.00    +0.000 OA
ATOM     23  N   UNL     1      10.737  13.452  20.434  0.00  0.00    +0.000 N 
ATOM     24  O   UNL     1      11.773  13.910  19.929  0.00  0.00    +0.000 OA
ENDBRANCH  16  23
ENDBRANCH  14  19
ENDBRANCH   1  15
TORSDOF 6
ENDMDL
MODEL 7
REMARK VINA RESULT:      -7.1      0.279      1.554
REMARK  Name = 
REMARK  6 active torsions:
REMARK  status: ('A' for Active; 'I' for Inactive)
REMARK    1  A    between atoms: N_2  and  C_4
REMARK    2  A    between atoms: C_7  and  C_8
REMARK    3  A    between atoms: N_9  and  N_10
REMARK    4  A    between atoms: N_10  and  C_11
REMARK    5  A    between atoms: C_14  and  S_15
REMARK    6  A    between atoms: S_15  and  O_18
REMARK                            x       y       z     vdW  Elec       q    Type
REMARK                         _______ _______ _______ _____ _____    ______ ____
ROOT
ATOM      1  N   UNL     1       2.414   6.089  20.121  0.00  0.00    +0.000 N 
ATOM      2  H   UNL     1       1.765   5.338  20.343  0.00  0.00    +0.000 HD
ENDROOT
BRANCH   1   3
ATOM      3  C   UNL     1       3.486   5.769  19.266  0.00  0.00    +0.000 A 
ATOM      4  C   UNL     1       4.243   4.600  19.450  0.00  0.00    +0.000 A 
ATOM      5  C   UNL     1       5.278   4.264  18.578  0.00  0.00    +0.000 A 
ATOM      6  C   UNL     1       5.557   5.096  17.497  0.00  0.00    +0.000 A 
ATOM      7  C   UNL     1       4.791   6.240  17.260  0.00  0.00    +0.000 A 
ATOM      8  C   UNL     1       3.751   6.563  18.141  0.00  0.00    +0.000 A 
BRANCH   6   9
ATOM      9  S   UNL     1       6.874   4.665  16.391  0.00  0.00    +0.000 S 
ATOM     10  O   UNL     1       7.993   4.238  17.193  0.00  0.00    +0.000 OA
ATOM     11  O   UNL     1       6.307   3.842  15.341  0.00  0.00    +0.000 OA
BRANCH   9  12
ATOM     12  O   UNL     1       7.335   6.067  15.733  0.00  0.00    +0.000 OA
ATOM     13  H   UNL     1       6.527   6.543  15.450  0.00  0.00    +0.000 HD
ENDBRANCH   9  12
ENDBRANCH   6   9
ENDBRANCH   1   3
BRANCH   1  15
ATOM     14  C   UNL     1       1.101   7.638  21.082  0.00  0.00    +0.000 C 
ATOM     15  N   UNL     1       2.085   7.394  20.281  0.00  0.00    +0.000 NA
BRANCH  14  19
ATOM     16  C   UNL     1      -0.252  11.622  21.764  0.00  0.00    +0.000 A 
ATOM     17  C   UNL     1       0.480  11.334  20.606  0.00  0.00    +0.000 A 
ATOM     18  C   UNL     1       0.915  10.027  20.379  0.00  0.00    +0.000 A 
ATOM     19  C   UNL     1       0.626   9.020  21.310  0.00  0.00    +0.000 A 
ATOM     20  C   UNL     1      -0.109   9.316  22.465  0.00  0.00    +0.000 A 
ATOM     21  C   UNL     1      -0.547  10.621  22.700  0.00  0.00    +0.000 A 
BRANCH  16  23
ATOM     22  O   UNL     1      -0.128  13.668  22.843  0.00  0.00    +0.000 OA
ATOM     23  N   UNL     1      -0.724  12.989  21.995  0.00  0.00    +0.000 N 
ATOM     24  O   UNL     1      -1.689  13.384  21.324  0.00  0.00    +0.000 OA
ENDBRANCH  16  23
ENDBRANCH  14  19
ENDBRANCH   1  15
TORSDOF 6
ENDMDL
MODEL 8
REMARK VINA RESULT:      -7.1      6.146      7.613
REMARK  Name = 
REMARK  6 active torsions:
REMARK  status: ('A' for Active; 'I' for Inactive)
REMARK    1  A    between atoms: N_2  and  C_4
REMARK    2  A    between atoms: C_7  and  C_8
REMARK    3  A    between atoms: N_9  and  N_10
REMARK    4  A    between atoms: N_10  and  C_11
REMARK    5  A    between atoms: C_14  and  S_15
REMARK    6  A    between atoms: S_15  and  O_18
REMARK                            x       y       z     vdW  Elec       q    Type
REMARK                         _______ _______ _______ _____ _____    ______ ____
ROOT
ATOM      1  N   UNL     1       7.546   7.069  16.945  0.00  0.00    +0.000 N 
ATOM      2  H   UNL     1       8.263   6.449  16.579  0.00  0.00    +0.000 HD
ENDROOT
BRANCH   1   3
ATOM      3  C   UNL     1       6.439   6.462  17.570  0.00  0.00    +0.000 A 
ATOM      4  C   UNL     1       6.605   5.565  18.638  0.00  0.00    +0.000 A 
ATOM      5  C   UNL     1       5.507   4.996  19.283  0.00  0.00    +0.000 A 
ATOM      6  C   UNL     1       4.221   5.335  18.868  0.00  0.00    +0.000 A 
ATOM      7  C   UNL     1       4.024   6.262  17.841  0.00  0.00    +0.000 A 
ATOM      8  C   UNL     1       5.135   6.829  17.206  0.00  0.00    +0.000 A 
BRANCH   6   9
ATOM      9  S   UNL     1       2.828   4.610  19.690  0.00  0.00    +0.000 S 
ATOM     10  O   UNL     1       1.706   4.678  18.787  0.00  0.00    +0.000 OA
ATOM     11  O   UNL     1       3.275   3.367  20.286  0.00  0.00    +0.000 OA
BRANCH   9  12
ATOM     12  O   UNL     1       2.474   5.638  20.884  0.00  0.00    +0.000 OA
ATOM     13  H   UNL     1       2.281   6.510  20.480  0.00  0.00    +0.000 HD
ENDBRANCH   9  12
ENDBRANCH   6   9
ENDBRANCH   1   3
BRANCH   1  15
ATOM     14  C   UNL     1       8.541   8.630  18.218  0.00  0.00    +0.000 C 
ATOM     15  N   UNL     1       7.788   8.378  17.198  0.00  0.00    +0.000 NA
BRANCH  14  19
ATOM     16  C   UNL     1       9.397  12.646  19.365  0.00  0.00    +0.000 A 
ATOM     17  C   UNL     1       9.688  11.601  20.250  0.00  0.00    +0.000 A 
ATOM     18  C   UNL     1       9.414  10.285  19.871  0.00  0.00    +0.000 A 
ATOM     19  C   UNL     1       8.849  10.021  18.616  0.00  0.00    +0.000 A 
ATOM     20  C   UNL     1       8.563  11.071  17.735  0.00  0.00    +0.000 A 
ATOM     21  C   UNL     1       8.832  12.390  18.108  0.00  0.00    +0.000 A 
BRANCH  16  23
ATOM     22  O   UNL     1      10.331  14.201  20.805  0.00  0.00    +0.000 OA
ATOM     23  N   UNL     1       9.698  14.024  19.755  0.00  0.00    +0.000 N 
ATOM     24  O   UNL     1       9.303  14.931  19.006  0.00  0.00    +0.000 OA
ENDBRANCH  16  23
ENDBRANCH  14  19
ENDBRANCH   1  15
TORSDOF 6
ENDMDL
MODEL 9
REMARK VINA RESULT:      -7.1      6.203      7.517
REMARK  Name = 
REMARK  6 active torsions:
REMARK  status: ('A' for Active; 'I' for Inactive)
REMARK    1  A    between atoms: N_2  and  C_4
REMARK    2  A    between atoms: C_7  and  C_8
REMARK    3  A    between atoms: N_9  and  N_10
REMARK    4  A    between atoms: N_10  and  C_11
REMARK    5  A    between atoms: C_14  and  S_15
REMARK    6  A    between atoms: S_15  and  O_18
REMARK                            x       y       z     vdW  Elec       q    Type
REMARK                         _______ _______ _______ _____ _____    ______ ____
ROOT
ATOM      1  N   UNL     1       7.483   7.279  17.022  0.00  0.00    +0.000 N 
ATOM      2  H   UNL     1       8.203   6.683  16.622  0.00  0.00    +0.000 HD
ENDROOT
BRANCH   1   3
ATOM      3  C   UNL     1       6.398   6.634  17.645  0.00  0.00    +0.000 A 
ATOM      4  C   UNL     1       5.079   6.834  17.204  0.00  0.00    +0.000 A 
ATOM      5  C   UNL     1       4.008   6.163  17.795  0.00  0.00    +0.000 A 
ATOM      6  C   UNL     1       4.254   5.266  18.832  0.00  0.00    +0.000 A 
ATOM      7  C   UNL     1       5.559   5.009  19.259  0.00  0.00    +0.000 A 
ATOM      8  C   UNL     1       6.624   5.686  18.654  0.00  0.00    +0.000 A 
BRANCH   6   9
ATOM      9  S   UNL     1       2.891   4.416  19.580  0.00  0.00    +0.000 S 
ATOM     10  O   UNL     1       1.736   4.622  18.742  0.00  0.00    +0.000 OA
ATOM     11  O   UNL     1       3.357   3.095  19.955  0.00  0.00    +0.000 OA
BRANCH   9  12
ATOM     12  O   UNL     1       2.584   5.240  20.935  0.00  0.00    +0.000 OA
ATOM     13  H   UNL     1       3.354   5.131  21.531  0.00  0.00    +0.000 HD
ENDBRANCH   9  12
ENDBRANCH   6   9
ENDBRANCH   1   3
BRANCH   1  15
ATOM     14  C   UNL     1       8.588   8.815  18.233  0.00  0.00    +0.000 C 
ATOM     15  N   UNL     1       7.710   8.583  17.314  0.00  0.00    +0.000 NA
BRANCH  14  19
ATOM     16  C   UNL     1       9.506  12.786  19.482  0.00  0.00    +0.000 A 
ATOM     17  C   UNL     1       8.961  12.574  18.209  0.00  0.00    +0.000 A 
ATOM     18  C   UNL     1       8.653  11.273  17.804  0.00  0.00    +0.000 A 
ATOM     19  C   UNL     1       8.896  10.195  18.665  0.00  0.00    +0.000 A 
ATOM     20  C   UNL     1       9.440  10.415  19.938  0.00  0.00    +0.000 A 
ATOM     21  C   UNL     1       9.751  11.713  20.349  0.00  0.00    +0.000 A 
BRANCH  16  23
ATOM     22  O   UNL     1      10.695  14.765  19.297  0.00  0.00    +0.000 OA
ATOM     23  N   UNL     1       9.814  14.151  19.914  0.00  0.00    +0.000 N 
ATOM     24  O   UNL     1       9.169  14.608  20.869  0.00  0.00    +0.000 OA
ENDBRANCH  16  23
ENDBRANCH  14  19
ENDBRANCH   1  15
TORSDOF 6
ENDMDL
