MODEL 1
REMARK VINA RESULT:      -7.3      0.000      0.000
REMARK  Name = 
REMARK  9 active torsions:
REMARK  status: ('A' for Active; 'I' for Inactive)
REMARK    1  A    between atoms: C_1  and  N_2
REMARK    2  A    between atoms: N_2  and  C_3
REMARK    3  A    between atoms: N_2  and  C_4
REMARK    4  A    between atoms: C_4  and  C_5
REMARK    5  A    between atoms: C_5  and  C_6
REMARK    6  A    between atoms: C_6  and  O_7
REMARK    7  A    between atoms: O_7  and  C_8
REMARK    8  A    between atoms: C_12  and  N_13
REMARK    9  A    between atoms: N_16  and  C_17
REMARK                            x       y       z     vdW  Elec       q    Type
REMARK                         _______ _______ _______ _____ _____    ______ ____
ROOT
ATOM      1  N   UNL     1       7.991   6.855  18.444  0.00  0.00    +0.000 N 
ATOM      2  C   UNL     1       8.069   8.226  18.306  0.00  0.00    +0.000 C 
ATOM      3  O   UNL     1       7.360   8.905  17.566  0.00  0.00    +0.000 OA
ATOM      4  N   UNL     1       9.069   8.771  19.106  0.00  0.00    +0.000 N 
ATOM      5  H   UNL     1       8.333   6.480  19.315  0.00  0.00    +0.000 HD
ATOM      6  H   UNL     1       9.883   8.180  19.198  0.00  0.00    +0.000 HD
ENDROOT
BRANCH   4   7
ATOM      7  C   UNL     1       9.289  10.168  19.124  0.00  0.00    +0.000 A 
ATOM      8  C   UNL     1       9.534  10.876  17.941  0.00  0.00    +0.000 A 
ATOM      9  C   UNL     1       9.785  12.251  17.980  0.00  0.00    +0.000 A 
ATOM     10  C   UNL     1       9.811  12.920  19.203  0.00  0.00    +0.000 A 
ATOM     11 CL   UNL     1      10.146  14.615  19.184  0.00  0.00    +0.000 Cl
ATOM     12  C   UNL     1       9.569  12.213  20.386  0.00  0.00    +0.000 A 
ATOM     13 CL   UNL     1       9.639  12.966  21.942  0.00  0.00    +0.000 Cl
ATOM     14  C   UNL     1       9.282  10.842  20.344  0.00  0.00    +0.000 A 
ENDBRANCH   4   7
BRANCH   1  19
ATOM     15  C   UNL     1       5.272   4.480  17.577  0.00  0.00    +0.000 A 
ATOM     16  C   UNL     1       5.450   4.334  16.203  0.00  0.00    +0.000 A 
ATOM     17  C   UNL     1       6.477   5.018  15.555  0.00  0.00    +0.000 A 
ATOM     18  C   UNL     1       7.324   5.853  16.285  0.00  0.00    +0.000 A 
ATOM     19  C   UNL     1       7.160   6.012  17.663  0.00  0.00    +0.000 A 
ATOM     20  C   UNL     1       6.144   5.296  18.311  0.00  0.00    +0.000 A 
BRANCH  15  21
ATOM     21  O   UNL     1       4.251   3.746  18.121  0.00  0.00    +0.000 OA
BRANCH  21  22
ATOM     22  C   UNL     1       3.074   3.645  17.310  0.00  0.00    +0.000 C 
BRANCH  22  23
ATOM     23  C   UNL     1       2.045   2.801  18.057  0.00  0.00    +0.000 C 
BRANCH  23  24
ATOM     24  C   UNL     1       2.394   2.635  19.541  0.00  0.00    +0.000 C 
BRANCH  24  26
ATOM     25  C   UNL     1       1.414   2.603  21.769  0.00  0.00    +0.000 C 
ATOM     26  N   UNL     1       1.427   3.260  20.459  0.00  0.00    +0.000 NA
ATOM     27  C   UNL     1       1.731   4.684  20.628  0.00  0.00    +0.000 C 
ENDBRANCH  24  26
ENDBRANCH  23  24
ENDBRANCH  22  23
ENDBRANCH  21  22
ENDBRANCH  15  21
ENDBRANCH   1  19
TORSDOF 7
ENDMDL
MODEL 2
REMARK VINA RESULT:      -7.3      0.964      1.623
REMARK  Name = 
REMARK  9 active torsions:
REMARK  status: ('A' for Active; 'I' for Inactive)
REMARK    1  A    between atoms: C_1  and  N_2
REMARK    2  A    between atoms: N_2  and  C_3
REMARK    3  A    between atoms: N_2  and  C_4
REMARK    4  A    between atoms: C_4  and  C_5
REMARK    5  A    between atoms: C_5  and  C_6
REMARK    6  A    between atoms: C_6  and  O_7
REMARK    7  A    between atoms: O_7  and  C_8
REMARK    8  A    between atoms: C_12  and  N_13
REMARK    9  A    between atoms: N_16  and  C_17
REMARK                            x       y       z     vdW  Elec       q    Type
REMARK                         _______ _______ _______ _____ _____    ______ ____
ROOT
ATOM      1  N   UNL     1       7.931   7.007  18.281  0.00  0.00    +0.000 N 
ATOM      2  C   UNL     1       8.077   8.380  18.256  0.00  0.00    +0.000 C 
ATOM      3  O   UNL     1       7.375   9.155  17.610  0.00  0.00    +0.000 OA
ATOM      4  N   UNL     1       9.137   8.803  19.051  0.00  0.00    +0.000 N 
ATOM      5  H   UNL     1       8.289   6.542  19.101  0.00  0.00    +0.000 HD
ATOM      6  H   UNL     1       9.922   8.166  19.055  0.00  0.00    +0.000 HD
ENDROOT
BRANCH   4   7
ATOM      7  C   UNL     1       9.433  10.181  19.177  0.00  0.00    +0.000 A 
ATOM      8  C   UNL     1       9.188  10.865  20.373  0.00  0.00    +0.000 A 
ATOM      9  C   UNL     1       9.452  12.234  20.470  0.00  0.00    +0.000 A 
ATOM     10  C   UNL     1       9.942  12.929  19.365  0.00  0.00    +0.000 A 
ATOM     11 CL   UNL     1      10.230  14.624  19.544  0.00  0.00    +0.000 Cl
ATOM     12  C   UNL     1      10.185  12.246  18.168  0.00  0.00    +0.000 A 
ATOM     13 CL   UNL     1      10.742  13.052  16.742  0.00  0.00    +0.000 Cl
ATOM     14  C   UNL     1       9.955  10.866  18.082  0.00  0.00    +0.000 A 
ENDBRANCH   4   7
BRANCH   1  19
ATOM     15  C   UNL     1       4.761   5.451  17.138  0.00  0.00    +0.000 A 
ATOM     16  C   UNL     1       5.148   4.871  15.932  0.00  0.00    +0.000 A 
ATOM     17  C   UNL     1       6.465   4.987  15.492  0.00  0.00    +0.000 A 
ATOM     18  C   UNL     1       7.394   5.689  16.260  0.00  0.00    +0.000 A 
ATOM     19  C   UNL     1       7.024   6.278  17.472  0.00  0.00    +0.000 A 
ATOM     20  C   UNL     1       5.704   6.130  17.921  0.00  0.00    +0.000 A 
BRANCH  15  21
ATOM     21  O   UNL     1       3.450   5.258  17.491  0.00  0.00    +0.000 OA
BRANCH  21  22
ATOM     22  C   UNL     1       2.933   3.950  17.222  0.00  0.00    +0.000 C 
BRANCH  22  23
ATOM     23  C   UNL     1       1.555   3.834  17.868  0.00  0.00    +0.000 C 
BRANCH  23  24
ATOM     24  C   UNL     1       1.435   2.598  18.768  0.00  0.00    +0.000 C 
BRANCH  24  26
ATOM     25  C   UNL     1       3.019   2.698  20.613  0.00  0.00    +0.000 C 
ATOM     26  N   UNL     1       1.625   2.879  20.201  0.00  0.00    +0.000 NA
ATOM     27  C   UNL     1       1.195   4.246  20.515  0.00  0.00    +0.000 C 
ENDBRANCH  24  26
ENDBRANCH  23  24
ENDBRANCH  22  23
ENDBRANCH  21  22
ENDBRANCH  15  21
ENDBRANCH   1  19
TORSDOF 7
ENDMDL
MODEL 3
REMARK VINA RESULT:      -7.2      1.470      2.064
REMARK  Name = 
REMARK  9 active torsions:
REMARK  status: ('A' for Active; 'I' for Inactive)
REMARK    1  A    between atoms: C_1  and  N_2
REMARK    2  A    between atoms: N_2  and  C_3
REMARK    3  A    between atoms: N_2  and  C_4
REMARK    4  A    between atoms: C_4  and  C_5
REMARK    5  A    between atoms: C_5  and  C_6
REMARK    6  A    between atoms: C_6  and  O_7
REMARK    7  A    between atoms: O_7  and  C_8
REMARK    8  A    between atoms: C_12  and  N_13
REMARK    9  A    between atoms: N_16  and  C_17
REMARK                            x       y       z     vdW  Elec       q    Type
REMARK                         _______ _______ _______ _____ _____    ______ ____
ROOT
ATOM      1  N   UNL     1       8.517   7.704  18.939  0.00  0.00    +0.000 N 
ATOM      2  C   UNL     1       8.564   9.044  18.608  0.00  0.00    +0.000 C 
ATOM      3  O   UNL     1       7.852   9.591  17.768  0.00  0.00    +0.000 OA
ATOM      4  N   UNL     1       9.536   9.723  19.335  0.00  0.00    +0.000 N 
ATOM      5  H   UNL     1       8.853   7.466  19.859  0.00  0.00    +0.000 HD
ATOM      6  H   UNL     1      10.363   9.173  19.522  0.00  0.00    +0.000 HD
ENDROOT
BRANCH   4   7
ATOM      7  C   UNL     1       9.722  11.114  19.157  0.00  0.00    +0.000 A 
ATOM      8  C   UNL     1       9.158  12.038  20.045  0.00  0.00    +0.000 A 
ATOM      9  C   UNL     1       9.321  13.410  19.835  0.00  0.00    +0.000 A 
ATOM     10  C   UNL     1      10.030  13.865  18.724  0.00  0.00    +0.000 A 
ATOM     11 CL   UNL     1      10.179  15.573  18.511  0.00  0.00    +0.000 Cl
ATOM     12  C   UNL     1      10.592  12.943  17.834  0.00  0.00    +0.000 A 
ATOM     13 CL   UNL     1      11.438  13.435  16.408  0.00  0.00    +0.000 Cl
ATOM     14  C   UNL     1      10.460  11.567  18.065  0.00  0.00    +0.000 A 
ENDBRANCH   4   7
BRANCH   1  19
ATOM     15  C   UNL     1       6.357   4.728  18.428  0.00  0.00    +0.000 A 
ATOM     16  C   UNL     1       6.115   4.785  17.057  0.00  0.00    +0.000 A 
ATOM     17  C   UNL     1       6.670   5.809  16.292  0.00  0.00    +0.000 A 
ATOM     18  C   UNL     1       7.466   6.779  16.901  0.00  0.00    +0.000 A 
ATOM     19  C   UNL     1       7.720   6.737  18.275  0.00  0.00    +0.000 A 
ATOM     20  C   UNL     1       7.183   5.687  19.031  0.00  0.00    +0.000 A 
BRANCH  15  21
ATOM     21  O   UNL     1       5.786   3.669  19.084  0.00  0.00    +0.000 OA
BRANCH  21  22
ATOM     22  C   UNL     1       4.458   3.899  19.571  0.00  0.00    +0.000 C 
BRANCH  22  23
ATOM     23  C   UNL     1       3.471   3.248  18.605  0.00  0.00    +0.000 C 
BRANCH  23  24
ATOM     24  C   UNL     1       2.269   4.152  18.305  0.00  0.00    +0.000 C 
BRANCH  24  26
ATOM     25  C   UNL     1       0.843   2.246  18.815  0.00  0.00    +0.000 C 
ATOM     26  N   UNL     1       1.010   3.698  18.920  0.00  0.00    +0.000 NA
ATOM     27  C   UNL     1       0.958   4.097  20.330  0.00  0.00    +0.000 C 
ENDBRANCH  24  26
ENDBRANCH  23  24
ENDBRANCH  22  23
ENDBRANCH  21  22
ENDBRANCH  15  21
ENDBRANCH   1  19
TORSDOF 7
ENDMDL
MODEL 4
REMARK VINA RESULT:      -7.2      6.394      9.065
REMARK  Name = 
REMARK  9 active torsions:
REMARK  status: ('A' for Active; 'I' for Inactive)
REMARK    1  A    between atoms: C_1  and  N_2
REMARK    2  A    between atoms: N_2  and  C_3
REMARK    3  A    between atoms: N_2  and  C_4
REMARK    4  A    between atoms: C_4  and  C_5
REMARK    5  A    between atoms: C_5  and  C_6
REMARK    6  A    between atoms: C_6  and  O_7
REMARK    7  A    between atoms: O_7  and  C_8
REMARK    8  A    between atoms: C_12  and  N_13
REMARK    9  A    between atoms: N_16  and  C_17
REMARK                            x       y       z     vdW  Elec       q    Type
REMARK                         _______ _______ _______ _____ _____    ______ ____
ROOT
ATOM      1  N   UNL     1       1.652   7.618  21.333  0.00  0.00    +0.000 N 
ATOM      2  C   UNL     1       2.270   7.224  20.163  0.00  0.00    +0.000 C 
ATOM      3  O   UNL     1       2.298   7.877  19.122  0.00  0.00    +0.000 OA
ATOM      4  N   UNL     1       2.864   5.972  20.288  0.00  0.00    +0.000 N 
ATOM      5  H   UNL     1       2.009   7.205  22.181  0.00  0.00    +0.000 HD
ATOM      6  H   UNL     1       2.350   5.334  20.879  0.00  0.00    +0.000 HD
ENDROOT
BRANCH   4   7
ATOM      7  C   UNL     1       3.573   5.405  19.202  0.00  0.00    +0.000 A 
ATOM      8  C   UNL     1       2.907   4.685  18.203  0.00  0.00    +0.000 A 
ATOM      9  C   UNL     1       3.626   4.100  17.156  0.00  0.00    +0.000 A 
ATOM     10  C   UNL     1       5.015   4.216  17.115  0.00  0.00    +0.000 A 
ATOM     11 CL   UNL     1       5.846   3.455  15.805  0.00  0.00    +0.000 Cl
ATOM     12  C   UNL     1       5.682   4.934  18.115  0.00  0.00    +0.000 A 
ATOM     13 CL   UNL     1       7.405   5.074  18.157  0.00  0.00    +0.000 Cl
ATOM     14  C   UNL     1       4.957   5.550  19.144  0.00  0.00    +0.000 A 
ENDBRANCH   4   7
BRANCH   1  19
ATOM     15  C   UNL     1      -0.090  10.771  20.437  0.00  0.00    +0.000 A 
ATOM     16  C   UNL     1      -0.719  11.099  21.636  0.00  0.00    +0.000 A 
ATOM     17  C   UNL     1      -0.565  10.279  22.752  0.00  0.00    +0.000 A 
ATOM     18  C   UNL     1       0.216   9.126  22.665  0.00  0.00    +0.000 A 
ATOM     19  C   UNL     1       0.854   8.782  21.471  0.00  0.00    +0.000 A 
ATOM     20  C   UNL     1       0.719   9.629  20.363  0.00  0.00    +0.000 A 
BRANCH  15  21
ATOM     21  O   UNL     1      -0.285  11.656  19.408  0.00  0.00    +0.000 OA
BRANCH  21  22
ATOM     22  C   UNL     1      -1.519  11.502  18.697  0.00  0.00    +0.000 C 
BRANCH  22  23
ATOM     23  C   UNL     1      -1.389  10.303  17.760  0.00  0.00    +0.000 C 
BRANCH  23  24
ATOM     24  C   UNL     1      -2.731   9.903  17.137  0.00  0.00    +0.000 C 
BRANCH  24  26
ATOM     25  C   UNL     1      -3.347  10.294  14.815  0.00  0.00    +0.000 C 
ATOM     26  N   UNL     1      -3.251  10.872  16.158  0.00  0.00    +0.000 NA
ATOM     27  C   UNL     1      -4.568  11.364  16.575  0.00  0.00    +0.000 C 
ENDBRANCH  24  26
ENDBRANCH  23  24
ENDBRANCH  22  23
ENDBRANCH  21  22
ENDBRANCH  15  21
ENDBRANCH   1  19
TORSDOF 7
ENDMDL
MODEL 5
REMARK VINA RESULT:      -7.2      5.371      7.272
REMARK  Name = 
REMARK  9 active torsions:
REMARK  status: ('A' for Active; 'I' for Inactive)
REMARK    1  A    between atoms: C_1  and  N_2
REMARK    2  A    between atoms: N_2  and  C_3
REMARK    3  A    between atoms: N_2  and  C_4
REMARK    4  A    between atoms: C_4  and  C_5
REMARK    5  A    between atoms: C_5  and  C_6
REMARK    6  A    between atoms: C_6  and  O_7
REMARK    7  A    between atoms: O_7  and  C_8
REMARK    8  A    between atoms: C_12  and  N_13
REMARK    9  A    between atoms: N_16  and  C_17
REMARK                            x       y       z     vdW  Elec       q    Type
REMARK                         _______ _______ _______ _____ _____    ______ ____
ROOT
ATOM      1  N   UNL     1       2.564   7.599  17.811  0.00  0.00    +0.000 N 
ATOM      2  C   UNL     1       1.858   8.493  18.592  0.00  0.00    +0.000 C 
ATOM      3  O   UNL     1       1.650   8.369  19.797  0.00  0.00    +0.000 OA
ATOM      4  N   UNL     1       1.387   9.569  17.848  0.00  0.00    +0.000 N 
ATOM      5  H   UNL     1       2.979   7.978  16.974  0.00  0.00    +0.000 HD
ATOM      6  H   UNL     1       1.112   9.325  16.907  0.00  0.00    +0.000 HD
ENDROOT
BRANCH   4   7
ATOM      7  C   UNL     1       0.660  10.609  18.475  0.00  0.00    +0.000 A 
ATOM      8  C   UNL     1      -0.728  10.523  18.640  0.00  0.00    +0.000 A 
ATOM      9  C   UNL     1      -1.436  11.574  19.230  0.00  0.00    +0.000 A 
ATOM     10  C   UNL     1      -0.762  12.724  19.639  0.00  0.00    +0.000 A 
ATOM     11 CL   UNL     1      -1.697  13.995  20.343  0.00  0.00    +0.000 Cl
ATOM     12  C   UNL     1       0.625  12.813  19.472  0.00  0.00    +0.000 A 
ATOM     13 CL   UNL     1       1.518  14.229  19.906  0.00  0.00    +0.000 Cl
ATOM     14  C   UNL     1       1.339  11.744  18.914  0.00  0.00    +0.000 A 
ENDBRANCH   4   7
BRANCH   1  19
ATOM     15  C   UNL     1       4.886   5.069  19.223  0.00  0.00    +0.000 A 
ATOM     16  C   UNL     1       4.103   3.917  19.192  0.00  0.00    +0.000 A 
ATOM     17  C   UNL     1       2.801   3.970  18.698  0.00  0.00    +0.000 A 
ATOM     18  C   UNL     1       2.281   5.180  18.238  0.00  0.00    +0.000 A 
ATOM     19  C   UNL     1       3.052   6.346  18.261  0.00  0.00    +0.000 A 
ATOM     20  C   UNL     1       4.371   6.276  18.731  0.00  0.00    +0.000 A 
BRANCH  15  21
ATOM     21  O   UNL     1       6.159   4.905  19.704  0.00  0.00    +0.000 OA
BRANCH  21  22
ATOM     22  C   UNL     1       7.182   5.580  18.964  0.00  0.00    +0.000 C 
BRANCH  22  23
ATOM     23  C   UNL     1       7.593   4.695  17.791  0.00  0.00    +0.000 C 
BRANCH  23  24
ATOM     24  C   UNL     1       7.212   5.307  16.437  0.00  0.00    +0.000 C 
BRANCH  24  26
ATOM     25  C   UNL     1       5.189   4.200  15.659  0.00  0.00    +0.000 C 
ATOM     26  N   UNL     1       6.637   4.344  15.484  0.00  0.00    +0.000 NA
ATOM     27  C   UNL     1       6.925   4.754  14.106  0.00  0.00    +0.000 C 
ENDBRANCH  24  26
ENDBRANCH  23  24
ENDBRANCH  22  23
ENDBRANCH  21  22
ENDBRANCH  15  21
ENDBRANCH   1  19
TORSDOF 7
ENDMDL
MODEL 6
REMARK VINA RESULT:      -7.2      1.001      1.046
REMARK  Name = 
REMARK  9 active torsions:
REMARK  status: ('A' for Active; 'I' for Inactive)
REMARK    1  A    between atoms: C_1  and  N_2
REMARK    2  A    between atoms: N_2  and  C_3
REMARK    3  A    between atoms: N_2  and  C_4
REMARK    4  A    between atoms: C_4  and  C_5
REMARK    5  A    between atoms: C_5  and  C_6
REMARK    6  A    between atoms: C_6  and  O_7
REMARK    7  A    between atoms: O_7  and  C_8
REMARK    8  A    between atoms: C_12  and  N_13
REMARK    9  A    between atoms: N_16  and  C_17
REMARK                            x       y       z     vdW  Elec       q    Type
REMARK                         _______ _______ _______ _____ _____    ______ ____
ROOT
ATOM      1  N   UNL     1       7.597   6.529  18.349  0.00  0.00    +0.000 N 
ATOM      2  C   UNL     1       7.764   7.863  18.035  0.00  0.00    +0.000 C 
ATOM      3  O   UNL     1       7.171   8.459  17.137  0.00  0.00    +0.000 OA
ATOM      4  N   UNL     1       8.706   8.474  18.855  0.00  0.00    +0.000 N 
ATOM      5  H   UNL     1       7.829   6.267  19.295  0.00  0.00    +0.000 HD
ATOM      6  H   UNL     1       9.474   7.871  19.114  0.00  0.00    +0.000 HD
ENDROOT
BRANCH   4   7
ATOM      7  C   UNL     1       8.999   9.851  18.706  0.00  0.00    +0.000 A 
ATOM      8  C   UNL     1       8.293  10.645  17.795  0.00  0.00    +0.000 A 
ATOM      9  C   UNL     1       8.619  11.995  17.634  0.00  0.00    +0.000 A 
ATOM     10  C   UNL     1       9.665  12.551  18.369  0.00  0.00    +0.000 A 
ATOM     11 CL   UNL     1      10.030  14.220  18.110  0.00  0.00    +0.000 Cl
ATOM     12  C   UNL     1      10.374  11.757  19.278  0.00  0.00    +0.000 A 
ATOM     13 CL   UNL     1      11.717  12.366  20.183  0.00  0.00    +0.000 Cl
ATOM     14  C   UNL     1      10.023  10.413  19.466  0.00  0.00    +0.000 A 
ENDBRANCH   4   7
BRANCH   1  19
ATOM     15  C   UNL     1       4.659   4.509  17.317  0.00  0.00    +0.000 A 
ATOM     16  C   UNL     1       5.149   3.849  16.192  0.00  0.00    +0.000 A 
ATOM     17  C   UNL     1       6.460   4.066  15.771  0.00  0.00    +0.000 A 
ATOM     18  C   UNL     1       7.279   4.949  16.475  0.00  0.00    +0.000 A 
ATOM     19  C   UNL     1       6.804   5.618  17.606  0.00  0.00    +0.000 A 
ATOM     20  C   UNL     1       5.495   5.370  18.040  0.00  0.00    +0.000 A 
BRANCH  15  21
ATOM     21  O   UNL     1       3.367   4.207  17.661  0.00  0.00    +0.000 OA
BRANCH  21  22
ATOM     22  C   UNL     1       3.017   2.822  17.561  0.00  0.00    +0.000 C 
BRANCH  22  23
ATOM     23  C   UNL     1       2.392   2.386  18.884  0.00  0.00    +0.000 C 
BRANCH  23  24
ATOM     24  C   UNL     1       1.096   3.146  19.193  0.00  0.00    +0.000 C 
BRANCH  24  26
ATOM     25  C   UNL     1       1.700   2.814  21.528  0.00  0.00    +0.000 C 
ATOM     26  N   UNL     1       1.032   3.689  20.561  0.00  0.00    +0.000 NA
ATOM     27  C   UNL     1       1.636   5.024  20.609  0.00  0.00    +0.000 C 
ENDBRANCH  24  26
ENDBRANCH  23  24
ENDBRANCH  22  23
ENDBRANCH  21  22
ENDBRANCH  15  21
ENDBRANCH   1  19
TORSDOF 7
ENDMDL
MODEL 7
REMARK VINA RESULT:      -7.1      1.553      2.002
REMARK  Name = 
REMARK  9 active torsions:
REMARK  status: ('A' for Active; 'I' for Inactive)
REMARK    1  A    between atoms: C_1  and  N_2
REMARK    2  A    between atoms: N_2  and  C_3
REMARK    3  A    between atoms: N_2  and  C_4
REMARK    4  A    between atoms: C_4  and  C_5
REMARK    5  A    between atoms: C_5  and  C_6
REMARK    6  A    between atoms: C_6  and  O_7
REMARK    7  A    between atoms: O_7  and  C_8
REMARK    8  A    between atoms: C_12  and  N_13
REMARK    9  A    between atoms: N_16  and  C_17
REMARK                            x       y       z     vdW  Elec       q    Type
REMARK                         _______ _______ _______ _____ _____    ______ ____
ROOT
ATOM      1  N   UNL     1       8.349   7.402  18.846  0.00  0.00    +0.000 N 
ATOM      2  C   UNL     1       8.400   8.744  18.527  0.00  0.00    +0.000 C 
ATOM      3  O   UNL     1       7.676   9.305  17.707  0.00  0.00    +0.000 OA
ATOM      4  N   UNL     1       9.390   9.410  19.242  0.00  0.00    +0.000 N 
ATOM      5  H   UNL     1       8.701   7.153  19.758  0.00  0.00    +0.000 HD
ATOM      6  H   UNL     1      10.217   8.853  19.408  0.00  0.00    +0.000 HD
ENDROOT
BRANCH   4   7
ATOM      7  C   UNL     1       9.582  10.801  19.074  0.00  0.00    +0.000 A 
ATOM      8  C   UNL     1      10.120  11.318  17.889  0.00  0.00    +0.000 A 
ATOM      9  C   UNL     1      10.337  12.692  17.752  0.00  0.00    +0.000 A 
ATOM     10  C   UNL     1      10.035  13.553  18.806  0.00  0.00    +0.000 A 
ATOM     11 CL   UNL     1      10.343  15.238  18.581  0.00  0.00    +0.000 Cl
ATOM     12  C   UNL     1       9.499  13.038  19.992  0.00  0.00    +0.000 A 
ATOM     13 CL   UNL     1       9.150  14.039  21.359  0.00  0.00    +0.000 Cl
ATOM     14  C   UNL     1       9.248  11.664  20.115  0.00  0.00    +0.000 A 
ENDBRANCH   4   7
BRANCH   1  19
ATOM     15  C   UNL     1       5.983   4.582  18.371  0.00  0.00    +0.000 A 
ATOM     16  C   UNL     1       5.878   4.531  16.982  0.00  0.00    +0.000 A 
ATOM     17  C   UNL     1       6.595   5.428  16.194  0.00  0.00    +0.000 A 
ATOM     18  C   UNL     1       7.416   6.381  16.798  0.00  0.00    +0.000 A 
ATOM     19  C   UNL     1       7.534   6.447  18.188  0.00  0.00    +0.000 A 
ATOM     20  C   UNL     1       6.832   5.520  18.972  0.00  0.00    +0.000 A 
BRANCH  15  21
ATOM     21  O   UNL     1       5.256   3.640  19.052  0.00  0.00    +0.000 OA
BRANCH  21  22
ATOM     22  C   UNL     1       4.042   4.117  19.642  0.00  0.00    +0.000 C 
BRANCH  22  23
ATOM     23  C   UNL     1       2.926   4.008  18.606  0.00  0.00    +0.000 C 
BRANCH  23  24
ATOM     24  C   UNL     1       2.259   5.359  18.323  0.00  0.00    +0.000 C 
BRANCH  24  26
ATOM     25  C   UNL     1       3.531   7.342  17.708  0.00  0.00    +0.000 C 
ATOM     26  N   UNL     1       3.024   6.519  18.810  0.00  0.00    +0.000 NA
ATOM     27  C   UNL     1       2.194   7.343  19.695  0.00  0.00    +0.000 C 
ENDBRANCH  24  26
ENDBRANCH  23  24
ENDBRANCH  22  23
ENDBRANCH  21  22
ENDBRANCH  15  21
ENDBRANCH   1  19
TORSDOF 7
ENDMDL
MODEL 8
REMARK VINA RESULT:      -7.0      5.230      7.342
REMARK  Name = 
REMARK  9 active torsions:
REMARK  status: ('A' for Active; 'I' for Inactive)
REMARK    1  A    between atoms: C_1  and  N_2
REMARK    2  A    between atoms: N_2  and  C_3
REMARK    3  A    between atoms: N_2  and  C_4
REMARK    4  A    between atoms: C_4  and  C_5
REMARK    5  A    between atoms: C_5  and  C_6
REMARK    6  A    between atoms: C_6  and  O_7
REMARK    7  A    between atoms: O_7  and  C_8
REMARK    8  A    between atoms: C_12  and  N_13
REMARK    9  A    between atoms: N_16  and  C_17
REMARK                            x       y       z     vdW  Elec       q    Type
REMARK                         _______ _______ _______ _____ _____    ______ ____
ROOT
ATOM      1  N   UNL     1       1.922   6.696  20.227  0.00  0.00    +0.000 N 
ATOM      2  C   UNL     1       1.683   7.915  19.625  0.00  0.00    +0.000 C 
ATOM      3  O   UNL     1       1.905   8.177  18.444  0.00  0.00    +0.000 OA
ATOM      4  N   UNL     1       1.162   8.842  20.521  0.00  0.00    +0.000 N 
ATOM      5  H   UNL     1       1.369   6.493  21.045  0.00  0.00    +0.000 HD
ATOM      6  H   UNL     1       1.531   8.754  21.458  0.00  0.00    +0.000 HD
ENDROOT
BRANCH   4   7
ATOM      7  C   UNL     1       0.826  10.146  20.087  0.00  0.00    +0.000 A 
ATOM      8  C   UNL     1       1.473  11.271  20.612  0.00  0.00    +0.000 A 
ATOM      9  C   UNL     1       1.105  12.554  20.199  0.00  0.00    +0.000 A 
ATOM     10  C   UNL     1       0.073  12.720  19.275  0.00  0.00    +0.000 A 
ATOM     11 CL   UNL     1      -0.347  14.333  18.820  0.00  0.00    +0.000 Cl
ATOM     12  C   UNL     1      -0.577  11.596  18.752  0.00  0.00    +0.000 A 
ATOM     13 CL   UNL     1      -1.899  11.727  17.645  0.00  0.00    +0.000 Cl
ATOM     14  C   UNL     1      -0.183  10.308  19.139  0.00  0.00    +0.000 A 
ENDBRANCH   4   7
BRANCH   1  19
ATOM     15  C   UNL     1       4.650   4.440  19.110  0.00  0.00    +0.000 A 
ATOM     16  C   UNL     1       3.943   3.462  18.414  0.00  0.00    +0.000 A 
ATOM     17  C   UNL     1       2.556   3.546  18.306  0.00  0.00    +0.000 A 
ATOM     18  C   UNL     1       1.877   4.610  18.900  0.00  0.00    +0.000 A 
ATOM     19  C   UNL     1       2.569   5.600  19.601  0.00  0.00    +0.000 A 
ATOM     20  C   UNL     1       3.967   5.523  19.678  0.00  0.00    +0.000 A 
BRANCH  15  21
ATOM     21  O   UNL     1       6.011   4.277  19.136  0.00  0.00    +0.000 OA
BRANCH  21  22
ATOM     22  C   UNL     1       6.767   5.486  19.262  0.00  0.00    +0.000 C 
BRANCH  22  23
ATOM     23  C   UNL     1       7.666   5.623  18.035  0.00  0.00    +0.000 C 
BRANCH  23  24
ATOM     24  C   UNL     1       7.170   4.780  16.854  0.00  0.00    +0.000 C 
BRANCH  24  26
ATOM     25  C   UNL     1       6.916   4.826  14.433  0.00  0.00    +0.000 C 
ATOM     26  N   UNL     1       6.756   5.573  15.684  0.00  0.00    +0.000 NA
ATOM     27  C   UNL     1       5.361   6.000  15.825  0.00  0.00    +0.000 C 
ENDBRANCH  24  26
ENDBRANCH  23  24
ENDBRANCH  22  23
ENDBRANCH  21  22
ENDBRANCH  15  21
ENDBRANCH   1  19
TORSDOF 7
ENDMDL
MODEL 9
REMARK VINA RESULT:      -7.0      5.423      6.780
REMARK  Name = 
REMARK  9 active torsions:
REMARK  status: ('A' for Active; 'I' for Inactive)
REMARK    1  A    between atoms: C_1  and  N_2
REMARK    2  A    between atoms: N_2  and  C_3
REMARK    3  A    between atoms: N_2  and  C_4
REMARK    4  A    between atoms: C_4  and  C_5
REMARK    5  A    between atoms: C_5  and  C_6
REMARK    6  A    between atoms: C_6  and  O_7
REMARK    7  A    between atoms: O_7  and  C_8
REMARK    8  A    between atoms: C_12  and  N_13
REMARK    9  A    between atoms: N_16  and  C_17
REMARK                            x       y       z     vdW  Elec       q    Type
REMARK                         _______ _______ _______ _____ _____    ______ ____
ROOT
ATOM      1  N   UNL     1       3.484   7.735  17.323  0.00  0.00    +0.000 N 
ATOM      2  C   UNL     1       2.494   8.272  18.121  0.00  0.00    +0.000 C 
ATOM      3  O   UNL     1       2.192   7.869  19.243  0.00  0.00    +0.000 OA
ATOM      4  N   UNL     1       1.849   9.337  17.500  0.00  0.00    +0.000 N 
ATOM      5  H   UNL     1       3.879   8.356  16.634  0.00  0.00    +0.000 HD
ATOM      6  H   UNL     1       1.750   9.226  16.501  0.00  0.00    +0.000 HD
ENDROOT
BRANCH   4   7
ATOM      7  C   UNL     1       0.818  10.038  18.170  0.00  0.00    +0.000 A 
ATOM      8  C   UNL     1       1.104  10.895  19.239  0.00  0.00    +0.000 A 
ATOM      9  C   UNL     1       0.072  11.553  19.913  0.00  0.00    +0.000 A 
ATOM     10  C   UNL     1      -1.254  11.340  19.534  0.00  0.00    +0.000 A 
ATOM     11 CL   UNL     1      -2.485  12.167  20.420  0.00  0.00    +0.000 Cl
ATOM     12  C   UNL     1      -1.541  10.481  18.467  0.00  0.00    +0.000 A 
ATOM     13 CL   UNL     1      -3.162  10.128  17.977  0.00  0.00    +0.000 Cl
ATOM     14  C   UNL     1      -0.503   9.850  17.768  0.00  0.00    +0.000 A 
ENDBRANCH   4   7
BRANCH   1  19
ATOM     15  C   UNL     1       4.239   4.145  17.891  0.00  0.00    +0.000 A 
ATOM     16  C   UNL     1       5.595   4.186  18.206  0.00  0.00    +0.000 A 
ATOM     17  C   UNL     1       6.268   5.406  18.238  0.00  0.00    +0.000 A 
ATOM     18  C   UNL     1       5.582   6.586  17.949  0.00  0.00    +0.000 A 
ATOM     19  C   UNL     1       4.221   6.564  17.631  0.00  0.00    +0.000 A 
ATOM     20  C   UNL     1       3.546   5.335  17.631  0.00  0.00    +0.000 A 
BRANCH  15  21
ATOM     21  O   UNL     1       3.667   2.900  17.911  0.00  0.00    +0.000 OA
BRANCH  21  22
ATOM     22  C   UNL     1       2.315   2.842  17.442  0.00  0.00    +0.000 C 
BRANCH  22  23
ATOM     23  C   UNL     1       1.456   2.192  18.524  0.00  0.00    +0.000 C 
BRANCH  23  24
ATOM     24  C   UNL     1       1.005   3.197  19.592  0.00  0.00    +0.000 C 
BRANCH  24  26
ATOM     25  C   UNL     1       2.111   4.823  21.026  0.00  0.00    +0.000 C 
ATOM     26  N   UNL     1       1.986   3.407  20.669  0.00  0.00    +0.000 NA
ATOM     27  C   UNL     1       1.613   2.634  21.858  0.00  0.00    +0.000 C 
ENDBRANCH  24  26
ENDBRANCH  23  24
ENDBRANCH  22  23
ENDBRANCH  21  22
ENDBRANCH  15  21
ENDBRANCH   1  19
TORSDOF 7
ENDMDL
