MODEL 1
REMARK VINA RESULT:      -8.0      0.000      0.000
REMARK  Name = 
REMARK  8 active torsions:
REMARK  status: ('A' for Active; 'I' for Inactive)
REMARK    1  A    between atoms: C_2  and  C_3
REMARK    2  A    between atoms: C_3  and  S_4
REMARK    3  A    between atoms: S_4  and  C_5
REMARK    4  A    between atoms: C_8  and  C_9
REMARK    5  A    between atoms: C_9  and  N_10
REMARK    6  A    between atoms: C_11  and  C_13
REMARK    7  A    between atoms: N_20  and  C_21
REMARK    8  A    between atoms: C_21  and  C_22
REMARK                            x       y       z     vdW  Elec       q    Type
REMARK                         _______ _______ _______ _____ _____    ______ ____
ROOT
ATOM      1  S   UNL     1       2.189   5.571  20.816  0.00  0.00    +0.000 S 
ENDROOT
BRANCH   1   2
ATOM      2  C   UNL     1       2.346   6.692  19.503  0.00  0.00    +0.000 A 
ATOM      3  N   UNL     1       3.166   6.531  18.483  0.00  0.00    +0.000 NA
ATOM      4  N   UNL     1       3.113   7.694  17.742  0.00  0.00    +0.000 NA
ATOM      5  C   UNL     1       2.274   8.493  18.369  0.00  0.00    +0.000 A 
ATOM      6  O   UNL     1       1.726   7.915  19.484  0.00  0.00    +0.000 OA
BRANCH   5   7
ATOM      7  C   UNL     1       1.944   9.913  18.099  0.00  0.00    +0.000 C 
BRANCH   7   8
ATOM      8  N   UNL     1       0.580  10.074  17.641  0.00  0.00    +0.000 N 
ATOM      9  C   UNL     1      -0.326  10.719  18.459  0.00  0.00    +0.000 C 
ATOM     10  O   UNL     1      -0.011  11.180  19.552  0.00  0.00    +0.000 OA
ATOM     11  H   UNL     1       0.284   9.628  16.784  0.00  0.00    +0.000 HD
BRANCH   9  12
ATOM     12  C   UNL     1      -1.732  10.810  17.983  0.00  0.00    +0.000 A 
ATOM     13  C   UNL     1      -2.631  11.592  18.723  0.00  0.00    +0.000 A 
ATOM     14  C   UNL     1      -3.961  11.711  18.317  0.00  0.00    +0.000 A 
ATOM     15  C   UNL     1      -4.398  11.059  17.166  0.00  0.00    +0.000 A 
ATOM     16  C   UNL     1      -3.507  10.289  16.418  0.00  0.00    +0.000 A 
ATOM     17  C   UNL     1      -2.174  10.164  16.822  0.00  0.00    +0.000 A 
ENDBRANCH   9  12
ENDBRANCH   7   8
ENDBRANCH   5   7
ENDBRANCH   1   2
BRANCH   1  18
ATOM     18  C   UNL     1       1.489   4.154  19.904  0.00  0.00    +0.000 C 
BRANCH  18  20
ATOM     19  O   UNL     1       3.176   2.433  19.958  0.00  0.00    +0.000 OA
ATOM     20  C   UNL     1       2.618   3.306  19.318  0.00  0.00    +0.000 C 
ATOM     21  N   UNL     1       2.982   3.649  18.033  0.00  0.00    +0.000 N 
ATOM     22  H   UNL     1       2.399   4.286  17.502  0.00  0.00    +0.000 HD
BRANCH  21  23
ATOM     23  C   UNL     1       4.036   2.953  17.317  0.00  0.00    +0.000 C 
BRANCH  23  24
ATOM     24  C   UNL     1       5.134   3.914  16.952  0.00  0.00    +0.000 A 
ATOM     25  C   UNL     1       5.064   4.682  15.763  0.00  0.00    +0.000 A 
ATOM     26  C   UNL     1       5.919   5.771  15.557  0.00  0.00    +0.000 A 
ATOM     27  C   UNL     1       6.801   6.068  16.572  0.00  0.00    +0.000 A 
ATOM     28  C   UNL     1       6.946   5.252  17.675  0.00  0.00    +0.000 A 
ATOM     29  C   UNL     1       6.143   4.163  17.890  0.00  0.00    +0.000 A 
ATOM     30  O   UNL     1       7.822   5.767  18.585  0.00  0.00    +0.000 OA
ATOM     31  C   UNL     1       7.783   7.133  18.139  0.00  0.00    +0.000 C 
ATOM     32  O   UNL     1       7.508   7.226  16.722  0.00  0.00    +0.000 OA
ENDBRANCH  23  24
ENDBRANCH  21  23
ENDBRANCH  18  20
ENDBRANCH   1  18
TORSDOF 8
ENDMDL
MODEL 2
REMARK VINA RESULT:      -7.9      2.450      9.835
REMARK  Name = 
REMARK  8 active torsions:
REMARK  status: ('A' for Active; 'I' for Inactive)
REMARK    1  A    between atoms: C_2  and  C_3
REMARK    2  A    between atoms: C_3  and  S_4
REMARK    3  A    between atoms: S_4  and  C_5
REMARK    4  A    between atoms: C_8  and  C_9
REMARK    5  A    between atoms: C_9  and  N_10
REMARK    6  A    between atoms: C_11  and  C_13
REMARK    7  A    between atoms: N_20  and  C_21
REMARK    8  A    between atoms: C_21  and  C_22
REMARK                            x       y       z     vdW  Elec       q    Type
REMARK                         _______ _______ _______ _____ _____    ______ ____
ROOT
ATOM      1  S   UNL     1       2.237   7.437  19.517  0.00  0.00    +0.000 S 
ENDROOT
BRANCH   1   2
ATOM      2  C   UNL     1       3.226   6.051  19.187  0.00  0.00    +0.000 A 
ATOM      3  N   UNL     1       2.968   4.834  19.622  0.00  0.00    +0.000 NA
ATOM      4  N   UNL     1       4.054   4.052  19.286  0.00  0.00    +0.000 NA
ATOM      5  C   UNL     1       4.910   4.850  18.680  0.00  0.00    +0.000 A 
ATOM      6  O   UNL     1       4.441   6.132  18.557  0.00  0.00    +0.000 OA
BRANCH   5   7
ATOM      7  C   UNL     1       6.297   4.579  18.232  0.00  0.00    +0.000 C 
BRANCH   7   8
ATOM      8  N   UNL     1       6.351   4.204  16.834  0.00  0.00    +0.000 N 
ATOM      9  C   UNL     1       6.893   5.091  15.927  0.00  0.00    +0.000 C 
ATOM     10  O   UNL     1       7.351   6.178  16.266  0.00  0.00    +0.000 OA
ATOM     11  H   UNL     1       5.903   3.352  16.528  0.00  0.00    +0.000 HD
BRANCH   9  12
ATOM     12  C   UNL     1       6.874   4.698  14.492  0.00  0.00    +0.000 A 
ATOM     13  C   UNL     1       7.770   5.335  13.621  0.00  0.00    +0.000 A 
ATOM     14  C   UNL     1       7.793   5.001  12.266  0.00  0.00    +0.000 A 
ATOM     15  C   UNL     1       6.929   4.023  11.777  0.00  0.00    +0.000 A 
ATOM     16  C   UNL     1       6.044   3.377  12.639  0.00  0.00    +0.000 A 
ATOM     17  C   UNL     1       6.015   3.709  13.997  0.00  0.00    +0.000 A 
ENDBRANCH   9  12
ENDBRANCH   7   8
ENDBRANCH   5   7
ENDBRANCH   1   2
BRANCH   1  18
ATOM     18  C   UNL     1       2.331   8.253  17.888  0.00  0.00    +0.000 C 
BRANCH  18  20
ATOM     19  O   UNL     1       2.315  10.622  17.442  0.00  0.00    +0.000 OA
ATOM     20  C   UNL     1       1.777   9.674  17.987  0.00  0.00    +0.000 C 
ATOM     21  N   UNL     1       0.658   9.797  18.784  0.00  0.00    +0.000 N 
ATOM     22  H   UNL     1       0.176   8.963  19.100  0.00  0.00    +0.000 HD
BRANCH  21  23
ATOM     23  C   UNL     1      -0.004  11.073  18.995  0.00  0.00    +0.000 C 
BRANCH  23  24
ATOM     24  C   UNL     1      -1.390  11.036  18.414  0.00  0.00    +0.000 A 
ATOM     25  C   UNL     1      -1.809   9.955  17.599  0.00  0.00    +0.000 A 
ATOM     26  C   UNL     1      -3.163   9.766  17.293  0.00  0.00    +0.000 A 
ATOM     27  C   UNL     1      -4.053  10.660  17.843  0.00  0.00    +0.000 A 
ATOM     28  C   UNL     1      -3.634  11.775  18.539  0.00  0.00    +0.000 A 
ATOM     29  C   UNL     1      -2.315  12.002  18.829  0.00  0.00    +0.000 A 
ATOM     30  O   UNL     1      -4.679  12.486  19.051  0.00  0.00    +0.000 OA
ATOM     31  C   UNL     1      -5.665  11.441  19.004  0.00  0.00    +0.000 C 
ATOM     32  O   UNL     1      -5.408  10.511  17.927  0.00  0.00    +0.000 OA
ENDBRANCH  23  24
ENDBRANCH  21  23
ENDBRANCH  18  20
ENDBRANCH   1  18
TORSDOF 8
ENDMDL
MODEL 3
REMARK VINA RESULT:      -7.8      1.248      1.567
REMARK  Name = 
REMARK  8 active torsions:
REMARK  status: ('A' for Active; 'I' for Inactive)
REMARK    1  A    between atoms: C_2  and  C_3
REMARK    2  A    between atoms: C_3  and  S_4
REMARK    3  A    between atoms: S_4  and  C_5
REMARK    4  A    between atoms: C_8  and  C_9
REMARK    5  A    between atoms: C_9  and  N_10
REMARK    6  A    between atoms: C_11  and  C_13
REMARK    7  A    between atoms: N_20  and  C_21
REMARK    8  A    between atoms: C_21  and  C_22
REMARK                            x       y       z     vdW  Elec       q    Type
REMARK                         _______ _______ _______ _____ _____    ______ ____
ROOT
ATOM      1  S   UNL     1       2.366   5.451  20.700  0.00  0.00    +0.000 S 
ENDROOT
BRANCH   1   2
ATOM      2  C   UNL     1       1.917   7.097  20.386  0.00  0.00    +0.000 A 
ATOM      3  N   UNL     1       1.240   7.855  21.226  0.00  0.00    +0.000 NA
ATOM      4  N   UNL     1       0.950   9.027  20.558  0.00  0.00    +0.000 NA
ATOM      5  C   UNL     1       1.458   8.899  19.349  0.00  0.00    +0.000 A 
ATOM      6  O   UNL     1       2.112   7.707  19.174  0.00  0.00    +0.000 OA
BRANCH   5   7
ATOM      7  C   UNL     1       1.326   9.790  18.172  0.00  0.00    +0.000 C 
BRANCH   7   8
ATOM      8  N   UNL     1      -0.056   9.955  17.770  0.00  0.00    +0.000 N 
ATOM      9  C   UNL     1      -0.728  11.098  18.150  0.00  0.00    +0.000 C 
ATOM     10  O   UNL     1      -0.191  11.991  18.798  0.00  0.00    +0.000 OA
ATOM     11  H   UNL     1      -0.537   9.195  17.310  0.00  0.00    +0.000 HD
BRANCH   9  12
ATOM     12  C   UNL     1      -2.164  11.205  17.774  0.00  0.00    +0.000 A 
ATOM     13  C   UNL     1      -2.537  10.824  16.476  0.00  0.00    +0.000 A 
ATOM     14  C   UNL     1      -3.871  10.904  16.075  0.00  0.00    +0.000 A 
ATOM     15  C   UNL     1      -4.840  11.353  16.969  0.00  0.00    +0.000 A 
ATOM     16  C   UNL     1      -4.479  11.722  18.265  0.00  0.00    +0.000 A 
ATOM     17  C   UNL     1      -3.143  11.647  18.671  0.00  0.00    +0.000 A 
ENDBRANCH   9  12
ENDBRANCH   7   8
ENDBRANCH   5   7
ENDBRANCH   1   2
BRANCH   1  18
ATOM     18  C   UNL     1       1.152   4.611  19.627  0.00  0.00    +0.000 C 
BRANCH  18  20
ATOM     19  O   UNL     1       1.298   3.834  17.351  0.00  0.00    +0.000 OA
ATOM     20  C   UNL     1       1.862   4.006  18.417  0.00  0.00    +0.000 C 
ATOM     21  N   UNL     1       3.167   3.625  18.650  0.00  0.00    +0.000 N 
ATOM     22  H   UNL     1       3.625   3.914  19.508  0.00  0.00    +0.000 HD
BRANCH  21  23
ATOM     23  C   UNL     1       3.995   3.031  17.616  0.00  0.00    +0.000 C 
BRANCH  23  24
ATOM     24  C   UNL     1       5.047   4.011  17.172  0.00  0.00    +0.000 A 
ATOM     25  C   UNL     1       4.851   4.818  16.023  0.00  0.00    +0.000 A 
ATOM     26  C   UNL     1       5.678   5.918  15.767  0.00  0.00    +0.000 A 
ATOM     27  C   UNL     1       6.660   6.185  16.694  0.00  0.00    +0.000 A 
ATOM     28  C   UNL     1       6.923   5.333  17.747  0.00  0.00    +0.000 A 
ATOM     29  C   UNL     1       6.148   4.233  18.007  0.00  0.00    +0.000 A 
ATOM     30  O   UNL     1       7.887   5.821  18.577  0.00  0.00    +0.000 OA
ATOM     31  C   UNL     1       7.799   7.202  18.185  0.00  0.00    +0.000 C 
ATOM     32  O   UNL     1       7.378   7.341  16.809  0.00  0.00    +0.000 OA
ENDBRANCH  23  24
ENDBRANCH  21  23
ENDBRANCH  18  20
ENDBRANCH   1  18
TORSDOF 8
ENDMDL
MODEL 4
REMARK VINA RESULT:      -7.8      2.927      8.102
REMARK  Name = 
REMARK  8 active torsions:
REMARK  status: ('A' for Active; 'I' for Inactive)
REMARK    1  A    between atoms: C_2  and  C_3
REMARK    2  A    between atoms: C_3  and  S_4
REMARK    3  A    between atoms: S_4  and  C_5
REMARK    4  A    between atoms: C_8  and  C_9
REMARK    5  A    between atoms: C_9  and  N_10
REMARK    6  A    between atoms: C_11  and  C_13
REMARK    7  A    between atoms: N_20  and  C_21
REMARK    8  A    between atoms: C_21  and  C_22
REMARK                            x       y       z     vdW  Elec       q    Type
REMARK                         _______ _______ _______ _____ _____    ______ ____
ROOT
ATOM      1  S   UNL     1       1.763   1.705  18.955  0.00  0.00    +0.000 S 
ENDROOT
BRANCH   1   2
ATOM      2  C   UNL     1       3.354   2.378  19.108  0.00  0.00    +0.000 A 
ATOM      3  N   UNL     1       4.093   2.296  20.197  0.00  0.00    +0.000 NA
ATOM      4  N   UNL     1       5.209   3.077  19.980  0.00  0.00    +0.000 NA
ATOM      5  C   UNL     1       5.070   3.594  18.776  0.00  0.00    +0.000 A 
ATOM      6  O   UNL     1       3.926   3.174  18.149  0.00  0.00    +0.000 OA
BRANCH   5   7
ATOM      7  C   UNL     1       5.897   4.612  18.086  0.00  0.00    +0.000 C 
BRANCH   7   8
ATOM      8  N   UNL     1       6.207   4.225  16.724  0.00  0.00    +0.000 N 
ATOM      9  C   UNL     1       6.273   5.203  15.753  0.00  0.00    +0.000 C 
ATOM     10  O   UNL     1       6.100   6.391  16.006  0.00  0.00    +0.000 OA
ATOM     11  H   UNL     1       6.269   3.246  16.485  0.00  0.00    +0.000 HD
BRANCH   9  12
ATOM     12  C   UNL     1       6.530   4.762  14.356  0.00  0.00    +0.000 A 
ATOM     13  C   UNL     1       5.671   3.805  13.796  0.00  0.00    +0.000 A 
ATOM     14  C   UNL     1       5.870   3.360  12.488  0.00  0.00    +0.000 A 
ATOM     15  C   UNL     1       6.919   3.876  11.730  0.00  0.00    +0.000 A 
ATOM     16  C   UNL     1       7.771   4.836  12.276  0.00  0.00    +0.000 A 
ATOM     17  C   UNL     1       7.578   5.283  13.587  0.00  0.00    +0.000 A 
ENDBRANCH   9  12
ENDBRANCH   7   8
ENDBRANCH   5   7
ENDBRANCH   1   2
BRANCH   1  18
ATOM     18  C   UNL     1       0.800   3.254  18.885  0.00  0.00    +0.000 C 
BRANCH  18  20
ATOM     19  O   UNL     1       1.353   4.269  21.000  0.00  0.00    +0.000 OA
ATOM     20  C   UNL     1       1.446   4.306  19.785  0.00  0.00    +0.000 C 
ATOM     21  N   UNL     1       2.090   5.320  19.109  0.00  0.00    +0.000 N 
ATOM     22  H   UNL     1       2.253   5.230  18.112  0.00  0.00    +0.000 HD
BRANCH  21  23
ATOM     23  C   UNL     1       2.760   6.407  19.801  0.00  0.00    +0.000 C 
BRANCH  23  24
ATOM     24  C   UNL     1       1.857   7.608  19.872  0.00  0.00    +0.000 A 
ATOM     25  C   UNL     1       1.150   7.917  21.061  0.00  0.00    +0.000 A 
ATOM     26  C   UNL     1       0.543   9.167  21.233  0.00  0.00    +0.000 A 
ATOM     27  C   UNL     1       0.692  10.075  20.210  0.00  0.00    +0.000 A 
ATOM     28  C   UNL     1       1.279   9.733  19.009  0.00  0.00    +0.000 A 
ATOM     29  C   UNL     1       1.857   8.508  18.801  0.00  0.00    +0.000 A 
ATOM     30  O   UNL     1       1.383  10.798  18.164  0.00  0.00    +0.000 OA
ATOM     31  C   UNL     1       1.256  11.838  19.149  0.00  0.00    +0.000 C 
ATOM     32  O   UNL     1       0.449  11.417  20.271  0.00  0.00    +0.000 OA
ENDBRANCH  23  24
ENDBRANCH  21  23
ENDBRANCH  18  20
ENDBRANCH   1  18
TORSDOF 8
ENDMDL
MODEL 5
REMARK VINA RESULT:      -7.7      2.767      3.666
REMARK  Name = 
REMARK  8 active torsions:
REMARK  status: ('A' for Active; 'I' for Inactive)
REMARK    1  A    between atoms: C_2  and  C_3
REMARK    2  A    between atoms: C_3  and  S_4
REMARK    3  A    between atoms: S_4  and  C_5
REMARK    4  A    between atoms: C_8  and  C_9
REMARK    5  A    between atoms: C_9  and  N_10
REMARK    6  A    between atoms: C_11  and  C_13
REMARK    7  A    between atoms: N_20  and  C_21
REMARK    8  A    between atoms: C_21  and  C_22
REMARK                            x       y       z     vdW  Elec       q    Type
REMARK                         _______ _______ _______ _____ _____    ______ ____
ROOT
ATOM      1  S   UNL     1       1.319   2.195  19.827  0.00  0.00    +0.000 S 
ENDROOT
BRANCH   1   2
ATOM      2  C   UNL     1       1.564   3.760  19.121  0.00  0.00    +0.000 A 
ATOM      3  N   UNL     1       1.578   3.996  17.824  0.00  0.00    +0.000 NA
ATOM      4  N   UNL     1       1.951   5.314  17.663  0.00  0.00    +0.000 NA
ATOM      5  C   UNL     1       2.152   5.792  18.875  0.00  0.00    +0.000 A 
ATOM      6  O   UNL     1       1.900   4.868  19.856  0.00  0.00    +0.000 OA
BRANCH   5   7
ATOM      7  C   UNL     1       2.698   7.106  19.292  0.00  0.00    +0.000 C 
BRANCH   7   8
ATOM      8  N   UNL     1       1.868   7.743  20.293  0.00  0.00    +0.000 N 
ATOM      9  C   UNL     1       1.295   8.965  20.004  0.00  0.00    +0.000 C 
ATOM     10  O   UNL     1       1.445   9.520  18.919  0.00  0.00    +0.000 OA
ATOM     11  H   UNL     1       1.803   7.342  21.217  0.00  0.00    +0.000 HD
BRANCH   9  12
ATOM     12  C   UNL     1       0.501   9.619  21.078  0.00  0.00    +0.000 A 
ATOM     13  C   UNL     1      -0.241  10.762  20.748  0.00  0.00    +0.000 A 
ATOM     14  C   UNL     1      -1.004  11.412  21.721  0.00  0.00    +0.000 A 
ATOM     15  C   UNL     1      -1.037  10.918  23.023  0.00  0.00    +0.000 A 
ATOM     16  C   UNL     1      -0.310   9.775  23.356  0.00  0.00    +0.000 A 
ATOM     17  C   UNL     1       0.457   9.122  22.386  0.00  0.00    +0.000 A 
ENDBRANCH   9  12
ENDBRANCH   7   8
ENDBRANCH   5   7
ENDBRANCH   1   2
BRANCH   1  18
ATOM     18  C   UNL     1       2.830   1.368  19.225  0.00  0.00    +0.000 C 
BRANCH  18  20
ATOM     19  O   UNL     1       4.694   1.968  20.630  0.00  0.00    +0.000 OA
ATOM     20  C   UNL     1       4.060   2.188  19.613  0.00  0.00    +0.000 C 
ATOM     21  N   UNL     1       4.354   3.221  18.748  0.00  0.00    +0.000 N 
ATOM     22  H   UNL     1       3.880   3.273  17.853  0.00  0.00    +0.000 HD
BRANCH  21  23
ATOM     23  C   UNL     1       5.486   4.106  18.958  0.00  0.00    +0.000 C 
BRANCH  23  24
ATOM     24  C   UNL     1       5.888   4.747  17.658  0.00  0.00    +0.000 A 
ATOM     25  C   UNL     1       6.976   5.654  17.600  0.00  0.00    +0.000 A 
ATOM     26  C   UNL     1       7.535   6.031  16.373  0.00  0.00    +0.000 A 
ATOM     27  C   UNL     1       6.996   5.456  15.244  0.00  0.00    +0.000 A 
ATOM     28  C   UNL     1       5.867   4.665  15.294  0.00  0.00    +0.000 A 
ATOM     29  C   UNL     1       5.280   4.303  16.478  0.00  0.00    +0.000 A 
ATOM     30  O   UNL     1       5.546   4.147  14.075  0.00  0.00    +0.000 OA
ATOM     31  C   UNL     1       6.830   4.312  13.450  0.00  0.00    +0.000 C 
ATOM     32  O   UNL     1       7.550   5.441  13.996  0.00  0.00    +0.000 OA
ENDBRANCH  23  24
ENDBRANCH  21  23
ENDBRANCH  18  20
ENDBRANCH   1  18
TORSDOF 8
ENDMDL
MODEL 6
REMARK VINA RESULT:      -7.7      2.816      7.939
REMARK  Name = 
REMARK  8 active torsions:
REMARK  status: ('A' for Active; 'I' for Inactive)
REMARK    1  A    between atoms: C_2  and  C_3
REMARK    2  A    between atoms: C_3  and  S_4
REMARK    3  A    between atoms: S_4  and  C_5
REMARK    4  A    between atoms: C_8  and  C_9
REMARK    5  A    between atoms: C_9  and  N_10
REMARK    6  A    between atoms: C_11  and  C_13
REMARK    7  A    between atoms: N_20  and  C_21
REMARK    8  A    between atoms: C_21  and  C_22
REMARK                            x       y       z     vdW  Elec       q    Type
REMARK                         _______ _______ _______ _____ _____    ______ ____
ROOT
ATOM      1  S   UNL     1       3.152   2.319  19.483  0.00  0.00    +0.000 S 
ENDROOT
BRANCH   1   2
ATOM      2  C   UNL     1       4.338   3.585  19.510  0.00  0.00    +0.000 A 
ATOM      3  N   UNL     1       4.141   4.775  20.042  0.00  0.00    +0.000 NA
ATOM      4  N   UNL     1       5.247   5.538  19.729  0.00  0.00    +0.000 NA
ATOM      5  C   UNL     1       6.039   4.765  19.014  0.00  0.00    +0.000 A 
ATOM      6  O   UNL     1       5.539   3.499  18.855  0.00  0.00    +0.000 OA
BRANCH   5   7
ATOM      7  C   UNL     1       7.293   5.104  18.299  0.00  0.00    +0.000 C 
BRANCH   7   8
ATOM      8  N   UNL     1       7.289   4.614  16.936  0.00  0.00    +0.000 N 
ATOM      9  C   UNL     1       6.840   5.445  15.931  0.00  0.00    +0.000 C 
ATOM     10  O   UNL     1       6.465   6.593  16.147  0.00  0.00    +0.000 OA
ATOM     11  H   UNL     1       7.514   3.646  16.753  0.00  0.00    +0.000 HD
BRANCH   9  12
ATOM     12  C   UNL     1       6.790   4.886  14.553  0.00  0.00    +0.000 A 
ATOM     13  C   UNL     1       7.677   5.403  13.598  0.00  0.00    +0.000 A 
ATOM     14  C   UNL     1       7.671   4.911  12.292  0.00  0.00    +0.000 A 
ATOM     15  C   UNL     1       6.787   3.895  11.936  0.00  0.00    +0.000 A 
ATOM     16  C   UNL     1       5.910   3.367  12.883  0.00  0.00    +0.000 A 
ATOM     17  C   UNL     1       5.910   3.858  14.193  0.00  0.00    +0.000 A 
ENDBRANCH   9  12
ENDBRANCH   7   8
ENDBRANCH   5   7
ENDBRANCH   1   2
BRANCH   1  18
ATOM     18  C   UNL     1       1.973   3.054  18.300  0.00  0.00    +0.000 C 
BRANCH  18  20
ATOM     19  O   UNL     1       3.433   4.117  16.705  0.00  0.00    +0.000 OA
ATOM     20  C   UNL     1       2.618   4.250  17.601  0.00  0.00    +0.000 C 
ATOM     21  N   UNL     1       2.240   5.478  18.103  0.00  0.00    +0.000 N 
ATOM     22  H   UNL     1       1.462   5.535  18.750  0.00  0.00    +0.000 HD
BRANCH  21  23
ATOM     23  C   UNL     1       2.753   6.724  17.561  0.00  0.00    +0.000 C 
BRANCH  23  24
ATOM     24  C   UNL     1       2.284   7.882  18.399  0.00  0.00    +0.000 A 
ATOM     25  C   UNL     1       1.891   9.103  17.797  0.00  0.00    +0.000 A 
ATOM     26  C   UNL     1       1.192  10.073  18.525  0.00  0.00    +0.000 A 
ATOM     27  C   UNL     1       0.887   9.767  19.832  0.00  0.00    +0.000 A 
ATOM     28  C   UNL     1       1.369   8.630  20.448  0.00  0.00    +0.000 A 
ATOM     29  C   UNL     1       2.081   7.677  19.768  0.00  0.00    +0.000 A 
ATOM     30  O   UNL     1       0.892   8.489  21.717  0.00  0.00    +0.000 OA
ATOM     31  C   UNL     1      -0.248   9.356  21.592  0.00  0.00    +0.000 C 
ATOM     32  O   UNL     1      -0.017  10.409  20.629  0.00  0.00    +0.000 OA
ENDBRANCH  23  24
ENDBRANCH  21  23
ENDBRANCH  18  20
ENDBRANCH   1  18
TORSDOF 8
ENDMDL
MODEL 7
REMARK VINA RESULT:      -7.6      2.840      8.339
REMARK  Name = 
REMARK  8 active torsions:
REMARK  status: ('A' for Active; 'I' for Inactive)
REMARK    1  A    between atoms: C_2  and  C_3
REMARK    2  A    between atoms: C_3  and  S_4
REMARK    3  A    between atoms: S_4  and  C_5
REMARK    4  A    between atoms: C_8  and  C_9
REMARK    5  A    between atoms: C_9  and  N_10
REMARK    6  A    between atoms: C_11  and  C_13
REMARK    7  A    between atoms: N_20  and  C_21
REMARK    8  A    between atoms: C_21  and  C_22
REMARK                            x       y       z     vdW  Elec       q    Type
REMARK                         _______ _______ _______ _____ _____    ______ ____
ROOT
ATOM      1  S   UNL     1       3.413   2.298  19.643  0.00  0.00    +0.000 S 
ENDROOT
BRANCH   1   2
ATOM      2  C   UNL     1       4.697   3.362  19.166  0.00  0.00    +0.000 A 
ATOM      3  N   UNL     1       5.306   4.202  19.980  0.00  0.00    +0.000 NA
ATOM      4  N   UNL     1       6.147   4.971  19.202  0.00  0.00    +0.000 NA
ATOM      5  C   UNL     1       5.984   4.557  17.962  0.00  0.00    +0.000 A 
ATOM      6  O   UNL     1       5.096   3.517  17.864  0.00  0.00    +0.000 OA
BRANCH   5   7
ATOM      7  C   UNL     1       6.529   5.116  16.702  0.00  0.00    +0.000 C 
BRANCH   7   8
ATOM      8  N   UNL     1       6.125   4.342  15.546  0.00  0.00    +0.000 N 
ATOM      9  C   UNL     1       6.721   4.602  14.329  0.00  0.00    +0.000 C 
ATOM     10  O   UNL     1       7.598   5.450  14.195  0.00  0.00    +0.000 OA
ATOM     11  H   UNL     1       5.347   3.701  15.621  0.00  0.00    +0.000 HD
BRANCH   9  12
ATOM     12  C   UNL     1       6.235   3.832  13.152  0.00  0.00    +0.000 A 
ATOM     13  C   UNL     1       7.177   3.123  12.393  0.00  0.00    +0.000 A 
ATOM     14  C   UNL     1       6.772   2.384  11.280  0.00  0.00    +0.000 A 
ATOM     15  C   UNL     1       5.425   2.341  10.927  0.00  0.00    +0.000 A 
ATOM     16  C   UNL     1       4.481   3.034  11.684  0.00  0.00    +0.000 A 
ATOM     17  C   UNL     1       4.882   3.778  12.798  0.00  0.00    +0.000 A 
ENDBRANCH   9  12
ENDBRANCH   7   8
ENDBRANCH   5   7
ENDBRANCH   1   2
BRANCH   1  18
ATOM     18  C   UNL     1       2.110   3.537  19.951  0.00  0.00    +0.000 C 
BRANCH  18  20
ATOM     19  O   UNL     1       1.639   4.234  17.693  0.00  0.00    +0.000 OA
ATOM     20  C   UNL     1       2.061   4.536  18.796  0.00  0.00    +0.000 C 
ATOM     21  N   UNL     1       2.580   5.779  19.092  0.00  0.00    +0.000 N 
ATOM     22  H   UNL     1       2.790   6.016  20.055  0.00  0.00    +0.000 HD
BRANCH  21  23
ATOM     23  C   UNL     1       2.617   6.853  18.115  0.00  0.00    +0.000 C 
BRANCH  23  24
ATOM     24  C   UNL     1       2.137   8.134  18.739  0.00  0.00    +0.000 A 
ATOM     25  C   UNL     1       1.879   9.279  17.944  0.00  0.00    +0.000 A 
ATOM     26  C   UNL     1       1.170  10.370  18.461  0.00  0.00    +0.000 A 
ATOM     27  C   UNL     1       0.719  10.259  19.757  0.00  0.00    +0.000 A 
ATOM     28  C   UNL     1       1.069   9.196  20.564  0.00  0.00    +0.000 A 
ATOM     29  C   UNL     1       1.786   8.127  20.094  0.00  0.00    +0.000 A 
ATOM     30  O   UNL     1       0.460   9.251  21.782  0.00  0.00    +0.000 OA
ATOM     31  C   UNL     1      -0.608  10.144  21.424  0.00  0.00    +0.000 C 
ATOM     32  O   UNL     1      -0.220  11.044  20.362  0.00  0.00    +0.000 OA
ENDBRANCH  23  24
ENDBRANCH  21  23
ENDBRANCH  18  20
ENDBRANCH   1  18
TORSDOF 8
ENDMDL
MODEL 8
REMARK VINA RESULT:      -7.5      1.831      2.513
REMARK  Name = 
REMARK  8 active torsions:
REMARK  status: ('A' for Active; 'I' for Inactive)
REMARK    1  A    between atoms: C_2  and  C_3
REMARK    2  A    between atoms: C_3  and  S_4
REMARK    3  A    between atoms: S_4  and  C_5
REMARK    4  A    between atoms: C_8  and  C_9
REMARK    5  A    between atoms: C_9  and  N_10
REMARK    6  A    between atoms: C_11  and  C_13
REMARK    7  A    between atoms: N_20  and  C_21
REMARK    8  A    between atoms: C_21  and  C_22
REMARK                            x       y       z     vdW  Elec       q    Type
REMARK                         _______ _______ _______ _____ _____    ______ ____
ROOT
ATOM      1  S   UNL     1       3.598   2.561  20.473  0.00  0.00    +0.000 S 
ENDROOT
BRANCH   1   2
ATOM      2  C   UNL     1       2.945   4.167  20.437  0.00  0.00    +0.000 A 
ATOM      3  N   UNL     1       1.814   4.523  21.013  0.00  0.00    +0.000 NA
ATOM      4  N   UNL     1       1.565   5.825  20.631  0.00  0.00    +0.000 NA
ATOM      5  C   UNL     1       2.555   6.172  19.835  0.00  0.00    +0.000 A 
ATOM      6  O   UNL     1       3.486   5.178  19.684  0.00  0.00    +0.000 OA
BRANCH   5   7
ATOM      7  C   UNL     1       2.729   7.404  19.029  0.00  0.00    +0.000 C 
BRANCH   7   8
ATOM      8  N   UNL     1       1.661   8.356  19.257  0.00  0.00    +0.000 N 
ATOM      9  C   UNL     1       1.426   9.332  18.311  0.00  0.00    +0.000 C 
ATOM     10  O   UNL     1       2.075   9.410  17.273  0.00  0.00    +0.000 OA
ATOM     11  H   UNL     1       1.174   8.358  20.142  0.00  0.00    +0.000 HD
BRANCH   9  12
ATOM     12  C   UNL     1       0.363  10.330  18.608  0.00  0.00    +0.000 A 
ATOM     13  C   UNL     1       0.702  11.442  19.393  0.00  0.00    +0.000 A 
ATOM     14  C   UNL     1      -0.259  12.407  19.699  0.00  0.00    +0.000 A 
ATOM     15  C   UNL     1      -1.559  12.273  19.214  0.00  0.00    +0.000 A 
ATOM     16  C   UNL     1      -1.900  11.175  18.423  0.00  0.00    +0.000 A 
ATOM     17  C   UNL     1      -0.941  10.204  18.116  0.00  0.00    +0.000 A 
ENDBRANCH   9  12
ENDBRANCH   7   8
ENDBRANCH   5   7
ENDBRANCH   1   2
BRANCH   1  18
ATOM     18  C   UNL     1       2.559   1.798  19.181  0.00  0.00    +0.000 C 
BRANCH  18  20
ATOM     19  O   UNL     1       1.675   2.869  17.211  0.00  0.00    +0.000 OA
ATOM     20  C   UNL     1       2.653   2.614  17.893  0.00  0.00    +0.000 C 
ATOM     21  N   UNL     1       3.934   2.988  17.544  0.00  0.00    +0.000 N 
ATOM     22  H   UNL     1       4.687   2.869  18.212  0.00  0.00    +0.000 HD
BRANCH  21  23
ATOM     23  C   UNL     1       4.213   3.767  16.351  0.00  0.00    +0.000 C 
BRANCH  23  24
ATOM     24  C   UNL     1       5.365   4.701  16.603  0.00  0.00    +0.000 A 
ATOM     25  C   UNL     1       5.305   6.057  16.194  0.00  0.00    +0.000 A 
ATOM     26  C   UNL     1       6.231   6.994  16.668  0.00  0.00    +0.000 A 
ATOM     27  C   UNL     1       7.172   6.537  17.563  0.00  0.00    +0.000 A 
ATOM     28  C   UNL     1       7.300   5.198  17.871  0.00  0.00    +0.000 A 
ATOM     29  C   UNL     1       6.426   4.254  17.399  0.00  0.00    +0.000 A 
ATOM     30  O   UNL     1       8.247   4.976  18.826  0.00  0.00    +0.000 OA
ATOM     31  C   UNL     1       8.293   6.308  19.365  0.00  0.00    +0.000 C 
ATOM     32  O   UNL     1       7.970   7.302  18.366  0.00  0.00    +0.000 OA
ENDBRANCH  23  24
ENDBRANCH  21  23
ENDBRANCH  18  20
ENDBRANCH   1  18
TORSDOF 8
ENDMDL
MODEL 9
REMARK VINA RESULT:      -7.5      5.669      9.499
REMARK  Name = 
REMARK  8 active torsions:
REMARK  status: ('A' for Active; 'I' for Inactive)
REMARK    1  A    between atoms: C_2  and  C_3
REMARK    2  A    between atoms: C_3  and  S_4
REMARK    3  A    between atoms: S_4  and  C_5
REMARK    4  A    between atoms: C_8  and  C_9
REMARK    5  A    between atoms: C_9  and  N_10
REMARK    6  A    between atoms: C_11  and  C_13
REMARK    7  A    between atoms: N_20  and  C_21
REMARK    8  A    between atoms: C_21  and  C_22
REMARK                            x       y       z     vdW  Elec       q    Type
REMARK                         _______ _______ _______ _____ _____    ______ ____
ROOT
ATOM      1  S   UNL     1       8.932   9.685  19.222  0.00  0.00    +0.000 S 
ENDROOT
BRANCH   1   2
ATOM      2  C   UNL     1       8.274   8.353  18.326  0.00  0.00    +0.000 A 
ATOM      3  N   UNL     1       7.481   8.482  17.280  0.00  0.00    +0.000 NA
ATOM      4  N   UNL     1       7.053   7.213  16.948  0.00  0.00    +0.000 NA
ATOM      5  C   UNL     1       7.602   6.396  17.823  0.00  0.00    +0.000 A 
ATOM      6  O   UNL     1       8.414   7.047  18.716  0.00  0.00    +0.000 OA
BRANCH   5   7
ATOM      7  C   UNL     1       7.380   4.945  18.027  0.00  0.00    +0.000 C 
BRANCH   7   8
ATOM      8  N   UNL     1       6.286   4.687  18.941  0.00  0.00    +0.000 N 
ATOM      9  C   UNL     1       5.028   4.454  18.426  0.00  0.00    +0.000 C 
ATOM     10  O   UNL     1       4.807   4.434  17.219  0.00  0.00    +0.000 OA
ATOM     11  H   UNL     1       6.434   4.783  19.936  0.00  0.00    +0.000 HD
BRANCH   9  12
ATOM     12  C   UNL     1       3.918   4.256  19.395  0.00  0.00    +0.000 A 
ATOM     13  C   UNL     1       3.745   2.980  19.951  0.00  0.00    +0.000 A 
ATOM     14  C   UNL     1       2.719   2.744  20.867  0.00  0.00    +0.000 A 
ATOM     15  C   UNL     1       1.867   3.781  21.240  0.00  0.00    +0.000 A 
ATOM     16  C   UNL     1       2.040   5.056  20.700  0.00  0.00    +0.000 A 
ATOM     17  C   UNL     1       3.065   5.298  19.781  0.00  0.00    +0.000 A 
ENDBRANCH   9  12
ENDBRANCH   7   8
ENDBRANCH   5   7
ENDBRANCH   1   2
BRANCH   1  18
ATOM     18  C   UNL     1       9.259  10.830  17.839  0.00  0.00    +0.000 C 
BRANCH  18  20
ATOM     19  O   UNL     1       9.253  13.235  17.688  0.00  0.00    +0.000 OA
ATOM     20  C   UNL     1       9.449  12.248  18.375  0.00  0.00    +0.000 C 
ATOM     21  N   UNL     1       9.910  12.312  19.673  0.00  0.00    +0.000 N 
ATOM     22  H   UNL     1       9.926  11.470  20.239  0.00  0.00    +0.000 HD
BRANCH  21  23
ATOM     23  C   UNL     1      10.150  13.576  20.347  0.00  0.00    +0.000 C 
BRANCH  23  24
ATOM     24  C   UNL     1       9.625  13.517  21.755  0.00  0.00    +0.000 A 
ATOM     25  C   UNL     1       9.397  14.703  22.497  0.00  0.00    +0.000 A 
ATOM     26  C   UNL     1       8.652  14.680  23.681  0.00  0.00    +0.000 A 
ATOM     27  C   UNL     1       8.135  13.463  24.065  0.00  0.00    +0.000 A 
ATOM     28  C   UNL     1       8.454  12.293  23.407  0.00  0.00    +0.000 A 
ATOM     29  C   UNL     1       9.206  12.281  22.261  0.00  0.00    +0.000 A 
ATOM     30  O   UNL     1       7.783  11.219  23.910  0.00  0.00    +0.000 OA
ATOM     31  C   UNL     1       6.725  11.941  24.564  0.00  0.00    +0.000 C 
ATOM     32  O   UNL     1       7.159  13.251  24.996  0.00  0.00    +0.000 OA
ENDBRANCH  23  24
ENDBRANCH  21  23
ENDBRANCH  18  20
ENDBRANCH   1  18
TORSDOF 8
ENDMDL
