MODEL 1
REMARK VINA RESULT:      -8.9      0.000      0.000
REMARK  Name = 
REMARK  5 active torsions:
REMARK  status: ('A' for Active; 'I' for Inactive)
REMARK    1  A    between atoms: C_2  and  C_3
REMARK    2  A    between atoms: C_3  and  N_4
REMARK    3  A    between atoms: N_4  and  C_5
REMARK    4  A    between atoms: C_9  and  C_10
REMARK    5  A    between atoms: N_19  and  N_20
REMARK                            x       y       z     vdW  Elec       q    Type
REMARK                         _______ _______ _______ _____ _____    ______ ____
ROOT
ATOM      1  C   UNL     1       1.726   8.669  19.610  0.00  0.00    +0.000 C 
ENDROOT
BRANCH   1   3
ATOM      2  O   UNL     1      -0.125   9.272  21.052  0.00  0.00    +0.000 OA
ATOM      3  C   UNL     1       0.395   9.370  19.942  0.00  0.00    +0.000 C 
ATOM      4  N   UNL     1      -0.102  10.127  18.884  0.00  0.00    +0.000 N 
ATOM      5  H   UNL     1       0.450  10.151  18.034  0.00  0.00    +0.000 HD
BRANCH   4   6
ATOM      6  N   UNL     1      -1.267  10.820  19.016  0.00  0.00    +0.000 NA
ATOM      7  C   UNL     1      -2.203  10.734  18.113  0.00  0.00    +0.000 C 
ATOM      8  C   UNL     1      -2.138   9.871  16.859  0.00  0.00    +0.000 C 
ATOM      9  C   UNL     1      -2.727  10.623  15.678  0.00  0.00    +0.000 C 
ATOM     10  C   UNL     1      -4.191  10.960  15.923  0.00  0.00    +0.000 C 
ATOM     11  C   UNL     1      -4.404  11.603  17.263  0.00  0.00    +0.000 A 
ATOM     12  C   UNL     1      -5.581  12.300  17.516  0.00  0.00    +0.000 A 
ATOM     13  N   UNL     1      -5.870  12.893  18.695  0.00  0.00    +0.000 NA
ATOM     14  C   UNL     1      -4.944  12.794  19.673  0.00  0.00    +0.000 A 
ATOM     15  C   UNL     1      -3.744  12.120  19.530  0.00  0.00    +0.000 A 
ATOM     16  C   UNL     1      -3.474  11.505  18.306  0.00  0.00    +0.000 A 
ENDBRANCH   4   6
ENDBRANCH   1   3
BRANCH   1  17
ATOM     17  N   UNL     1       2.019   7.596  20.581  0.00  0.00    +0.000 N 
ATOM     18  H   UNL     1       2.786   7.862  21.205  0.00  0.00    +0.000 HD
BRANCH  17  19
ATOM     19  C   UNL     1       2.200   6.273  20.159  0.00  0.00    +0.000 A 
ATOM     20  C   UNL     1       1.625   5.273  20.958  0.00  0.00    +0.000 A 
ATOM     21  C   UNL     1       1.634   3.933  20.573  0.00  0.00    +0.000 A 
ATOM     22  C   UNL     1       2.239   3.561  19.379  0.00  0.00    +0.000 A 
ATOM     23  C   UNL     1       2.914   4.512  18.609  0.00  0.00    +0.000 A 
ATOM     24  C   UNL     1       2.834   5.875  18.972  0.00  0.00    +0.000 A 
BRANCH  23  25
ATOM     25  C   UNL     1       3.671   4.133  17.377  0.00  0.00    +0.000 C 
ATOM     26  O   UNL     1       3.005   3.810  16.393  0.00  0.00    +0.000 OA
ATOM     27  N   UNL     1       5.071   4.181  17.336  0.00  0.00    +0.000 N 
ATOM     28  C   UNL     1       5.988   4.626  18.397  0.00  0.00    +0.000 C 
ATOM     29  C   UNL     1       7.135   5.485  17.849  0.00  0.00    +0.000 C 
ATOM     30  O   UNL     1       7.806   4.842  16.763  0.00  0.00    +0.000 OA
ATOM     31  C   UNL     1       6.881   4.582  15.695  0.00  0.00    +0.000 C 
ATOM     32  C   UNL     1       5.764   3.640  16.159  0.00  0.00    +0.000 C 
ENDBRANCH  23  25
ENDBRANCH  17  19
ENDBRANCH   1  17
TORSDOF 5
ENDMDL
MODEL 2
REMARK VINA RESULT:      -8.6      1.815      3.007
REMARK  Name = 
REMARK  5 active torsions:
REMARK  status: ('A' for Active; 'I' for Inactive)
REMARK    1  A    between atoms: C_2  and  C_3
REMARK    2  A    between atoms: C_3  and  N_4
REMARK    3  A    between atoms: N_4  and  C_5
REMARK    4  A    between atoms: C_9  and  C_10
REMARK    5  A    between atoms: N_19  and  N_20
REMARK                            x       y       z     vdW  Elec       q    Type
REMARK                         _______ _______ _______ _____ _____    ______ ____
ROOT
ATOM      1  C   UNL     1       0.982   9.991  21.646  0.00  0.00    +0.000 C 
ENDROOT
BRANCH   1   3
ATOM      2  O   UNL     1      -1.162  10.722  22.506  0.00  0.00    +0.000 OA
ATOM      3  C   UNL     1      -0.431  10.594  21.526  0.00  0.00    +0.000 C 
ATOM      4  N   UNL     1      -0.745  10.993  20.229  0.00  0.00    +0.000 N 
ATOM      5  H   UNL     1      -0.033  10.864  19.521  0.00  0.00    +0.000 HD
BRANCH   4   6
ATOM      6  N   UNL     1      -1.954  11.557  19.952  0.00  0.00    +0.000 NA
ATOM      7  C   UNL     1      -2.608  11.240  18.870  0.00  0.00    +0.000 C 
ATOM      8  C   UNL     1      -2.147  10.229  17.828  0.00  0.00    +0.000 C 
ATOM      9  C   UNL     1      -2.459  10.741  16.432  0.00  0.00    +0.000 C 
ATOM     10  C   UNL     1      -3.957  10.935  16.245  0.00  0.00    +0.000 C 
ATOM     11  C   UNL     1      -4.566  11.724  17.368  0.00  0.00    +0.000 A 
ATOM     12  C   UNL     1      -5.819  12.306  17.204  0.00  0.00    +0.000 A 
ATOM     13  N   UNL     1      -6.454  13.015  18.161  0.00  0.00    +0.000 NA
ATOM     14  C   UNL     1      -5.815  13.158  19.342  0.00  0.00    +0.000 A 
ATOM     15  C   UNL     1      -4.572  12.616  19.614  0.00  0.00    +0.000 A 
ATOM     16  C   UNL     1      -3.941  11.877  18.612  0.00  0.00    +0.000 A 
ENDBRANCH   4   6
ENDBRANCH   1   3
BRANCH   1  17
ATOM     17  N   UNL     1       0.998   8.583  21.202  0.00  0.00    +0.000 N 
ATOM     18  H   UNL     1       1.315   7.963  21.954  0.00  0.00    +0.000 HD
BRANCH  17  19
ATOM     19  C   UNL     1       1.617   8.214  20.002  0.00  0.00    +0.000 A 
ATOM     20  C   UNL     1       1.485   9.106  18.927  0.00  0.00    +0.000 A 
ATOM     21  C   UNL     1       2.159   8.905  17.721  0.00  0.00    +0.000 A 
ATOM     22  C   UNL     1       2.971   7.789  17.562  0.00  0.00    +0.000 A 
ATOM     23  C   UNL     1       3.042   6.824  18.570  0.00  0.00    +0.000 A 
ATOM     24  C   UNL     1       2.415   7.076  19.811  0.00  0.00    +0.000 A 
BRANCH  23  25
ATOM     25  C   UNL     1       3.815   5.556  18.393  0.00  0.00    +0.000 C 
ATOM     26  O   UNL     1       5.028   5.613  18.593  0.00  0.00    +0.000 OA
ATOM     27  N   UNL     1       3.178   4.355  18.051  0.00  0.00    +0.000 N 
ATOM     28  C   UNL     1       1.738   4.120  17.866  0.00  0.00    +0.000 C 
ATOM     29  C   UNL     1       1.283   2.794  18.490  0.00  0.00    +0.000 C 
ATOM     30  O   UNL     1       2.090   1.698  18.052  0.00  0.00    +0.000 OA
ATOM     31  C   UNL     1       3.463   1.922  18.409  0.00  0.00    +0.000 C 
ATOM     32  C   UNL     1       4.005   3.184  17.727  0.00  0.00    +0.000 C 
ENDBRANCH  23  25
ENDBRANCH  17  19
ENDBRANCH   1  17
TORSDOF 5
ENDMDL
MODEL 3
REMARK VINA RESULT:      -8.4      3.399     10.837
REMARK  Name = 
REMARK  5 active torsions:
REMARK  status: ('A' for Active; 'I' for Inactive)
REMARK    1  A    between atoms: C_2  and  C_3
REMARK    2  A    between atoms: C_3  and  N_4
REMARK    3  A    between atoms: N_4  and  C_5
REMARK    4  A    between atoms: C_9  and  C_10
REMARK    5  A    between atoms: N_19  and  N_20
REMARK                            x       y       z     vdW  Elec       q    Type
REMARK                         _______ _______ _______ _____ _____    ______ ____
ROOT
ATOM      1  C   UNL     1       0.095   9.810  18.143  0.00  0.00    +0.000 C 
ENDROOT
BRANCH   1   3
ATOM      2  O   UNL     1       2.419  10.450  17.905  0.00  0.00    +0.000 OA
ATOM      3  C   UNL     1       1.600   9.536  17.959  0.00  0.00    +0.000 C 
ATOM      4  N   UNL     1       1.903   8.177  17.903  0.00  0.00    +0.000 N 
ATOM      5  H   UNL     1       1.132   7.527  17.999  0.00  0.00    +0.000 HD
BRANCH   4   6
ATOM      6  N   UNL     1       3.192   7.762  17.752  0.00  0.00    +0.000 NA
ATOM      7  C   UNL     1       3.514   6.510  17.914  0.00  0.00    +0.000 C 
ATOM      8  C   UNL     1       2.542   5.388  18.252  0.00  0.00    +0.000 C 
ATOM      9  C   UNL     1       3.170   4.439  19.260  0.00  0.00    +0.000 C 
ATOM     10  C   UNL     1       4.426   3.796  18.691  0.00  0.00    +0.000 C 
ATOM     11  C   UNL     1       5.360   4.811  18.098  0.00  0.00    +0.000 A 
ATOM     12  C   UNL     1       6.689   4.475  17.864  0.00  0.00    +0.000 A 
ATOM     13  N   UNL     1       7.596   5.312  17.318  0.00  0.00    +0.000 NA
ATOM     14  C   UNL     1       7.166   6.549  16.988  0.00  0.00    +0.000 A 
ATOM     15  C   UNL     1       5.865   6.985  17.171  0.00  0.00    +0.000 A 
ATOM     16  C   UNL     1       4.944   6.096  17.727  0.00  0.00    +0.000 A 
ENDBRANCH   4   6
ENDBRANCH   1   3
BRANCH   1  17
ATOM     17  N   UNL     1      -0.129  11.038  18.932  0.00  0.00    +0.000 N 
ATOM     18  H   UNL     1       0.633  11.709  18.795  0.00  0.00    +0.000 HD
BRANCH  17  19
ATOM     19  C   UNL     1      -0.452  10.971  20.292  0.00  0.00    +0.000 A 
ATOM     20  C   UNL     1      -0.318   9.718  20.909  0.00  0.00    +0.000 A 
ATOM     21  C   UNL     1      -0.492   9.555  22.284  0.00  0.00    +0.000 A 
ATOM     22  C   UNL     1      -0.823  10.651  23.072  0.00  0.00    +0.000 A 
ATOM     23  C   UNL     1      -1.069  11.892  22.479  0.00  0.00    +0.000 A 
ATOM     24  C   UNL     1      -0.817  12.059  21.099  0.00  0.00    +0.000 A 
BRANCH  23  25
ATOM     25  C   UNL     1      -1.535  13.067  23.279  0.00  0.00    +0.000 C 
ATOM     26  O   UNL     1      -0.665  13.817  23.722  0.00  0.00    +0.000 OA
ATOM     27  N   UNL     1      -2.899  13.319  23.478  0.00  0.00    +0.000 N 
ATOM     28  C   UNL     1      -4.042  12.565  22.942  0.00  0.00    +0.000 C 
ATOM     29  C   UNL     1      -5.167  13.488  22.454  0.00  0.00    +0.000 C 
ATOM     30  O   UNL     1      -5.543  14.438  23.453  0.00  0.00    +0.000 OA
ATOM     31  C   UNL     1      -4.413  15.249  23.815  0.00  0.00    +0.000 C 
ATOM     32  C   UNL     1      -3.292  14.387  24.408  0.00  0.00    +0.000 C 
ENDBRANCH  23  25
ENDBRANCH  17  19
ENDBRANCH   1  17
TORSDOF 5
ENDMDL
MODEL 4
REMARK VINA RESULT:      -8.3      3.492      5.072
REMARK  Name = 
REMARK  5 active torsions:
REMARK  status: ('A' for Active; 'I' for Inactive)
REMARK    1  A    between atoms: C_2  and  C_3
REMARK    2  A    between atoms: C_3  and  N_4
REMARK    3  A    between atoms: N_4  and  C_5
REMARK    4  A    between atoms: C_9  and  C_10
REMARK    5  A    between atoms: N_19  and  N_20
REMARK                            x       y       z     vdW  Elec       q    Type
REMARK                         _______ _______ _______ _____ _____    ______ ____
ROOT
ATOM      1  C   UNL     1      -0.329   8.827  21.833  0.00  0.00    +0.000 C 
ENDROOT
BRANCH   1   3
ATOM      2  O   UNL     1       0.114  10.040  23.883  0.00  0.00    +0.000 OA
ATOM      3  C   UNL     1      -0.396  10.052  22.765  0.00  0.00    +0.000 C 
ATOM      4  N   UNL     1      -1.047  11.140  22.189  0.00  0.00    +0.000 N 
ATOM      5  H   UNL     1      -1.388  11.026  21.242  0.00  0.00    +0.000 HD
BRANCH   4   6
ATOM      6  N   UNL     1      -1.184  12.308  22.877  0.00  0.00    +0.000 NA
ATOM      7  C   UNL     1      -2.311  12.963  22.865  0.00  0.00    +0.000 C 
ATOM      8  C   UNL     1      -3.575  12.525  22.137  0.00  0.00    +0.000 C 
ATOM      9  C   UNL     1      -4.249  13.726  21.494  0.00  0.00    +0.000 C 
ATOM     10  C   UNL     1      -4.660  14.748  22.545  0.00  0.00    +0.000 C 
ATOM     11  C   UNL     1      -3.535  15.071  23.485  0.00  0.00    +0.000 A 
ATOM     12  C   UNL     1      -3.595  16.220  24.267  0.00  0.00    +0.000 A 
ATOM     13  N   UNL     1      -2.643  16.583  25.153  0.00  0.00    +0.000 NA
ATOM     14  C   UNL     1      -1.574  15.767  25.270  0.00  0.00    +0.000 A 
ATOM     15  C   UNL     1      -1.416  14.598  24.548  0.00  0.00    +0.000 A 
ATOM     16  C   UNL     1      -2.420  14.238  23.647  0.00  0.00    +0.000 A 
ENDBRANCH   4   6
ENDBRANCH   1   3
BRANCH   1  17
ATOM     17  N   UNL     1       1.070   8.447  21.554  0.00  0.00    +0.000 N 
ATOM     18  H   UNL     1       1.724   9.049  22.063  0.00  0.00    +0.000 HD
BRANCH  17  19
ATOM     19  C   UNL     1       1.521   8.273  20.240  0.00  0.00    +0.000 A 
ATOM     20  C   UNL     1       1.160   9.265  19.316  0.00  0.00    +0.000 A 
ATOM     21  C   UNL     1       1.652   9.263  18.010  0.00  0.00    +0.000 A 
ATOM     22  C   UNL     1       2.508   8.250  17.597  0.00  0.00    +0.000 A 
ATOM     23  C   UNL     1       2.805   7.188  18.455  0.00  0.00    +0.000 A 
ATOM     24  C   UNL     1       2.361   7.241  19.795  0.00  0.00    +0.000 A 
BRANCH  23  25
ATOM     25  C   UNL     1       3.631   6.024  18.010  0.00  0.00    +0.000 C 
ATOM     26  O   UNL     1       4.848   6.198  17.949  0.00  0.00    +0.000 OA
ATOM     27  N   UNL     1       3.047   4.785  17.715  0.00  0.00    +0.000 N 
ATOM     28  C   UNL     1       1.629   4.408  17.825  0.00  0.00    +0.000 C 
ATOM     29  C   UNL     1       1.447   3.006  18.419  0.00  0.00    +0.000 C 
ATOM     30  O   UNL     1       2.232   2.032  17.728  0.00  0.00    +0.000 OA
ATOM     31  C   UNL     1       3.625   2.379  17.799  0.00  0.00    +0.000 C 
ATOM     32  C   UNL     1       3.883   3.731  17.124  0.00  0.00    +0.000 C 
ENDBRANCH  23  25
ENDBRANCH  17  19
ENDBRANCH   1  17
TORSDOF 5
ENDMDL
MODEL 5
REMARK VINA RESULT:      -8.3      6.998     10.581
REMARK  Name = 
REMARK  5 active torsions:
REMARK  status: ('A' for Active; 'I' for Inactive)
REMARK    1  A    between atoms: C_2  and  C_3
REMARK    2  A    between atoms: C_3  and  N_4
REMARK    3  A    between atoms: N_4  and  C_5
REMARK    4  A    between atoms: C_9  and  C_10
REMARK    5  A    between atoms: N_19  and  N_20
REMARK                            x       y       z     vdW  Elec       q    Type
REMARK                         _______ _______ _______ _____ _____    ______ ____
ROOT
ATOM      1  C   UNL     1       8.344   8.904  17.936  0.00  0.00    +0.000 C 
ENDROOT
BRANCH   1   3
ATOM      2  O   UNL     1       8.129   6.661  18.827  0.00  0.00    +0.000 OA
ATOM      3  C   UNL     1       7.676   7.522  18.076  0.00  0.00    +0.000 C 
ATOM      4  N   UNL     1       6.522   7.394  17.305  0.00  0.00    +0.000 N 
ATOM      5  H   UNL     1       6.240   8.199  16.759  0.00  0.00    +0.000 HD
BRANCH   4   6
ATOM      6  N   UNL     1       5.804   6.236  17.323  0.00  0.00    +0.000 NA
ATOM      7  C   UNL     1       4.511   6.254  17.481  0.00  0.00    +0.000 C 
ATOM      8  C   UNL     1       3.661   7.508  17.637  0.00  0.00    +0.000 C 
ATOM      9  C   UNL     1       2.585   7.282  18.686  0.00  0.00    +0.000 C 
ATOM     10  C   UNL     1       1.654   6.150  18.276  0.00  0.00    +0.000 C 
ATOM     11  C   UNL     1       2.411   4.922  17.859  0.00  0.00    +0.000 A 
ATOM     12  C   UNL     1       1.760   3.695  17.802  0.00  0.00    +0.000 A 
ATOM     13  N   UNL     1       2.351   2.542  17.420  0.00  0.00    +0.000 NA
ATOM     14  C   UNL     1       3.656   2.607  17.080  0.00  0.00    +0.000 A 
ATOM     15  C   UNL     1       4.397   3.776  17.095  0.00  0.00    +0.000 A 
ATOM     16  C   UNL     1       3.760   4.956  17.481  0.00  0.00    +0.000 A 
ENDBRANCH   4   6
ENDBRANCH   1   3
BRANCH   1  17
ATOM     17  N   UNL     1       9.128   9.240  19.141  0.00  0.00    +0.000 N 
ATOM     18  H   UNL     1       8.720   8.813  19.978  0.00  0.00    +0.000 HD
BRANCH  17  19
ATOM     19  C   UNL     1       9.486  10.564  19.420  0.00  0.00    +0.000 A 
ATOM     20  C   UNL     1       9.410  10.967  20.762  0.00  0.00    +0.000 A 
ATOM     21  C   UNL     1       9.856  12.221  21.177  0.00  0.00    +0.000 A 
ATOM     22  C   UNL     1      10.378  13.111  20.245  0.00  0.00    +0.000 A 
ATOM     23  C   UNL     1      10.371  12.788  18.886  0.00  0.00    +0.000 A 
ATOM     24  C   UNL     1       9.985  11.488  18.489  0.00  0.00    +0.000 A 
BRANCH  23  25
ATOM     25  C   UNL     1      10.819  13.761  17.844  0.00  0.00    +0.000 C 
ATOM     26  O   UNL     1      11.122  13.297  16.744  0.00  0.00    +0.000 OA
ATOM     27  N   UNL     1      10.855  15.139  18.099  0.00  0.00    +0.000 N 
ATOM     28  C   UNL     1      10.445  15.839  19.326  0.00  0.00    +0.000 C 
ATOM     29  C   UNL     1       9.667  17.126  19.025  0.00  0.00    +0.000 C 
ATOM     30  O   UNL     1      10.371  17.969  18.109  0.00  0.00    +0.000 OA
ATOM     31  C   UNL     1      10.597  17.274  16.872  0.00  0.00    +0.000 C 
ATOM     32  C   UNL     1      11.461  16.028  17.098  0.00  0.00    +0.000 C 
ENDBRANCH  23  25
ENDBRANCH  17  19
ENDBRANCH   1  17
TORSDOF 5
ENDMDL
MODEL 6
REMARK VINA RESULT:      -8.3      5.730      9.677
REMARK  Name = 
REMARK  5 active torsions:
REMARK  status: ('A' for Active; 'I' for Inactive)
REMARK    1  A    between atoms: C_2  and  C_3
REMARK    2  A    between atoms: C_3  and  N_4
REMARK    3  A    between atoms: N_4  and  C_5
REMARK    4  A    between atoms: C_9  and  C_10
REMARK    5  A    between atoms: N_19  and  N_20
REMARK                            x       y       z     vdW  Elec       q    Type
REMARK                         _______ _______ _______ _____ _____    ______ ____
ROOT
ATOM      1  C   UNL     1       7.864   7.291  18.138  0.00  0.00    +0.000 C 
ENDROOT
BRANCH   1   3
ATOM      2  O   UNL     1       7.182   9.382  17.124  0.00  0.00    +0.000 OA
ATOM      3  C   UNL     1       7.967   8.805  17.873  0.00  0.00    +0.000 C 
ATOM      4  N   UNL     1       8.993   9.416  18.590  0.00  0.00    +0.000 N 
ATOM      5  H   UNL     1       9.542   8.826  19.204  0.00  0.00    +0.000 HD
BRANCH   4   6
ATOM      6  N   UNL     1       9.213  10.755  18.478  0.00  0.00    +0.000 NA
ATOM      7  C   UNL     1       9.412  11.491  19.535  0.00  0.00    +0.000 C 
ATOM      8  C   UNL     1       9.449  10.980  20.969  0.00  0.00    +0.000 C 
ATOM      9  C   UNL     1       8.741  11.959  21.890  0.00  0.00    +0.000 C 
ATOM     10  C   UNL     1       9.429  13.316  21.874  0.00  0.00    +0.000 C 
ATOM     11  C   UNL     1       9.668  13.810  20.476  0.00  0.00    +0.000 A 
ATOM     12  C   UNL     1       9.944  15.155  20.256  0.00  0.00    +0.000 A 
ATOM     13  N   UNL     1      10.191  15.686  19.039  0.00  0.00    +0.000 NA
ATOM     14  C   UNL     1      10.161  14.842  17.985  0.00  0.00    +0.000 A 
ATOM     15  C   UNL     1       9.904  13.487  18.093  0.00  0.00    +0.000 A 
ATOM     16  C   UNL     1       9.663  12.960  19.362  0.00  0.00    +0.000 A 
ENDBRANCH   4   6
ENDBRANCH   1   3
BRANCH   1  17
ATOM     17  N   UNL     1       7.784   6.533  16.873  0.00  0.00    +0.000 N 
ATOM     18  H   UNL     1       7.892   7.153  16.065  0.00  0.00    +0.000 HD
BRANCH  17  19
ATOM     19  C   UNL     1       6.735   5.637  16.636  0.00  0.00    +0.000 A 
ATOM     20  C   UNL     1       6.553   5.218  15.310  0.00  0.00    +0.000 A 
ATOM     21  C   UNL     1       5.622   4.235  14.973  0.00  0.00    +0.000 A 
ATOM     22  C   UNL     1       4.837   3.660  15.965  0.00  0.00    +0.000 A 
ATOM     23  C   UNL     1       4.914   4.126  17.279  0.00  0.00    +0.000 A 
ATOM     24  C   UNL     1       5.911   5.068  17.619  0.00  0.00    +0.000 A 
BRANCH  23  25
ATOM     25  C   UNL     1       4.008   3.611  18.351  0.00  0.00    +0.000 C 
ATOM     26  O   UNL     1       4.211   2.463  18.747  0.00  0.00    +0.000 OA
ATOM     27  N   UNL     1       3.001   4.415  18.904  0.00  0.00    +0.000 N 
ATOM     28  C   UNL     1       2.699   5.820  18.595  0.00  0.00    +0.000 C 
ATOM     29  C   UNL     1       2.383   6.636  19.856  0.00  0.00    +0.000 C 
ATOM     30  O   UNL     1       1.376   6.009  20.653  0.00  0.00    +0.000 OA
ATOM     31  C   UNL     1       1.806   4.699  21.054  0.00  0.00    +0.000 C 
ATOM     32  C   UNL     1       2.038   3.804  19.831  0.00  0.00    +0.000 C 
ENDBRANCH  23  25
ENDBRANCH  17  19
ENDBRANCH   1  17
TORSDOF 5
ENDMDL
MODEL 7
REMARK VINA RESULT:      -8.2      3.428     10.091
REMARK  Name = 
REMARK  5 active torsions:
REMARK  status: ('A' for Active; 'I' for Inactive)
REMARK    1  A    between atoms: C_2  and  C_3
REMARK    2  A    between atoms: C_3  and  N_4
REMARK    3  A    between atoms: N_4  and  C_5
REMARK    4  A    between atoms: C_9  and  C_10
REMARK    5  A    between atoms: N_19  and  N_20
REMARK                            x       y       z     vdW  Elec       q    Type
REMARK                         _______ _______ _______ _____ _____    ______ ____
ROOT
ATOM      1  C   UNL     1       1.471   6.925  20.841  0.00  0.00    +0.000 C 
ENDROOT
BRANCH   1   3
ATOM      2  O   UNL     1       2.372   7.866  18.799  0.00  0.00    +0.000 OA
ATOM      3  C   UNL     1       2.226   6.867  19.499  0.00  0.00    +0.000 C 
ATOM      4  N   UNL     1       2.733   5.602  19.213  0.00  0.00    +0.000 N 
ATOM      5  H   UNL     1       2.572   4.873  19.899  0.00  0.00    +0.000 HD
BRANCH   4   6
ATOM      6  N   UNL     1       3.437   5.381  18.068  0.00  0.00    +0.000 NA
ATOM      7  C   UNL     1       4.713   5.121  18.107  0.00  0.00    +0.000 C 
ATOM      8  C   UNL     1       5.550   5.009  19.375  0.00  0.00    +0.000 C 
ATOM      9  C   UNL     1       6.906   5.662  19.164  0.00  0.00    +0.000 C 
ATOM     10  C   UNL     1       7.676   4.969  18.049  0.00  0.00    +0.000 C 
ATOM     11  C   UNL     1       6.844   4.803  16.810  0.00  0.00    +0.000 A 
ATOM     12  C   UNL     1       7.462   4.533  15.594  0.00  0.00    +0.000 A 
ATOM     13  N   UNL     1       6.798   4.349  14.432  0.00  0.00    +0.000 NA
ATOM     14  C   UNL     1       5.452   4.440  14.476  0.00  0.00    +0.000 A 
ATOM     15  C   UNL     1       4.736   4.698  15.632  0.00  0.00    +0.000 A 
ATOM     16  C   UNL     1       5.445   4.873  16.822  0.00  0.00    +0.000 A 
ENDBRANCH   4   6
ENDBRANCH   1   3
BRANCH   1  17
ATOM     17  N   UNL     1       1.781   8.170  21.573  0.00  0.00    +0.000 N 
ATOM     18  H   UNL     1       2.191   7.966  22.489  0.00  0.00    +0.000 HD
BRANCH  17  19
ATOM     19  C   UNL     1       0.826   9.184  21.704  0.00  0.00    +0.000 A 
ATOM     20  C   UNL     1       0.126   9.237  22.919  0.00  0.00    +0.000 A 
ATOM     21  C   UNL     1      -0.759  10.275  23.211  0.00  0.00    +0.000 A 
ATOM     22  C   UNL     1      -0.975  11.280  22.276  0.00  0.00    +0.000 A 
ATOM     23  C   UNL     1      -0.380  11.205  21.015  0.00  0.00    +0.000 A 
ATOM     24  C   UNL     1       0.570  10.191  20.760  0.00  0.00    +0.000 A 
BRANCH  23  25
ATOM     25  C   UNL     1      -0.675  12.207  19.945  0.00  0.00    +0.000 C 
ATOM     26  O   UNL     1      -1.632  11.968  19.209  0.00  0.00    +0.000 OA
ATOM     27  N   UNL     1       0.083  13.379  19.813  0.00  0.00    +0.000 N 
ATOM     28  C   UNL     1       1.191  13.835  20.665  0.00  0.00    +0.000 C 
ATOM     29  C   UNL     1       1.117  15.340  20.956  0.00  0.00    +0.000 C 
ATOM     30  O   UNL     1       0.983  16.105  19.756  0.00  0.00    +0.000 OA
ATOM     31  C   UNL     1      -0.209  15.717  19.053  0.00  0.00    +0.000 C 
ATOM     32  C   UNL     1      -0.145  14.241  18.645  0.00  0.00    +0.000 C 
ENDBRANCH  23  25
ENDBRANCH  17  19
ENDBRANCH   1  17
TORSDOF 5
ENDMDL
MODEL 8
REMARK VINA RESULT:      -8.2      5.433      9.764
REMARK  Name = 
REMARK  5 active torsions:
REMARK  status: ('A' for Active; 'I' for Inactive)
REMARK    1  A    between atoms: C_2  and  C_3
REMARK    2  A    between atoms: C_3  and  N_4
REMARK    3  A    between atoms: N_4  and  C_5
REMARK    4  A    between atoms: C_9  and  C_10
REMARK    5  A    between atoms: N_19  and  N_20
REMARK                            x       y       z     vdW  Elec       q    Type
REMARK                         _______ _______ _______ _____ _____    ______ ____
ROOT
ATOM      1  C   UNL     1       7.973   6.584  18.733  0.00  0.00    +0.000 C 
ENDROOT
BRANCH   1   3
ATOM      2  O   UNL     1       7.737   8.306  17.044  0.00  0.00    +0.000 OA
ATOM      3  C   UNL     1       8.193   7.990  18.141  0.00  0.00    +0.000 C 
ATOM      4  N   UNL     1       8.908   8.833  18.989  0.00  0.00    +0.000 N 
ATOM      5  H   UNL     1       9.192   8.454  19.885  0.00  0.00    +0.000 HD
BRANCH   4   6
ATOM      6  N   UNL     1       9.180  10.116  18.621  0.00  0.00    +0.000 NA
ATOM      7  C   UNL     1       9.415  11.033  19.517  0.00  0.00    +0.000 C 
ATOM      8  C   UNL     1       9.442  10.806  21.022  0.00  0.00    +0.000 C 
ATOM      9  C   UNL     1       8.778  11.971  21.738  0.00  0.00    +0.000 C 
ATOM     10  C   UNL     1       9.519  13.272  21.461  0.00  0.00    +0.000 C 
ATOM     11  C   UNL     1       9.767  13.477  19.994  0.00  0.00    +0.000 A 
ATOM     12  C   UNL     1      10.094  14.743  19.519  0.00  0.00    +0.000 A 
ATOM     13  N   UNL     1      10.354  15.020  18.223  0.00  0.00    +0.000 NA
ATOM     14  C   UNL     1      10.284  13.991  17.352  0.00  0.00    +0.000 A 
ATOM     15  C   UNL     1       9.974  12.693  17.718  0.00  0.00    +0.000 A 
ATOM     16  C   UNL     1       9.722  12.430  19.065  0.00  0.00    +0.000 A 
ENDBRANCH   4   6
ENDBRANCH   1   3
BRANCH   1  17
ATOM     17  N   UNL     1       7.433   5.659  17.717  0.00  0.00    +0.000 N 
ATOM     18  H   UNL     1       7.667   5.971  16.771  0.00  0.00    +0.000 HD
BRANCH  17  19
ATOM     19  C   UNL     1       6.094   5.251  17.756  0.00  0.00    +0.000 A 
ATOM     20  C   UNL     1       5.658   4.424  16.710  0.00  0.00    +0.000 A 
ATOM     21  C   UNL     1       4.383   3.858  16.706  0.00  0.00    +0.000 A 
ATOM     22  C   UNL     1       3.507   4.124  17.752  0.00  0.00    +0.000 A 
ATOM     23  C   UNL     1       3.866   5.026  18.755  0.00  0.00    +0.000 A 
ATOM     24  C   UNL     1       5.184   5.534  18.786  0.00  0.00    +0.000 A 
BRANCH  23  25
ATOM     25  C   UNL     1       2.911   5.424  19.835  0.00  0.00    +0.000 C 
ATOM     26  O   UNL     1       2.890   4.721  20.845  0.00  0.00    +0.000 OA
ATOM     27  N   UNL     1       2.107   6.566  19.714  0.00  0.00    +0.000 N 
ATOM     28  C   UNL     1       2.086   7.540  18.612  0.00  0.00    +0.000 C 
ATOM     29  C   UNL     1       1.985   8.984  19.119  0.00  0.00    +0.000 C 
ATOM     30  O   UNL     1       0.898   9.150  20.033  0.00  0.00    +0.000 OA
ATOM     31  C   UNL     1       1.067   8.281  21.164  0.00  0.00    +0.000 C 
ATOM     32  C   UNL     1       1.072   6.812  20.727  0.00  0.00    +0.000 C 
ENDBRANCH  23  25
ENDBRANCH  17  19
ENDBRANCH   1  17
TORSDOF 5
ENDMDL
MODEL 9
REMARK VINA RESULT:      -8.2      2.560     10.548
REMARK  Name = 
REMARK  5 active torsions:
REMARK  status: ('A' for Active; 'I' for Inactive)
REMARK    1  A    between atoms: C_2  and  C_3
REMARK    2  A    between atoms: C_3  and  N_4
REMARK    3  A    between atoms: N_4  and  C_5
REMARK    4  A    between atoms: C_9  and  C_10
REMARK    5  A    between atoms: N_19  and  N_20
REMARK                            x       y       z     vdW  Elec       q    Type
REMARK                         _______ _______ _______ _____ _____    ______ ____
ROOT
ATOM      1  C   UNL     1       0.171   9.934  18.382  0.00  0.00    +0.000 C 
ENDROOT
BRANCH   1   3
ATOM      2  O   UNL     1       2.397  10.443  17.574  0.00  0.00    +0.000 OA
ATOM      3  C   UNL     1       1.625   9.590  18.007  0.00  0.00    +0.000 C 
ATOM      4  N   UNL     1       1.950   8.257  18.248  0.00  0.00    +0.000 N 
ATOM      5  H   UNL     1       1.227   7.670  18.644  0.00  0.00    +0.000 HD
BRANCH   4   6
ATOM      6  N   UNL     1       3.202   7.791  17.980  0.00  0.00    +0.000 NA
ATOM      7  C   UNL     1       3.423   6.515  17.834  0.00  0.00    +0.000 C 
ATOM      8  C   UNL     1       2.364   5.424  17.914  0.00  0.00    +0.000 C 
ATOM      9  C   UNL     1       2.914   4.217  18.656  0.00  0.00    +0.000 C 
ATOM     10  C   UNL     1       4.116   3.632  17.928  0.00  0.00    +0.000 C 
ATOM     11  C   UNL     1       5.128   4.684  17.576  0.00  0.00    +0.000 A 
ATOM     12  C   UNL     1       6.426   4.311  17.245  0.00  0.00    +0.000 A 
ATOM     13  N   UNL     1       7.397   5.182  16.896  0.00  0.00    +0.000 NA
ATOM     14  C   UNL     1       7.067   6.491  16.877  0.00  0.00    +0.000 A 
ATOM     15  C   UNL     1       5.805   6.970  17.182  0.00  0.00    +0.000 A 
ATOM     16  C   UNL     1       4.816   6.049  17.528  0.00  0.00    +0.000 A 
ENDBRANCH   4   6
ENDBRANCH   1   3
BRANCH   1  17
ATOM     17  N   UNL     1      -0.749   9.645  17.264  0.00  0.00    +0.000 N 
ATOM     18  H   UNL     1      -0.261   9.685  16.365  0.00  0.00    +0.000 HD
BRANCH  17  19
ATOM     19  C   UNL     1      -1.979  10.305  17.156  0.00  0.00    +0.000 A 
ATOM     20  C   UNL     1      -2.490  10.475  15.860  0.00  0.00    +0.000 A 
ATOM     21  C   UNL     1      -3.761  11.006  15.638  0.00  0.00    +0.000 A 
ATOM     22  C   UNL     1      -4.544  11.397  16.717  0.00  0.00    +0.000 A 
ATOM     23  C   UNL     1      -4.028  11.343  18.014  0.00  0.00    +0.000 A 
ATOM     24  C   UNL     1      -2.772  10.735  18.231  0.00  0.00    +0.000 A 
BRANCH  23  25
ATOM     25  C   UNL     1      -4.797  11.857  19.189  0.00  0.00    +0.000 C 
ATOM     26  O   UNL     1      -5.987  11.548  19.253  0.00  0.00    +0.000 OA
ATOM     27  N   UNL     1      -4.179  12.623  20.187  0.00  0.00    +0.000 N 
ATOM     28  C   UNL     1      -2.760  12.995  20.288  0.00  0.00    +0.000 C 
ATOM     29  C   UNL     1      -2.230  12.876  21.723  0.00  0.00    +0.000 C 
ATOM     30  O   UNL     1      -3.059  13.577  22.652  0.00  0.00    +0.000 OA
ATOM     31  C   UNL     1      -4.396  13.053  22.615  0.00  0.00    +0.000 C 
ATOM     32  C   UNL     1      -5.016  13.239  21.226  0.00  0.00    +0.000 C 
ENDBRANCH  23  25
ENDBRANCH  17  19
ENDBRANCH   1  17
TORSDOF 5
ENDMDL
