MODEL 1
REMARK VINA RESULT:      -8.2      0.000      0.000
REMARK  Name = 
REMARK  13 active torsions:
REMARK  status: ('A' for Active; 'I' for Inactive)
REMARK    1  A    between atoms: C_1  and  O_2
REMARK    2  A    between atoms: O_2  and  C_3
REMARK    3  A    between atoms: C_5  and  C_6
REMARK    4  A    between atoms: C_10  and  C_11
REMARK    5  A    between atoms: C_14  and  N_15
REMARK    6  A    between atoms: N_18  and  C_19
REMARK    7  A    between atoms: C_19  and  C_20
REMARK    8  A    between atoms: C_19  and  C_21
REMARK    9  A    between atoms: C_26  and  C_27
REMARK   10  A    between atoms: C_29  and  O_30
REMARK   11  A    between atoms: O_30  and  C_31
REMARK   12  A    between atoms: C_32  and  O_33
REMARK   13  A    between atoms: O_33  and  C_34
REMARK                            x       y       z     vdW  Elec       q    Type
REMARK                         _______ _______ _______ _____ _____    ______ ____
ROOT
ATOM      1  C   UNL     1       2.279   7.574  19.109  0.00  0.00    +0.000 A 
ATOM      2  C   UNL     1       2.656   8.151  17.892  0.00  0.00    +0.000 A 
ATOM      3  N   UNL     1       2.255   9.360  17.445  0.00  0.00    +0.000 NA
ATOM      4  C   UNL     1       1.448  10.065  18.267  0.00  0.00    +0.000 A 
ATOM      5  C   UNL     1       0.981   9.644  19.517  0.00  0.00    +0.000 A 
ATOM      6  C   UNL     1       1.376   8.335  19.918  0.00  0.00    +0.000 A 
ATOM      7  C   UNL     1       0.815   7.724  21.189  0.00  0.00    +0.000 C 
ENDROOT
BRANCH   1  10
ATOM      8  C   UNL     1       2.233   3.862  19.930  0.00  0.00    +0.000 A 
ATOM      9  C   UNL     1       1.872   5.219  19.909  0.00  0.00    +0.000 A 
ATOM     10  C   UNL     1       2.751   6.210  19.464  0.00  0.00    +0.000 A 
ATOM     11  C   UNL     1       4.086   5.824  19.294  0.00  0.00    +0.000 A 
ATOM     12  C   UNL     1       4.515   4.493  19.468  0.00  0.00    +0.000 A 
ATOM     13  C   UNL     1       3.576   3.480  19.753  0.00  0.00    +0.000 A 
BRANCH   8  15
ATOM     14  C   UNL     1       0.617   2.460  18.943  0.00  0.00    +0.000 C 
ATOM     15  O   UNL     1       1.251   2.924  20.141  0.00  0.00    +0.000 OA
ENDBRANCH   8  15
BRANCH  12  16
ATOM     16  O   UNL     1       5.870   4.383  19.274  0.00  0.00    +0.000 OA
ATOM     17  C   UNL     1       6.424   4.690  18.004  0.00  0.00    +0.000 C 
ENDBRANCH  12  16
BRANCH  13  18
ATOM     18  O   UNL     1       4.060   2.204  19.847  0.00  0.00    +0.000 OA
ATOM     19  C   UNL     1       4.028   1.342  18.721  0.00  0.00    +0.000 C 
ENDBRANCH  13  18
ENDBRANCH   1  10
BRANCH   5  20
ATOM     20  C   UNL     1       0.110  10.544  20.316  0.00  0.00    +0.000 A 
ATOM     21  C   UNL     1      -0.911  11.294  19.716  0.00  0.00    +0.000 A 
ATOM     22  C   UNL     1      -1.757  12.115  20.475  0.00  0.00    +0.000 A 
ATOM     23  C   UNL     1      -1.648  12.199  21.868  0.00  0.00    +0.000 A 
ATOM     24  C   UNL     1      -0.620  11.463  22.465  0.00  0.00    +0.000 A 
ATOM     25  C   UNL     1       0.263  10.689  21.705  0.00  0.00    +0.000 A 
BRANCH  23  26
ATOM     26  N   UNL     1      -2.542  12.957  22.594  0.00  0.00    +0.000 N 
ATOM     27  C   UNL     1      -2.149  14.232  23.216  0.00  0.00    +0.000 C 
ATOM     28  C   UNL     1      -2.885  15.434  22.585  0.00  0.00    +0.000 C 
ATOM     29  N   UNL     1      -4.366  15.290  22.545  0.00  0.00    +0.000 NA
ATOM     30  C   UNL     1      -4.625  14.053  21.758  0.00  0.00    +0.000 C 
ATOM     31  C   UNL     1      -3.982  12.767  22.331  0.00  0.00    +0.000 C 
BRANCH  29  32
ATOM     32  C   UNL     1      -4.980  15.248  23.899  0.00  0.00    +0.000 C 
ATOM     33  C   UNL     1      -4.685  16.522  24.708  0.00  0.00    +0.000 C 
ATOM     34  C   UNL     1      -6.506  15.081  23.833  0.00  0.00    +0.000 C 
ENDBRANCH  29  32
ENDBRANCH  23  26
ENDBRANCH   5  20
TORSDOF 7
ENDMDL
MODEL 2
REMARK VINA RESULT:      -8.1      0.781      1.159
REMARK  Name = 
REMARK  13 active torsions:
REMARK  status: ('A' for Active; 'I' for Inactive)
REMARK    1  A    between atoms: C_1  and  O_2
REMARK    2  A    between atoms: O_2  and  C_3
REMARK    3  A    between atoms: C_5  and  C_6
REMARK    4  A    between atoms: C_10  and  C_11
REMARK    5  A    between atoms: C_14  and  N_15
REMARK    6  A    between atoms: N_18  and  C_19
REMARK    7  A    between atoms: C_19  and  C_20
REMARK    8  A    between atoms: C_19  and  C_21
REMARK    9  A    between atoms: C_26  and  C_27
REMARK   10  A    between atoms: C_29  and  O_30
REMARK   11  A    between atoms: O_30  and  C_31
REMARK   12  A    between atoms: C_32  and  O_33
REMARK   13  A    between atoms: O_33  and  C_34
REMARK                            x       y       z     vdW  Elec       q    Type
REMARK                         _______ _______ _______ _____ _____    ______ ____
ROOT
ATOM      1  C   UNL     1       2.463   7.422  19.028  0.00  0.00    +0.000 A 
ATOM      2  C   UNL     1       2.799   8.033  17.816  0.00  0.00    +0.000 A 
ATOM      3  N   UNL     1       2.337   9.227  17.391  0.00  0.00    +0.000 NA
ATOM      4  C   UNL     1       1.509   9.884  18.231  0.00  0.00    +0.000 A 
ATOM      5  C   UNL     1       1.077   9.425  19.481  0.00  0.00    +0.000 A 
ATOM      6  C   UNL     1       1.536   8.130  19.859  0.00  0.00    +0.000 A 
ATOM      7  C   UNL     1       1.019   7.476  21.127  0.00  0.00    +0.000 C 
ENDROOT
BRANCH   1  10
ATOM      8  C   UNL     1       2.591   3.722  19.893  0.00  0.00    +0.000 A 
ATOM      9  C   UNL     1       2.191   5.068  19.886  0.00  0.00    +0.000 A 
ATOM     10  C   UNL     1       3.002   6.077  19.359  0.00  0.00    +0.000 A 
ATOM     11  C   UNL     1       4.329   5.725  19.085  0.00  0.00    +0.000 A 
ATOM     12  C   UNL     1       4.808   4.409  19.238  0.00  0.00    +0.000 A 
ATOM     13  C   UNL     1       3.925   3.375  19.610  0.00  0.00    +0.000 A 
BRANCH   8  15
ATOM     14  C   UNL     1       1.426   2.588  21.598  0.00  0.00    +0.000 C 
ATOM     15  O   UNL     1       1.657   2.760  20.194  0.00  0.00    +0.000 OA
ENDBRANCH   8  15
BRANCH  12  16
ATOM     16  O   UNL     1       6.145   4.334  18.934  0.00  0.00    +0.000 OA
ATOM     17  C   UNL     1       6.929   5.517  18.919  0.00  0.00    +0.000 C 
ENDBRANCH  12  16
BRANCH  13  18
ATOM     18  O   UNL     1       4.452   2.114  19.679  0.00  0.00    +0.000 OA
ATOM     19  C   UNL     1       4.959   1.616  20.906  0.00  0.00    +0.000 C 
ENDBRANCH  13  18
ENDBRANCH   1  10
BRANCH   5  20
ATOM     20  C   UNL     1       0.175  10.273  20.302  0.00  0.00    +0.000 A 
ATOM     21  C   UNL     1       0.315  10.353  21.694  0.00  0.00    +0.000 A 
ATOM     22  C   UNL     1      -0.513  11.181  22.466  0.00  0.00    +0.000 A 
ATOM     23  C   UNL     1      -1.491  11.995  21.882  0.00  0.00    +0.000 A 
ATOM     24  C   UNL     1      -1.641  11.903  20.495  0.00  0.00    +0.000 A 
ATOM     25  C   UNL     1      -0.858  11.034  19.730  0.00  0.00    +0.000 A 
BRANCH  23  26
ATOM     26  N   UNL     1      -2.239  12.854  22.659  0.00  0.00    +0.000 N 
ATOM     27  C   UNL     1      -1.617  13.952  23.418  0.00  0.00    +0.000 C 
ATOM     28  C   UNL     1      -2.058  15.336  22.894  0.00  0.00    +0.000 C 
ATOM     29  N   UNL     1      -3.533  15.513  22.805  0.00  0.00    +0.000 NA
ATOM     30  C   UNL     1      -4.010  14.439  21.891  0.00  0.00    +0.000 C 
ATOM     31  C   UNL     1      -3.674  12.998  22.345  0.00  0.00    +0.000 C 
BRANCH  29  32
ATOM     32  C   UNL     1      -4.202  15.474  24.133  0.00  0.00    +0.000 C 
ATOM     33  C   UNL     1      -3.728  16.611  25.054  0.00  0.00    +0.000 C 
ATOM     34  C   UNL     1      -5.730  15.581  24.010  0.00  0.00    +0.000 C 
ENDBRANCH  29  32
ENDBRANCH  23  26
ENDBRANCH   5  20
TORSDOF 7
ENDMDL
MODEL 3
REMARK VINA RESULT:      -7.9      0.925      1.636
REMARK  Name = 
REMARK  13 active torsions:
REMARK  status: ('A' for Active; 'I' for Inactive)
REMARK    1  A    between atoms: C_1  and  O_2
REMARK    2  A    between atoms: O_2  and  C_3
REMARK    3  A    between atoms: C_5  and  C_6
REMARK    4  A    between atoms: C_10  and  C_11
REMARK    5  A    between atoms: C_14  and  N_15
REMARK    6  A    between atoms: N_18  and  C_19
REMARK    7  A    between atoms: C_19  and  C_20
REMARK    8  A    between atoms: C_19  and  C_21
REMARK    9  A    between atoms: C_26  and  C_27
REMARK   10  A    between atoms: C_29  and  O_30
REMARK   11  A    between atoms: O_30  and  C_31
REMARK   12  A    between atoms: C_32  and  O_33
REMARK   13  A    between atoms: O_33  and  C_34
REMARK                            x       y       z     vdW  Elec       q    Type
REMARK                         _______ _______ _______ _____ _____    ______ ____
ROOT
ATOM      1  C   UNL     1       2.456   7.545  18.954  0.00  0.00    +0.000 A 
ATOM      2  C   UNL     1       2.869   8.048  17.716  0.00  0.00    +0.000 A 
ATOM      3  N   UNL     1       2.500   9.237  17.196  0.00  0.00    +0.000 NA
ATOM      4  C   UNL     1       1.689  10.001  17.961  0.00  0.00    +0.000 A 
ATOM      5  C   UNL     1       1.189   9.656  19.221  0.00  0.00    +0.000 A 
ATOM      6  C   UNL     1       1.550   8.364  19.701  0.00  0.00    +0.000 A 
ATOM      7  C   UNL     1       0.951   7.833  20.990  0.00  0.00    +0.000 C 
ENDROOT
BRANCH   1  10
ATOM      8  C   UNL     1       2.316   3.904  20.042  0.00  0.00    +0.000 A 
ATOM      9  C   UNL     1       1.999   5.268  19.934  0.00  0.00    +0.000 A 
ATOM     10  C   UNL     1       2.895   6.194  19.393  0.00  0.00    +0.000 A 
ATOM     11  C   UNL     1       4.210   5.751  19.213  0.00  0.00    +0.000 A 
ATOM     12  C   UNL     1       4.601   4.421  19.470  0.00  0.00    +0.000 A 
ATOM     13  C   UNL     1       3.639   3.465  19.854  0.00  0.00    +0.000 A 
BRANCH   8  15
ATOM     14  C   UNL     1       1.263   2.643  21.730  0.00  0.00    +0.000 C 
ATOM     15  O   UNL     1       1.312   3.018  20.348  0.00  0.00    +0.000 OA
ENDBRANCH   8  15
BRANCH  12  16
ATOM     16  O   UNL     1       5.945   4.252  19.245  0.00  0.00    +0.000 OA
ATOM     17  C   UNL     1       6.701   5.310  18.677  0.00  0.00    +0.000 C 
ENDBRANCH  12  16
BRANCH  13  18
ATOM     18  O   UNL     1       4.085   2.183  20.026  0.00  0.00    +0.000 OA
ATOM     19  C   UNL     1       3.956   1.234  18.978  0.00  0.00    +0.000 C 
ENDBRANCH  13  18
ENDBRANCH   1  10
BRANCH   5  20
ATOM     20  C   UNL     1       0.318  10.614  19.951  0.00  0.00    +0.000 A 
ATOM     21  C   UNL     1       0.809  11.386  21.012  0.00  0.00    +0.000 A 
ATOM     22  C   UNL     1      -0.003  12.316  21.677  0.00  0.00    +0.000 A 
ATOM     23  C   UNL     1      -1.329  12.545  21.291  0.00  0.00    +0.000 A 
ATOM     24  C   UNL     1      -1.824  11.764  20.242  0.00  0.00    +0.000 A 
ATOM     25  C   UNL     1      -1.035  10.794  19.616  0.00  0.00    +0.000 A 
BRANCH  23  26
ATOM     26  N   UNL     1      -2.079  13.519  21.916  0.00  0.00    +0.000 N 
ATOM     27  C   UNL     1      -3.521  13.348  22.159  0.00  0.00    +0.000 C 
ATOM     28  C   UNL     1      -3.846  13.271  23.667  0.00  0.00    +0.000 C 
ATOM     29  N   UNL     1      -3.296  14.399  24.468  0.00  0.00    +0.000 NA
ATOM     30  C   UNL     1      -1.823  14.359  24.254  0.00  0.00    +0.000 C 
ATOM     31  C   UNL     1      -1.373  14.487  22.779  0.00  0.00    +0.000 C 
BRANCH  29  32
ATOM     32  C   UNL     1      -3.893  15.712  24.105  0.00  0.00    +0.000 C 
ATOM     33  C   UNL     1      -5.429  15.684  24.160  0.00  0.00    +0.000 C 
ATOM     34  C   UNL     1      -3.414  16.838  25.035  0.00  0.00    +0.000 C 
ENDBRANCH  29  32
ENDBRANCH  23  26
ENDBRANCH   5  20
TORSDOF 7
ENDMDL
MODEL 4
REMARK VINA RESULT:      -7.7      1.111      1.341
REMARK  Name = 
REMARK  13 active torsions:
REMARK  status: ('A' for Active; 'I' for Inactive)
REMARK    1  A    between atoms: C_1  and  O_2
REMARK    2  A    between atoms: O_2  and  C_3
REMARK    3  A    between atoms: C_5  and  C_6
REMARK    4  A    between atoms: C_10  and  C_11
REMARK    5  A    between atoms: C_14  and  N_15
REMARK    6  A    between atoms: N_18  and  C_19
REMARK    7  A    between atoms: C_19  and  C_20
REMARK    8  A    between atoms: C_19  and  C_21
REMARK    9  A    between atoms: C_26  and  C_27
REMARK   10  A    between atoms: C_29  and  O_30
REMARK   11  A    between atoms: O_30  and  C_31
REMARK   12  A    between atoms: C_32  and  O_33
REMARK   13  A    between atoms: O_33  and  C_34
REMARK                            x       y       z     vdW  Elec       q    Type
REMARK                         _______ _______ _______ _____ _____    ______ ____
ROOT
ATOM      1  C   UNL     1       2.100   7.847  19.190  0.00  0.00    +0.000 A 
ATOM      2  C   UNL     1       2.107   8.318  17.873  0.00  0.00    +0.000 A 
ATOM      3  N   UNL     1       1.596   9.499  17.466  0.00  0.00    +0.000 NA
ATOM      4  C   UNL     1       1.068  10.288  18.427  0.00  0.00    +0.000 A 
ATOM      5  C   UNL     1       0.987   9.977  19.789  0.00  0.00    +0.000 A 
ATOM      6  C   UNL     1       1.477   8.692  20.162  0.00  0.00    +0.000 A 
ATOM      7  C   UNL     1       1.311   8.196  21.587  0.00  0.00    +0.000 C 
ENDROOT
BRANCH   1  10
ATOM      8  C   UNL     1       2.267   4.176  20.166  0.00  0.00    +0.000 A 
ATOM      9  C   UNL     1       1.893   5.530  20.159  0.00  0.00    +0.000 A 
ATOM     10  C   UNL     1       2.652   6.502  19.502  0.00  0.00    +0.000 A 
ATOM     11  C   UNL     1       3.929   6.113  19.083  0.00  0.00    +0.000 A 
ATOM     12  C   UNL     1       4.401   4.792  19.225  0.00  0.00    +0.000 A 
ATOM     13  C   UNL     1       3.551   3.791  19.738  0.00  0.00    +0.000 A 
BRANCH   8  15
ATOM     14  C   UNL     1       0.510   2.718  19.586  0.00  0.00    +0.000 C 
ATOM     15  O   UNL     1       1.360   3.246  20.612  0.00  0.00    +0.000 OA
ENDBRANCH   8  15
BRANCH  12  16
ATOM     16  O   UNL     1       5.690   4.678  18.766  0.00  0.00    +0.000 OA
ATOM     17  C   UNL     1       6.713   5.476  19.341  0.00  0.00    +0.000 C 
ENDBRANCH  12  16
BRANCH  13  18
ATOM     18  O   UNL     1       4.060   2.522  19.788  0.00  0.00    +0.000 OA
ATOM     19  C   UNL     1       3.774   1.595  18.753  0.00  0.00    +0.000 C 
ENDBRANCH  13  18
ENDBRANCH   1  10
BRANCH   5  20
ATOM     20  C   UNL     1       0.391  10.959  20.731  0.00  0.00    +0.000 A 
ATOM     21  C   UNL     1       0.867  12.275  20.813  0.00  0.00    +0.000 A 
ATOM     22  C   UNL     1       0.281  13.212  21.675  0.00  0.00    +0.000 A 
ATOM     23  C   UNL     1      -0.828  12.892  22.467  0.00  0.00    +0.000 A 
ATOM     24  C   UNL     1      -1.294  11.576  22.397  0.00  0.00    +0.000 A 
ATOM     25  C   UNL     1      -0.675  10.623  21.583  0.00  0.00    +0.000 A 
BRANCH  23  26
ATOM     26  N   UNL     1      -1.428  13.856  23.250  0.00  0.00    +0.000 N 
ATOM     27  C   UNL     1      -0.770  15.142  23.534  0.00  0.00    +0.000 C 
ATOM     28  C   UNL     1      -1.532  16.330  22.907  0.00  0.00    +0.000 C 
ATOM     29  N   UNL     1      -2.978  16.379  23.254  0.00  0.00    +0.000 NA
ATOM     30  C   UNL     1      -3.547  15.090  22.775  0.00  0.00    +0.000 C 
ATOM     31  C   UNL     1      -2.898  13.823  23.382  0.00  0.00    +0.000 C 
BRANCH  29  32
ATOM     32  C   UNL     1      -3.218  16.608  24.704  0.00  0.00    +0.000 C 
ATOM     33  C   UNL     1      -2.420  17.808  25.240  0.00  0.00    +0.000 C 
ATOM     34  C   UNL     1      -4.703  16.863  25.007  0.00  0.00    +0.000 C 
ENDBRANCH  29  32
ENDBRANCH  23  26
ENDBRANCH   5  20
TORSDOF 7
ENDMDL
MODEL 5
REMARK VINA RESULT:      -7.5      2.662      4.116
REMARK  Name = 
REMARK  13 active torsions:
REMARK  status: ('A' for Active; 'I' for Inactive)
REMARK    1  A    between atoms: C_1  and  O_2
REMARK    2  A    between atoms: O_2  and  C_3
REMARK    3  A    between atoms: C_5  and  C_6
REMARK    4  A    between atoms: C_10  and  C_11
REMARK    5  A    between atoms: C_14  and  N_15
REMARK    6  A    between atoms: N_18  and  C_19
REMARK    7  A    between atoms: C_19  and  C_20
REMARK    8  A    between atoms: C_19  and  C_21
REMARK    9  A    between atoms: C_26  and  C_27
REMARK   10  A    between atoms: C_29  and  O_30
REMARK   11  A    between atoms: O_30  and  C_31
REMARK   12  A    between atoms: C_32  and  O_33
REMARK   13  A    between atoms: O_33  and  C_34
REMARK                            x       y       z     vdW  Elec       q    Type
REMARK                         _______ _______ _______ _____ _____    ______ ____
ROOT
ATOM      1  C   UNL     1       2.517   6.782  19.060  0.00  0.00    +0.000 A 
ATOM      2  C   UNL     1       2.127   6.148  20.245  0.00  0.00    +0.000 A 
ATOM      3  N   UNL     1       1.385   6.710  21.221  0.00  0.00    +0.000 NA
ATOM      4  C   UNL     1       0.969   7.977  21.005  0.00  0.00    +0.000 A 
ATOM      5  C   UNL     1       1.259   8.753  19.877  0.00  0.00    +0.000 A 
ATOM      6  C   UNL     1       2.101   8.143  18.903  0.00  0.00    +0.000 A 
ATOM      7  C   UNL     1       2.592   8.941  17.710  0.00  0.00    +0.000 C 
ENDROOT
BRANCH   1  10
ATOM      8  C   UNL     1       5.446   5.988  16.770  0.00  0.00    +0.000 A 
ATOM      9  C   UNL     1       4.435   6.708  17.427  0.00  0.00    +0.000 A 
ATOM     10  C   UNL     1       3.380   6.068  18.083  0.00  0.00    +0.000 A 
ATOM     11  C   UNL     1       3.233   4.699  17.830  0.00  0.00    +0.000 A 
ATOM     12  C   UNL     1       4.145   3.976  17.035  0.00  0.00    +0.000 A 
ATOM     13  C   UNL     1       5.294   4.612  16.524  0.00  0.00    +0.000 A 
BRANCH   8  15
ATOM     14  C   UNL     1       7.336   7.228  17.436  0.00  0.00    +0.000 C 
ATOM     15  O   UNL     1       6.573   6.661  16.363  0.00  0.00    +0.000 OA
ENDBRANCH   8  15
BRANCH  12  16
ATOM     16  O   UNL     1       3.760   2.663  16.917  0.00  0.00    +0.000 OA
ATOM     17  C   UNL     1       3.104   2.023  18.001  0.00  0.00    +0.000 C 
ENDBRANCH  12  16
BRANCH  13  18
ATOM     18  O   UNL     1       6.163   3.829  15.814  0.00  0.00    +0.000 OA
ATOM     19  C   UNL     1       6.172   3.875  14.396  0.00  0.00    +0.000 C 
ENDBRANCH  13  18
ENDBRANCH   1  10
BRANCH   5  20
ATOM     20  C   UNL     1       0.712  10.131  19.775  0.00  0.00    +0.000 A 
ATOM     21  C   UNL     1      -0.227  10.473  18.792  0.00  0.00    +0.000 A 
ATOM     22  C   UNL     1      -0.770  11.763  18.718  0.00  0.00    +0.000 A 
ATOM     23  C   UNL     1      -0.431  12.760  19.641  0.00  0.00    +0.000 A 
ATOM     24  C   UNL     1       0.517  12.423  20.612  0.00  0.00    +0.000 A 
ATOM     25  C   UNL     1       1.105  11.156  20.652  0.00  0.00    +0.000 A 
BRANCH  23  26
ATOM     26  N   UNL     1      -1.038  13.997  19.587  0.00  0.00    +0.000 N 
ATOM     27  C   UNL     1      -1.979  14.444  20.627  0.00  0.00    +0.000 C 
ATOM     28  C   UNL     1      -1.429  15.648  21.423  0.00  0.00    +0.000 C 
ATOM     29  N   UNL     1      -0.984  16.788  20.576  0.00  0.00    +0.000 NA
ATOM     30  C   UNL     1       0.070  16.233  19.683  0.00  0.00    +0.000 C 
ATOM     31  C   UNL     1      -0.383  15.053  18.790  0.00  0.00    +0.000 C 
BRANCH  29  32
ATOM     32  C   UNL     1      -2.101  17.419  19.822  0.00  0.00    +0.000 C 
ATOM     33  C   UNL     1      -3.140  18.059  20.756  0.00  0.00    +0.000 C 
ATOM     34  C   UNL     1      -1.601  18.510  18.863  0.00  0.00    +0.000 C 
ENDBRANCH  29  32
ENDBRANCH  23  26
ENDBRANCH   5  20
TORSDOF 7
ENDMDL
MODEL 6
REMARK VINA RESULT:      -7.3      0.793      2.324
REMARK  Name = 
REMARK  13 active torsions:
REMARK  status: ('A' for Active; 'I' for Inactive)
REMARK    1  A    between atoms: C_1  and  O_2
REMARK    2  A    between atoms: O_2  and  C_3
REMARK    3  A    between atoms: C_5  and  C_6
REMARK    4  A    between atoms: C_10  and  C_11
REMARK    5  A    between atoms: C_14  and  N_15
REMARK    6  A    between atoms: N_18  and  C_19
REMARK    7  A    between atoms: C_19  and  C_20
REMARK    8  A    between atoms: C_19  and  C_21
REMARK    9  A    between atoms: C_26  and  C_27
REMARK   10  A    between atoms: C_29  and  O_30
REMARK   11  A    between atoms: O_30  and  C_31
REMARK   12  A    between atoms: C_32  and  O_33
REMARK   13  A    between atoms: O_33  and  C_34
REMARK                            x       y       z     vdW  Elec       q    Type
REMARK                         _______ _______ _______ _____ _____    ______ ____
ROOT
ATOM      1  C   UNL     1       2.512   7.491  18.837  0.00  0.00    +0.000 A 
ATOM      2  C   UNL     1       2.864   8.151  17.656  0.00  0.00    +0.000 A 
ATOM      3  N   UNL     1       2.406   9.362  17.274  0.00  0.00    +0.000 NA
ATOM      4  C   UNL     1       1.564   9.982  18.128  0.00  0.00    +0.000 A 
ATOM      5  C   UNL     1       1.115   9.471  19.351  0.00  0.00    +0.000 A 
ATOM      6  C   UNL     1       1.572   8.163  19.682  0.00  0.00    +0.000 A 
ATOM      7  C   UNL     1       1.038   7.456  20.915  0.00  0.00    +0.000 C 
ENDROOT
BRANCH   1  10
ATOM      8  C   UNL     1       4.894   4.531  18.968  0.00  0.00    +0.000 A 
ATOM      9  C   UNL     1       4.194   5.648  18.484  0.00  0.00    +0.000 A 
ATOM     10  C   UNL     1       3.049   6.134  19.121  0.00  0.00    +0.000 A 
ATOM     11  C   UNL     1       2.484   5.306  20.098  0.00  0.00    +0.000 A 
ATOM     12  C   UNL     1       3.078   4.091  20.493  0.00  0.00    +0.000 A 
ATOM     13  C   UNL     1       4.323   3.705  19.954  0.00  0.00    +0.000 A 
BRANCH   8  15
ATOM     14  C   UNL     1       6.342   4.769  17.125  0.00  0.00    +0.000 C 
ATOM     15  O   UNL     1       6.136   4.257  18.447  0.00  0.00    +0.000 OA
ENDBRANCH   8  15
BRANCH  12  16
ATOM     16  O   UNL     1       2.314   3.455  21.441  0.00  0.00    +0.000 OA
ATOM     17  C   UNL     1       1.172   2.715  21.040  0.00  0.00    +0.000 C 
ENDBRANCH  12  16
BRANCH  13  18
ATOM     18  O   UNL     1       4.864   2.544  20.433  0.00  0.00    +0.000 OA
ATOM     19  C   UNL     1       4.604   1.311  19.780  0.00  0.00    +0.000 C 
ENDBRANCH  13  18
ENDBRANCH   1  10
BRANCH   5  20
ATOM     20  C   UNL     1       0.199  10.283  20.194  0.00  0.00    +0.000 A 
ATOM     21  C   UNL     1       0.393  10.405  21.576  0.00  0.00    +0.000 A 
ATOM     22  C   UNL     1      -0.449  11.200  22.365  0.00  0.00    +0.000 A 
ATOM     23  C   UNL     1      -1.499  11.940  21.808  0.00  0.00    +0.000 A 
ATOM     24  C   UNL     1      -1.702  11.807  20.432  0.00  0.00    +0.000 A 
ATOM     25  C   UNL     1      -0.901  10.968  19.651  0.00  0.00    +0.000 A 
BRANCH  23  26
ATOM     26  N   UNL     1      -2.264  12.771  22.600  0.00  0.00    +0.000 N 
ATOM     27  C   UNL     1      -1.661  13.858  23.389  0.00  0.00    +0.000 C 
ATOM     28  C   UNL     1      -2.115  15.249  22.895  0.00  0.00    +0.000 C 
ATOM     29  N   UNL     1      -3.591  15.410  22.798  0.00  0.00    +0.000 NA
ATOM     30  C   UNL     1      -4.047  14.353  21.855  0.00  0.00    +0.000 C 
ATOM     31  C   UNL     1      -3.698  12.905  22.277  0.00  0.00    +0.000 C 
BRANCH  29  32
ATOM     32  C   UNL     1      -4.270  15.332  24.119  0.00  0.00    +0.000 C 
ATOM     33  C   UNL     1      -3.799  16.436  25.079  0.00  0.00    +0.000 C 
ATOM     34  C   UNL     1      -5.798  15.448  23.988  0.00  0.00    +0.000 C 
ENDBRANCH  29  32
ENDBRANCH  23  26
ENDBRANCH   5  20
TORSDOF 7
ENDMDL
MODEL 7
REMARK VINA RESULT:      -7.2      4.488     10.984
REMARK  Name = 
REMARK  13 active torsions:
REMARK  status: ('A' for Active; 'I' for Inactive)
REMARK    1  A    between atoms: C_1  and  O_2
REMARK    2  A    between atoms: O_2  and  C_3
REMARK    3  A    between atoms: C_5  and  C_6
REMARK    4  A    between atoms: C_10  and  C_11
REMARK    5  A    between atoms: C_14  and  N_15
REMARK    6  A    between atoms: N_18  and  C_19
REMARK    7  A    between atoms: C_19  and  C_20
REMARK    8  A    between atoms: C_19  and  C_21
REMARK    9  A    between atoms: C_26  and  C_27
REMARK   10  A    between atoms: C_29  and  O_30
REMARK   11  A    between atoms: O_30  and  C_31
REMARK   12  A    between atoms: C_32  and  O_33
REMARK   13  A    between atoms: O_33  and  C_34
REMARK                            x       y       z     vdW  Elec       q    Type
REMARK                         _______ _______ _______ _____ _____    ______ ____
ROOT
ATOM      1  C   UNL     1      -1.360  13.038  20.219  0.00  0.00    +0.000 A 
ATOM      2  C   UNL     1      -0.810  13.969  19.333  0.00  0.00    +0.000 A 
ATOM      3  N   UNL     1       0.247  13.744  18.524  0.00  0.00    +0.000 NA
ATOM      4  C   UNL     1       0.783  12.505  18.568  0.00  0.00    +0.000 A 
ATOM      5  C   UNL     1       0.355  11.456  19.387  0.00  0.00    +0.000 A 
ATOM      6  C   UNL     1      -0.720  11.758  20.272  0.00  0.00    +0.000 A 
ATOM      7  C   UNL     1      -1.172  10.739  21.302  0.00  0.00    +0.000 C 
ENDROOT
BRANCH   1  10
ATOM      8  C   UNL     1      -4.766  12.991  21.908  0.00  0.00    +0.000 A 
ATOM      9  C   UNL     1      -3.779  12.900  20.913  0.00  0.00    +0.000 A 
ATOM     10  C   UNL     1      -2.497  13.425  21.096  0.00  0.00    +0.000 A 
ATOM     11  C   UNL     1      -2.324  14.271  22.197  0.00  0.00    +0.000 A 
ATOM     12  C   UNL     1      -3.352  14.515  23.130  0.00  0.00    +0.000 A 
ATOM     13  C   UNL     1      -4.584  13.840  23.016  0.00  0.00    +0.000 A 
BRANCH   8  15
ATOM     14  C   UNL     1      -6.859  12.800  20.843  0.00  0.00    +0.000 C 
ATOM     15  O   UNL     1      -5.913  12.247  21.766  0.00  0.00    +0.000 OA
ENDBRANCH   8  15
BRANCH  12  16
ATOM     16  O   UNL     1      -2.940  15.401  24.096  0.00  0.00    +0.000 OA
ATOM     17  C   UNL     1      -1.767  15.126  24.846  0.00  0.00    +0.000 C 
ENDBRANCH  12  16
BRANCH  13  18
ATOM     18  O   UNL     1      -5.509  14.082  23.994  0.00  0.00    +0.000 OA
ATOM     19  C   UNL     1      -6.479  15.103  23.824  0.00  0.00    +0.000 C 
ENDBRANCH  13  18
ENDBRANCH   1  10
BRANCH   5  20
ATOM     20  C   UNL     1       1.038  10.138  19.309  0.00  0.00    +0.000 A 
ATOM     21  C   UNL     1       1.146   9.304  20.430  0.00  0.00    +0.000 A 
ATOM     22  C   UNL     1       1.759   8.046  20.349  0.00  0.00    +0.000 A 
ATOM     23  C   UNL     1       2.258   7.546  19.140  0.00  0.00    +0.000 A 
ATOM     24  C   UNL     1       2.164   8.384  18.025  0.00  0.00    +0.000 A 
ATOM     25  C   UNL     1       1.608   9.664  18.116  0.00  0.00    +0.000 A 
BRANCH  23  26
ATOM     26  N   UNL     1       2.788   6.275  19.076  0.00  0.00    +0.000 N 
ATOM     27  C   UNL     1       3.028   5.475  20.289  0.00  0.00    +0.000 C 
ATOM     28  C   UNL     1       2.127   4.222  20.341  0.00  0.00    +0.000 C 
ATOM     29  N   UNL     1       2.187   3.375  19.118  0.00  0.00    +0.000 NA
ATOM     30  C   UNL     1       1.774   4.263  17.997  0.00  0.00    +0.000 C 
ATOM     31  C   UNL     1       2.644   5.529  17.810  0.00  0.00    +0.000 C 
BRANCH  29  32
ATOM     32  C   UNL     1       3.526   2.765  18.902  0.00  0.00    +0.000 C 
ATOM     33  C   UNL     1       4.133   2.225  20.207  0.00  0.00    +0.000 C 
ATOM     34  C   UNL     1       3.473   1.603  17.897  0.00  0.00    +0.000 C 
ENDBRANCH  29  32
ENDBRANCH  23  26
ENDBRANCH   5  20
TORSDOF 7
ENDMDL
MODEL 8
REMARK VINA RESULT:      -7.2      0.441      2.180
REMARK  Name = 
REMARK  13 active torsions:
REMARK  status: ('A' for Active; 'I' for Inactive)
REMARK    1  A    between atoms: C_1  and  O_2
REMARK    2  A    between atoms: O_2  and  C_3
REMARK    3  A    between atoms: C_5  and  C_6
REMARK    4  A    between atoms: C_10  and  C_11
REMARK    5  A    between atoms: C_14  and  N_15
REMARK    6  A    between atoms: N_18  and  C_19
REMARK    7  A    between atoms: C_19  and  C_20
REMARK    8  A    between atoms: C_19  and  C_21
REMARK    9  A    between atoms: C_26  and  C_27
REMARK   10  A    between atoms: C_29  and  O_30
REMARK   11  A    between atoms: O_30  and  C_31
REMARK   12  A    between atoms: C_32  and  O_33
REMARK   13  A    between atoms: O_33  and  C_34
REMARK                            x       y       z     vdW  Elec       q    Type
REMARK                         _______ _______ _______ _____ _____    ______ ____
ROOT
ATOM      1  C   UNL     1       2.368   7.643  18.771  0.00  0.00    +0.000 A 
ATOM      2  C   UNL     1       2.788   8.286  17.602  0.00  0.00    +0.000 A 
ATOM      3  N   UNL     1       2.426   9.530  17.225  0.00  0.00    +0.000 NA
ATOM      4  C   UNL     1       1.615  10.202  18.071  0.00  0.00    +0.000 A 
ATOM      5  C   UNL     1       1.109   9.714  19.280  0.00  0.00    +0.000 A 
ATOM      6  C   UNL     1       1.463   8.373  19.606  0.00  0.00    +0.000 A 
ATOM      7  C   UNL     1       0.857   7.696  20.822  0.00  0.00    +0.000 C 
ENDROOT
BRANCH   1  10
ATOM      8  C   UNL     1       4.588   4.678  19.631  0.00  0.00    +0.000 A 
ATOM      9  C   UNL     1       4.148   5.882  19.056  0.00  0.00    +0.000 A 
ATOM     10  C   UNL     1       2.800   6.247  19.049  0.00  0.00    +0.000 A 
ATOM     11  C   UNL     1       1.885   5.248  19.400  0.00  0.00    +0.000 A 
ATOM     12  C   UNL     1       2.292   3.968  19.827  0.00  0.00    +0.000 A 
ATOM     13  C   UNL     1       3.663   3.680  19.986  0.00  0.00    +0.000 A 
BRANCH   8  15
ATOM     14  C   UNL     1       6.753   5.530  19.259  0.00  0.00    +0.000 C 
ATOM     15  O   UNL     1       5.936   4.496  19.823  0.00  0.00    +0.000 OA
ENDBRANCH   8  15
BRANCH  12  16
ATOM     16  O   UNL     1       1.206   3.166  20.080  0.00  0.00    +0.000 OA
ATOM     17  C   UNL     1       0.704   2.321  19.056  0.00  0.00    +0.000 C 
ENDBRANCH  12  16
BRANCH  13  18
ATOM     18  O   UNL     1       3.976   2.436  20.463  0.00  0.00    +0.000 OA
ATOM     19  C   UNL     1       4.377   1.408  19.571  0.00  0.00    +0.000 C 
ENDBRANCH  13  18
ENDBRANCH   1  10
BRANCH   5  20
ATOM     20  C   UNL     1       0.239  10.583  20.115  0.00  0.00    +0.000 A 
ATOM     21  C   UNL     1      -0.898  11.205  19.582  0.00  0.00    +0.000 A 
ATOM     22  C   UNL     1      -1.739  11.996  20.378  0.00  0.00    +0.000 A 
ATOM     23  C   UNL     1      -1.506  12.172  21.747  0.00  0.00    +0.000 A 
ATOM     24  C   UNL     1      -0.364  11.564  22.275  0.00  0.00    +0.000 A 
ATOM     25  C   UNL     1       0.509  10.824  21.472  0.00  0.00    +0.000 A 
BRANCH  23  26
ATOM     26  N   UNL     1      -2.393  12.894  22.518  0.00  0.00    +0.000 N 
ATOM     27  C   UNL     1      -1.964  14.071  23.293  0.00  0.00    +0.000 C 
ATOM     28  C   UNL     1      -2.612  15.372  22.771  0.00  0.00    +0.000 C 
ATOM     29  N   UNL     1      -4.095  15.313  22.660  0.00  0.00    +0.000 NA
ATOM     30  C   UNL     1      -4.381  14.185  21.732  0.00  0.00    +0.000 C 
ATOM     31  C   UNL     1      -3.828  12.811  22.182  0.00  0.00    +0.000 C 
BRANCH  29  32
ATOM     32  C   UNL     1      -4.769  15.157  23.977  0.00  0.00    +0.000 C 
ATOM     33  C   UNL     1      -4.465  16.329  24.924  0.00  0.00    +0.000 C 
ATOM     34  C   UNL     1      -6.296  15.057  23.833  0.00  0.00    +0.000 C 
ENDBRANCH  29  32
ENDBRANCH  23  26
ENDBRANCH   5  20
TORSDOF 7
ENDMDL
MODEL 9
REMARK VINA RESULT:      -7.2      1.000      1.308
REMARK  Name = 
REMARK  13 active torsions:
REMARK  status: ('A' for Active; 'I' for Inactive)
REMARK    1  A    between atoms: C_1  and  O_2
REMARK    2  A    between atoms: O_2  and  C_3
REMARK    3  A    between atoms: C_5  and  C_6
REMARK    4  A    between atoms: C_10  and  C_11
REMARK    5  A    between atoms: C_14  and  N_15
REMARK    6  A    between atoms: N_18  and  C_19
REMARK    7  A    between atoms: C_19  and  C_20
REMARK    8  A    between atoms: C_19  and  C_21
REMARK    9  A    between atoms: C_26  and  C_27
REMARK   10  A    between atoms: C_29  and  O_30
REMARK   11  A    between atoms: O_30  and  C_31
REMARK   12  A    between atoms: C_32  and  O_33
REMARK   13  A    between atoms: O_33  and  C_34
REMARK                            x       y       z     vdW  Elec       q    Type
REMARK                         _______ _______ _______ _____ _____    ______ ____
ROOT
ATOM      1  C   UNL     1       2.325   7.589  18.967  0.00  0.00    +0.000 A 
ATOM      2  C   UNL     1       2.582   8.000  17.656  0.00  0.00    +0.000 A 
ATOM      3  N   UNL     1       2.240   9.196  17.133  0.00  0.00    +0.000 NA
ATOM      4  C   UNL     1       1.628  10.063  17.969  0.00  0.00    +0.000 A 
ATOM      5  C   UNL     1       1.303   9.819  19.308  0.00  0.00    +0.000 A 
ATOM      6  C   UNL     1       1.622   8.520  19.797  0.00  0.00    +0.000 A 
ATOM      7  C   UNL     1       1.188   8.100  21.190  0.00  0.00    +0.000 C 
ENDROOT
BRANCH   1  10
ATOM      8  C   UNL     1       2.050   3.930  19.962  0.00  0.00    +0.000 A 
ATOM      9  C   UNL     1       1.762   5.301  19.861  0.00  0.00    +0.000 A 
ATOM     10  C   UNL     1       2.710   6.222  19.408  0.00  0.00    +0.000 A 
ATOM     11  C   UNL     1       4.028   5.761  19.316  0.00  0.00    +0.000 A 
ATOM     12  C   UNL     1       4.378   4.420  19.573  0.00  0.00    +0.000 A 
ATOM     13  C   UNL     1       3.376   3.472  19.864  0.00  0.00    +0.000 A 
BRANCH   8  15
ATOM     14  C   UNL     1       0.514   2.436  18.982  0.00  0.00    +0.000 C 
ATOM     15  O   UNL     1       1.012   3.054  20.174  0.00  0.00    +0.000 OA
ENDBRANCH   8  15
BRANCH  12  16
ATOM     16  O   UNL     1       5.733   4.232  19.444  0.00  0.00    +0.000 OA
ATOM     17  C   UNL     1       6.477   5.067  18.571  0.00  0.00    +0.000 C 
ENDBRANCH  12  16
BRANCH  13  18
ATOM     18  O   UNL     1       3.788   2.179  20.040  0.00  0.00    +0.000 OA
ATOM     19  C   UNL     1       3.972   1.328  18.920  0.00  0.00    +0.000 C 
ENDBRANCH  13  18
ENDBRANCH   1  10
BRANCH   5  20
ATOM     20  C   UNL     1       0.642  10.883  20.107  0.00  0.00    +0.000 A 
ATOM     21  C   UNL     1      -0.646  10.709  20.632  0.00  0.00    +0.000 A 
ATOM     22  C   UNL     1      -1.255  11.698  21.417  0.00  0.00    +0.000 A 
ATOM     23  C   UNL     1      -0.595  12.888  21.746  0.00  0.00    +0.000 A 
ATOM     24  C   UNL     1       0.683  13.068  21.210  0.00  0.00    +0.000 A 
ATOM     25  C   UNL     1       1.270  12.110  20.378  0.00  0.00    +0.000 A 
BRANCH  23  26
ATOM     26  N   UNL     1      -1.192  13.809  22.581  0.00  0.00    +0.000 N 
ATOM     27  C   UNL     1      -1.635  15.125  22.092  0.00  0.00    +0.000 C 
ATOM     28  C   UNL     1      -3.170  15.278  22.158  0.00  0.00    +0.000 C 
ATOM     29  N   UNL     1      -3.757  14.976  23.491  0.00  0.00    +0.000 NA
ATOM     30  C   UNL     1      -3.364  13.571  23.791  0.00  0.00    +0.000 C 
ATOM     31  C   UNL     1      -1.838  13.309  23.810  0.00  0.00    +0.000 C 
BRANCH  29  32
ATOM     32  C   UNL     1      -3.321  15.931  24.545  0.00  0.00    +0.000 C 
ATOM     33  C   UNL     1      -4.460  16.864  24.987  0.00  0.00    +0.000 C 
ATOM     34  C   UNL     1      -2.800  15.206  25.797  0.00  0.00    +0.000 C 
ENDBRANCH  29  32
ENDBRANCH  23  26
ENDBRANCH   5  20
TORSDOF 7
ENDMDL
