MODEL 1
REMARK VINA RESULT:      -6.3      0.000      0.000
REMARK  Name = 
REMARK  6 active torsions:
REMARK  status: ('A' for Active; 'I' for Inactive)
REMARK    1  A    between atoms: C_1  and  C_2
REMARK    2  A    between atoms: C_2  and  C_3
REMARK    3  A    between atoms: C_3  and  C_4
REMARK    4  A    between atoms: C_4  and  C_5
REMARK    5  A    between atoms: C_5  and  C_6
REMARK    6  A    between atoms: N_8  and  C_9
REMARK                            x       y       z     vdW  Elec       q    Type
REMARK                         _______ _______ _______ _____ _____    ______ ____
ROOT
ATOM      1  C   UNL     1       2.896   5.161  18.097  0.00  0.00    +0.000 C 
ATOM      2  O   UNL     1       2.784   6.237  18.661  0.00  0.00    +0.000 OA
ATOM      3  N   UNL     1       4.111   4.598  17.710  0.00  0.00    +0.000 N 
ATOM      4  H   UNL     1       4.078   3.993  16.901  0.00  0.00    +0.000 HD
ENDROOT
BRANCH   3   5
ATOM      5  C   UNL     1       5.322   5.274  17.974  0.00  0.00    +0.000 A 
ATOM      6  C   UNL     1       5.988   5.030  19.185  0.00  0.00    +0.000 A 
ATOM      7  C   UNL     1       7.225   5.609  19.446  0.00  0.00    +0.000 A 
ATOM      8  C   UNL     1       7.823   6.449  18.505  0.00  0.00    +0.000 A 
ATOM      9  C   UNL     1       7.154   6.731  17.311  0.00  0.00    +0.000 A 
ATOM     10  C   UNL     1       5.910   6.159  17.052  0.00  0.00    +0.000 A 
ATOM     11 CL   UNL     1       5.062   6.701  15.644  0.00  0.00    +0.000 Cl
ENDBRANCH   3   5
BRANCH   1  12
ATOM     12  C   UNL     1       1.680   4.336  17.705  0.00  0.00    +0.000 C 
BRANCH  12  13
ATOM     13  C   UNL     1       1.405   3.261  18.756  0.00  0.00    +0.000 C 
BRANCH  13  14
ATOM     14  C   UNL     1       0.888   3.825  20.077  0.00  0.00    +0.000 C 
BRANCH  14  16
ATOM     15  C   UNL     1       2.843   2.739  21.249  0.00  0.00    +0.000 C 
ATOM     16  C   UNL     1       1.338   2.943  21.245  0.00  0.00    +0.000 C 
ENDBRANCH  14  16
ENDBRANCH  13  14
ENDBRANCH  12  13
ENDBRANCH   1  12
TORSDOF 5
ENDMDL
MODEL 2
REMARK VINA RESULT:      -6.2      1.520      2.103
REMARK  Name = 
REMARK  6 active torsions:
REMARK  status: ('A' for Active; 'I' for Inactive)
REMARK    1  A    between atoms: C_1  and  C_2
REMARK    2  A    between atoms: C_2  and  C_3
REMARK    3  A    between atoms: C_3  and  C_4
REMARK    4  A    between atoms: C_4  and  C_5
REMARK    5  A    between atoms: C_5  and  C_6
REMARK    6  A    between atoms: N_8  and  C_9
REMARK                            x       y       z     vdW  Elec       q    Type
REMARK                         _______ _______ _______ _____ _____    ______ ____
ROOT
ATOM      1  C   UNL     1       4.696   3.751  19.366  0.00  0.00    +0.000 C 
ATOM      2  O   UNL     1       4.094   4.715  19.808  0.00  0.00    +0.000 OA
ATOM      3  N   UNL     1       5.870   3.832  18.617  0.00  0.00    +0.000 N 
ATOM      4  H   UNL     1       6.018   3.086  17.951  0.00  0.00    +0.000 HD
ENDROOT
BRANCH   3   5
ATOM      5  C   UNL     1       6.445   5.089  18.333  0.00  0.00    +0.000 A 
ATOM      6  C   UNL     1       7.477   5.567  19.154  0.00  0.00    +0.000 A 
ATOM      7  C   UNL     1       8.128   6.759  18.858  0.00  0.00    +0.000 A 
ATOM      8  C   UNL     1       7.759   7.505  17.737  0.00  0.00    +0.000 A 
ATOM      9  C   UNL     1       6.708   7.061  16.932  0.00  0.00    +0.000 A 
ATOM     10  C   UNL     1       6.047   5.870  17.232  0.00  0.00    +0.000 A 
ATOM     11 CL   UNL     1       4.639   5.484  16.303  0.00  0.00    +0.000 Cl
ENDBRANCH   3   5
BRANCH   1  12
ATOM     12  C   UNL     1       4.177   2.333  19.550  0.00  0.00    +0.000 C 
BRANCH  12  13
ATOM     13  C   UNL     1       3.503   1.843  18.269  0.00  0.00    +0.000 C 
BRANCH  13  14
ATOM     14  C   UNL     1       2.128   2.462  18.034  0.00  0.00    +0.000 C 
BRANCH  14  16
ATOM     15  C   UNL     1       0.835   3.536  19.918  0.00  0.00    +0.000 C 
ATOM     16  C   UNL     1       1.224   2.229  19.249  0.00  0.00    +0.000 C 
ENDBRANCH  14  16
ENDBRANCH  13  14
ENDBRANCH  12  13
ENDBRANCH   1  12
TORSDOF 5
ENDMDL
MODEL 3
REMARK VINA RESULT:      -6.2      1.183      1.443
REMARK  Name = 
REMARK  6 active torsions:
REMARK  status: ('A' for Active; 'I' for Inactive)
REMARK    1  A    between atoms: C_1  and  C_2
REMARK    2  A    between atoms: C_2  and  C_3
REMARK    3  A    between atoms: C_3  and  C_4
REMARK    4  A    between atoms: C_4  and  C_5
REMARK    5  A    between atoms: C_5  and  C_6
REMARK    6  A    between atoms: N_8  and  C_9
REMARK                            x       y       z     vdW  Elec       q    Type
REMARK                         _______ _______ _______ _____ _____    ______ ____
ROOT
ATOM      1  C   UNL     1       4.309   3.919  18.325  0.00  0.00    +0.000 C 
ATOM      2  O   UNL     1       3.817   4.773  19.043  0.00  0.00    +0.000 OA
ATOM      3  N   UNL     1       5.553   4.031  17.706  0.00  0.00    +0.000 N 
ATOM      4  H   UNL     1       5.656   3.535  16.832  0.00  0.00    +0.000 HD
ENDROOT
BRANCH   3   5
ATOM      5  C   UNL     1       6.339   5.188  17.900  0.00  0.00    +0.000 A 
ATOM      6  C   UNL     1       7.272   5.209  18.948  0.00  0.00    +0.000 A 
ATOM      7  C   UNL     1       8.124   6.294  19.119  0.00  0.00    +0.000 A 
ATOM      8  C   UNL     1       8.062   7.385  18.250  0.00  0.00    +0.000 A 
ATOM      9  C   UNL     1       7.113   7.394  17.225  0.00  0.00    +0.000 A 
ATOM     10  C   UNL     1       6.250   6.312  17.057  0.00  0.00    +0.000 A 
ATOM     11 CL   UNL     1       4.982   6.476  15.891  0.00  0.00    +0.000 Cl
ENDBRANCH   3   5
BRANCH   1  12
ATOM     12  C   UNL     1       3.564   2.636  17.985  0.00  0.00    +0.000 C 
BRANCH  12  13
ATOM     13  C   UNL     1       2.074   2.920  17.802  0.00  0.00    +0.000 C 
BRANCH  13  14
ATOM     14  C   UNL     1       1.195   2.245  18.852  0.00  0.00    +0.000 C 
BRANCH  14  16
ATOM     15  C   UNL     1       1.502   2.948  21.257  0.00  0.00    +0.000 C 
ATOM     16  C   UNL     1       0.803   3.246  19.942  0.00  0.00    +0.000 C 
ENDBRANCH  14  16
ENDBRANCH  13  14
ENDBRANCH  12  13
ENDBRANCH   1  12
TORSDOF 5
ENDMDL
MODEL 4
REMARK VINA RESULT:      -6.1      2.082      5.557
REMARK  Name = 
REMARK  6 active torsions:
REMARK  status: ('A' for Active; 'I' for Inactive)
REMARK    1  A    between atoms: C_1  and  C_2
REMARK    2  A    between atoms: C_2  and  C_3
REMARK    3  A    between atoms: C_3  and  C_4
REMARK    4  A    between atoms: C_4  and  C_5
REMARK    5  A    between atoms: C_5  and  C_6
REMARK    6  A    between atoms: N_8  and  C_9
REMARK                            x       y       z     vdW  Elec       q    Type
REMARK                         _______ _______ _______ _____ _____    ______ ____
ROOT
ATOM      1  C   UNL     1       5.326   5.021  18.683  0.00  0.00    +0.000 C 
ATOM      2  O   UNL     1       5.724   3.948  19.103  0.00  0.00    +0.000 OA
ATOM      3  N   UNL     1       3.994   5.432  18.710  0.00  0.00    +0.000 N 
ATOM      4  H   UNL     1       3.715   6.068  17.976  0.00  0.00    +0.000 HD
ENDROOT
BRANCH   3   5
ATOM      5  C   UNL     1       3.003   4.588  19.257  0.00  0.00    +0.000 A 
ATOM      6  C   UNL     1       2.687   4.705  20.619  0.00  0.00    +0.000 A 
ATOM      7  C   UNL     1       1.658   3.955  21.178  0.00  0.00    +0.000 A 
ATOM      8  C   UNL     1       0.924   3.066  20.389  0.00  0.00    +0.000 A 
ATOM      9  C   UNL     1       1.253   2.912  19.040  0.00  0.00    +0.000 A 
ATOM     10  C   UNL     1       2.290   3.656  18.480  0.00  0.00    +0.000 A 
ATOM     11 CL   UNL     1       2.760   3.275  16.859  0.00  0.00    +0.000 Cl
ENDBRANCH   3   5
BRANCH   1  12
ATOM     12  C   UNL     1       6.267   6.018  18.024  0.00  0.00    +0.000 C 
BRANCH  12  13
ATOM     13  C   UNL     1       5.557   6.742  16.880  0.00  0.00    +0.000 C 
BRANCH  13  14
ATOM     14  C   UNL     1       5.329   5.860  15.655  0.00  0.00    +0.000 C 
BRANCH  14  16
ATOM     15  C   UNL     1       6.319   3.985  14.285  0.00  0.00    +0.000 C 
ATOM     16  C   UNL     1       6.581   5.032  15.353  0.00  0.00    +0.000 C 
ENDBRANCH  14  16
ENDBRANCH  13  14
ENDBRANCH  12  13
ENDBRANCH   1  12
TORSDOF 5
ENDMDL
MODEL 5
REMARK VINA RESULT:      -6.1      1.903      5.960
REMARK  Name = 
REMARK  6 active torsions:
REMARK  status: ('A' for Active; 'I' for Inactive)
REMARK    1  A    between atoms: C_1  and  C_2
REMARK    2  A    between atoms: C_2  and  C_3
REMARK    3  A    between atoms: C_3  and  C_4
REMARK    4  A    between atoms: C_4  and  C_5
REMARK    5  A    between atoms: C_5  and  C_6
REMARK    6  A    between atoms: N_8  and  C_9
REMARK                            x       y       z     vdW  Elec       q    Type
REMARK                         _______ _______ _______ _____ _____    ______ ____
ROOT
ATOM      1  C   UNL     1       5.437   4.751  19.310  0.00  0.00    +0.000 C 
ATOM      2  O   UNL     1       5.641   3.552  19.400  0.00  0.00    +0.000 OA
ATOM      3  N   UNL     1       4.172   5.338  19.325  0.00  0.00    +0.000 N 
ATOM      4  H   UNL     1       4.083   6.204  18.811  0.00  0.00    +0.000 HD
ENDROOT
BRANCH   3   5
ATOM      5  C   UNL     1       3.020   4.535  19.462  0.00  0.00    +0.000 A 
ATOM      6  C   UNL     1       2.402   4.439  20.719  0.00  0.00    +0.000 A 
ATOM      7  C   UNL     1       1.217   3.729  20.877  0.00  0.00    +0.000 A 
ATOM      8  C   UNL     1       0.624   3.094  19.784  0.00  0.00    +0.000 A 
ATOM      9  C   UNL     1       1.248   3.149  18.536  0.00  0.00    +0.000 A 
ATOM     10  C   UNL     1       2.441   3.852  18.377  0.00  0.00    +0.000 A 
ATOM     11 CL   UNL     1       3.248   3.718  16.852  0.00  0.00    +0.000 Cl
ENDBRANCH   3   5
BRANCH   1  12
ATOM     12  C   UNL     1       6.575   5.741  19.111  0.00  0.00    +0.000 C 
BRANCH  12  13
ATOM     13  C   UNL     1       6.943   5.838  17.632  0.00  0.00    +0.000 C 
BRANCH  13  14
ATOM     14  C   UNL     1       7.396   7.234  17.211  0.00  0.00    +0.000 C 
BRANCH  14  16
ATOM     15  C   UNL     1       8.371   9.376  18.125  0.00  0.00    +0.000 C 
ATOM     16  C   UNL     1       8.245   7.874  18.313  0.00  0.00    +0.000 C 
ENDBRANCH  14  16
ENDBRANCH  13  14
ENDBRANCH  12  13
ENDBRANCH   1  12
TORSDOF 5
ENDMDL
MODEL 6
REMARK VINA RESULT:      -6.1      2.902      5.971
REMARK  Name = 
REMARK  6 active torsions:
REMARK  status: ('A' for Active; 'I' for Inactive)
REMARK    1  A    between atoms: C_1  and  C_2
REMARK    2  A    between atoms: C_2  and  C_3
REMARK    3  A    between atoms: C_3  and  C_4
REMARK    4  A    between atoms: C_4  and  C_5
REMARK    5  A    between atoms: C_5  and  C_6
REMARK    6  A    between atoms: N_8  and  C_9
REMARK                            x       y       z     vdW  Elec       q    Type
REMARK                         _______ _______ _______ _____ _____    ______ ____
ROOT
ATOM      1  C   UNL     1       5.394   4.370  18.089  0.00  0.00    +0.000 C 
ATOM      2  O   UNL     1       5.878   4.101  19.175  0.00  0.00    +0.000 OA
ATOM      3  N   UNL     1       4.028   4.363  17.812  0.00  0.00    +0.000 N 
ATOM      4  H   UNL     1       3.773   4.148  16.858  0.00  0.00    +0.000 HD
ENDROOT
BRANCH   3   5
ATOM      5  C   UNL     1       3.101   4.039  18.826  0.00  0.00    +0.000 A 
ATOM      6  C   UNL     1       2.519   5.075  19.573  0.00  0.00    +0.000 A 
ATOM      7  C   UNL     1       1.539   4.806  20.521  0.00  0.00    +0.000 A 
ATOM      8  C   UNL     1       1.120   3.493  20.749  0.00  0.00    +0.000 A 
ATOM      9  C   UNL     1       1.717   2.448  20.040  0.00  0.00    +0.000 A 
ATOM     10  C   UNL     1       2.707   2.715  19.096  0.00  0.00    +0.000 A 
ATOM     11 CL   UNL     1       3.529   1.362  18.399  0.00  0.00    +0.000 Cl
ENDBRANCH   3   5
BRANCH   1  12
ATOM     12  C   UNL     1       6.266   4.694  16.885  0.00  0.00    +0.000 C 
BRANCH  12  13
ATOM     13  C   UNL     1       5.410   4.812  15.625  0.00  0.00    +0.000 C 
BRANCH  13  14
ATOM     14  C   UNL     1       6.231   4.947  14.345  0.00  0.00    +0.000 C 
BRANCH  14  16
ATOM     15  C   UNL     1       5.359   3.572  12.416  0.00  0.00    +0.000 C 
ATOM     16  C   UNL     1       6.298   3.606  13.610  0.00  0.00    +0.000 C 
ENDBRANCH  14  16
ENDBRANCH  13  14
ENDBRANCH  12  13
ENDBRANCH   1  12
TORSDOF 5
ENDMDL
MODEL 7
REMARK VINA RESULT:      -6.1      3.401      5.971
REMARK  Name = 
REMARK  6 active torsions:
REMARK  status: ('A' for Active; 'I' for Inactive)
REMARK    1  A    between atoms: C_1  and  C_2
REMARK    2  A    between atoms: C_2  and  C_3
REMARK    3  A    between atoms: C_3  and  C_4
REMARK    4  A    between atoms: C_4  and  C_5
REMARK    5  A    between atoms: C_5  and  C_6
REMARK    6  A    between atoms: N_8  and  C_9
REMARK                            x       y       z     vdW  Elec       q    Type
REMARK                         _______ _______ _______ _____ _____    ______ ____
ROOT
ATOM      1  C   UNL     1       5.225   5.273  15.953  0.00  0.00    +0.000 C 
ATOM      2  O   UNL     1       4.881   6.429  16.136  0.00  0.00    +0.000 OA
ATOM      3  N   UNL     1       4.768   4.188  16.701  0.00  0.00    +0.000 N 
ATOM      4  H   UNL     1       5.409   3.412  16.786  0.00  0.00    +0.000 HD
ENDROOT
BRANCH   3   5
ATOM      5  C   UNL     1       3.837   4.387  17.743  0.00  0.00    +0.000 A 
ATOM      6  C   UNL     1       2.475   4.160  17.492  0.00  0.00    +0.000 A 
ATOM      7  C   UNL     1       1.537   4.260  18.513  0.00  0.00    +0.000 A 
ATOM      8  C   UNL     1       1.938   4.595  19.809  0.00  0.00    +0.000 A 
ATOM      9  C   UNL     1       3.285   4.862  20.064  0.00  0.00    +0.000 A 
ATOM     10  C   UNL     1       4.226   4.771  19.040  0.00  0.00    +0.000 A 
ATOM     11 CL   UNL     1       5.837   5.297  19.389  0.00  0.00    +0.000 Cl
ENDBRANCH   3   5
BRANCH   1  12
ATOM     12  C   UNL     1       6.256   4.905  14.897  0.00  0.00    +0.000 C 
BRANCH  12  13
ATOM     13  C   UNL     1       5.699   3.833  13.962  0.00  0.00    +0.000 C 
BRANCH  13  14
ATOM     14  C   UNL     1       6.458   3.727  12.642  0.00  0.00    +0.000 C 
BRANCH  14  16
ATOM     15  C   UNL     1       4.326   3.174  11.408  0.00  0.00    +0.000 C 
ATOM     16  C   UNL     1       5.755   2.746  11.699  0.00  0.00    +0.000 C 
ENDBRANCH  14  16
ENDBRANCH  13  14
ENDBRANCH  12  13
ENDBRANCH   1  12
TORSDOF 5
ENDMDL
MODEL 8
REMARK VINA RESULT:      -6.0      2.632      5.999
REMARK  Name = 
REMARK  6 active torsions:
REMARK  status: ('A' for Active; 'I' for Inactive)
REMARK    1  A    between atoms: C_1  and  C_2
REMARK    2  A    between atoms: C_2  and  C_3
REMARK    3  A    between atoms: C_3  and  C_4
REMARK    4  A    between atoms: C_4  and  C_5
REMARK    5  A    between atoms: C_5  and  C_6
REMARK    6  A    between atoms: N_8  and  C_9
REMARK                            x       y       z     vdW  Elec       q    Type
REMARK                         _______ _______ _______ _____ _____    ______ ____
ROOT
ATOM      1  C   UNL     1       4.600   4.857  17.365  0.00  0.00    +0.000 C 
ATOM      2  O   UNL     1       5.194   4.191  18.195  0.00  0.00    +0.000 OA
ATOM      3  N   UNL     1       3.216   5.026  17.334  0.00  0.00    +0.000 N 
ATOM      4  H   UNL     1       2.812   5.182  16.421  0.00  0.00    +0.000 HD
ENDROOT
BRANCH   3   5
ATOM      5  C   UNL     1       2.405   4.413  18.313  0.00  0.00    +0.000 A 
ATOM      6  C   UNL     1       1.890   3.131  18.064  0.00  0.00    +0.000 A 
ATOM      7  C   UNL     1       1.159   2.457  19.036  0.00  0.00    +0.000 A 
ATOM      8  C   UNL     1       0.922   3.050  20.279  0.00  0.00    +0.000 A 
ATOM      9  C   UNL     1       1.397   4.340  20.526  0.00  0.00    +0.000 A 
ATOM     10  C   UNL     1       2.121   5.022  19.549  0.00  0.00    +0.000 A 
ATOM     11 CL   UNL     1       2.511   6.679  19.858  0.00  0.00    +0.000 Cl
ENDBRANCH   3   5
BRANCH   1  12
ATOM     12  C   UNL     1       5.331   5.543  16.220  0.00  0.00    +0.000 C 
BRANCH  12  13
ATOM     13  C   UNL     1       6.634   4.808  15.907  0.00  0.00    +0.000 C 
BRANCH  13  14
ATOM     14  C   UNL     1       6.888   4.638  14.411  0.00  0.00    +0.000 C 
BRANCH  14  16
ATOM     15  C   UNL     1       6.063   3.393  12.375  0.00  0.00    +0.000 C 
ATOM     16  C   UNL     1       5.698   3.941  13.744  0.00  0.00    +0.000 C 
ENDBRANCH  14  16
ENDBRANCH  13  14
ENDBRANCH  12  13
ENDBRANCH   1  12
TORSDOF 5
ENDMDL
MODEL 9
REMARK VINA RESULT:      -6.0      2.362      5.513
REMARK  Name = 
REMARK  6 active torsions:
REMARK  status: ('A' for Active; 'I' for Inactive)
REMARK    1  A    between atoms: C_1  and  C_2
REMARK    2  A    between atoms: C_2  and  C_3
REMARK    3  A    between atoms: C_3  and  C_4
REMARK    4  A    between atoms: C_4  and  C_5
REMARK    5  A    between atoms: C_5  and  C_6
REMARK    6  A    between atoms: N_8  and  C_9
REMARK                            x       y       z     vdW  Elec       q    Type
REMARK                         _______ _______ _______ _____ _____    ______ ____
ROOT
ATOM      1  C   UNL     1       5.923   4.592  18.407  0.00  0.00    +0.000 C 
ATOM      2  O   UNL     1       6.322   4.974  19.494  0.00  0.00    +0.000 OA
ATOM      3  N   UNL     1       4.647   4.081  18.172  0.00  0.00    +0.000 N 
ATOM      4  H   UNL     1       4.574   3.408  17.421  0.00  0.00    +0.000 HD
ENDROOT
BRANCH   3   5
ATOM      5  C   UNL     1       3.715   3.987  19.228  0.00  0.00    +0.000 A 
ATOM      6  C   UNL     1       3.668   2.810  19.992  0.00  0.00    +0.000 A 
ATOM      7  C   UNL     1       2.826   2.711  21.094  0.00  0.00    +0.000 A 
ATOM      8  C   UNL     1       2.008   3.783  21.456  0.00  0.00    +0.000 A 
ATOM      9  C   UNL     1       2.016   4.945  20.682  0.00  0.00    +0.000 A 
ATOM     10  C   UNL     1       2.852   5.044  19.571  0.00  0.00    +0.000 A 
ATOM     11 CL   UNL     1       2.670   6.435  18.557  0.00  0.00    +0.000 Cl
ENDBRANCH   3   5
BRANCH   1  12
ATOM     12  C   UNL     1       6.825   4.588  17.182  0.00  0.00    +0.000 C 
BRANCH  12  13
ATOM     13  C   UNL     1       6.511   5.787  16.288  0.00  0.00    +0.000 C 
BRANCH  13  14
ATOM     14  C   UNL     1       5.799   5.406  14.992  0.00  0.00    +0.000 C 
BRANCH  14  16
ATOM     15  C   UNL     1       6.155   3.705  13.161  0.00  0.00    +0.000 C 
ATOM     16  C   UNL     1       6.050   3.932  14.659  0.00  0.00    +0.000 C 
ENDBRANCH  14  16
ENDBRANCH  13  14
ENDBRANCH  12  13
ENDBRANCH   1  12
TORSDOF 5
ENDMDL
