MODEL 1
REMARK VINA RESULT:      -7.9      0.000      0.000
REMARK  Name = 
REMARK  4 active torsions:
REMARK  status: ('A' for Active; 'I' for Inactive)
REMARK    1  A    between atoms: C_8  and  S_9
REMARK    2  A    between atoms: S_9  and  N_12
REMARK    3  A    between atoms: N_12  and  C_13
REMARK    4  A    between atoms: C_13  and  C_14
REMARK                            x       y       z     vdW  Elec       q    Type
REMARK                         _______ _______ _______ _____ _____    ______ ____
ROOT
ATOM      1  O   UNL     1       1.041   6.907  21.085  0.00  0.00    +0.000 OA
ATOM      2  C   UNL     1       1.799   6.120  20.518  0.00  0.00    +0.000 C 
ATOM      3  C   UNL     1       2.070   4.732  21.088  0.00  0.00    +0.000 C 
ATOM      4  O   UNL     1       2.632   3.732  20.260  0.00  0.00    +0.000 OA
ATOM      5  C   UNL     1       3.527   4.226  19.352  0.00  0.00    +0.000 A 
ATOM      6  C   UNL     1       4.483   3.325  18.891  0.00  0.00    +0.000 A 
ATOM      7  C   UNL     1       5.456   3.746  17.988  0.00  0.00    +0.000 A 
ATOM      8  C   UNL     1       5.425   5.053  17.480  0.00  0.00    +0.000 A 
ATOM      9  C   UNL     1       4.384   5.937  17.851  0.00  0.00    +0.000 A 
ATOM     10  C   UNL     1       3.480   5.534  18.857  0.00  0.00    +0.000 A 
ATOM     11  N   UNL     1       2.525   6.443  19.383  0.00  0.00    +0.000 N 
ATOM     12  C   UNL     1       2.468   7.809  18.891  0.00  0.00    +0.000 C 
ATOM     13  C   UNL     1       2.834   7.894  17.431  0.00  0.00    +0.000 C 
ATOM     14  C   UNL     1       4.205   7.282  17.206  0.00  0.00    +0.000 C 
ENDROOT
BRANCH   8  15
ATOM     15  S   UNL     1       6.866   5.598  16.552  0.00  0.00    +0.000 S 
ATOM     16  O   UNL     1       7.172   6.940  16.995  0.00  0.00    +0.000 OA
ATOM     17  O   UNL     1       7.848   4.543  16.634  0.00  0.00    +0.000 OA
BRANCH  15  18
ATOM     18  N   UNL     1       6.368   5.646  14.944  0.00  0.00    +0.000 NA
ATOM     19  H   UNL     1       6.011   6.550  14.641  0.00  0.00    +0.000 HD
BRANCH  18  20
ATOM     20  C   UNL     1       7.257   4.974  13.977  0.00  0.00    +0.000 C 
BRANCH  20  21
ATOM     21  C   UNL     1       6.523   4.013  13.075  0.00  0.00    +0.000 A 
ATOM     22  C   UNL     1       5.120   3.978  13.051  0.00  0.00    +0.000 A 
ATOM     23  C   UNL     1       4.448   3.172  12.131  0.00  0.00    +0.000 A 
ATOM     24  C   UNL     1       5.170   2.392  11.230  0.00  0.00    +0.000 A 
ATOM     25  C   UNL     1       6.564   2.400  11.262  0.00  0.00    +0.000 A 
ATOM     26  C   UNL     1       7.237   3.202  12.182  0.00  0.00    +0.000 A 
ENDBRANCH  20  21
ENDBRANCH  18  20
ENDBRANCH  15  18
ENDBRANCH   8  15
TORSDOF 4
ENDMDL
MODEL 2
REMARK VINA RESULT:      -7.8      3.936      8.326
REMARK  Name = 
REMARK  4 active torsions:
REMARK  status: ('A' for Active; 'I' for Inactive)
REMARK    1  A    between atoms: C_8  and  S_9
REMARK    2  A    between atoms: S_9  and  N_12
REMARK    3  A    between atoms: N_12  and  C_13
REMARK    4  A    between atoms: C_13  and  C_14
REMARK                            x       y       z     vdW  Elec       q    Type
REMARK                         _______ _______ _______ _____ _____    ______ ____
ROOT
ATOM      1  O   UNL     1       5.377   3.664  18.954  0.00  0.00    +0.000 OA
ATOM      2  C   UNL     1       4.754   4.686  18.666  0.00  0.00    +0.000 C 
ATOM      3  C   UNL     1       5.229   5.618  17.557  0.00  0.00    +0.000 C 
ATOM      4  O   UNL     1       4.334   6.562  17.003  0.00  0.00    +0.000 OA
ATOM      5  C   UNL     1       3.454   7.070  17.918  0.00  0.00    +0.000 A 
ATOM      6  C   UNL     1       2.927   8.324  17.621  0.00  0.00    +0.000 A 
ATOM      7  C   UNL     1       2.046   8.936  18.510  0.00  0.00    +0.000 A 
ATOM      8  C   UNL     1       1.626   8.256  19.662  0.00  0.00    +0.000 A 
ATOM      9  C   UNL     1       2.062   6.932  19.907  0.00  0.00    +0.000 A 
ATOM     10  C   UNL     1       3.046   6.376  19.062  0.00  0.00    +0.000 A 
ATOM     11  N   UNL     1       3.638   5.121  19.362  0.00  0.00    +0.000 N 
ATOM     12  C   UNL     1       3.237   4.390  20.553  0.00  0.00    +0.000 C 
ATOM     13  C   UNL     1       1.783   4.613  20.884  0.00  0.00    +0.000 C 
ATOM     14  C   UNL     1       1.508   6.099  21.029  0.00  0.00    +0.000 C 
ENDROOT
BRANCH   8  15
ATOM     15  S   UNL     1       0.726   9.216  20.888  0.00  0.00    +0.000 S 
ATOM     16  O   UNL     1      -0.526   8.531  21.125  0.00  0.00    +0.000 OA
ATOM     17  O   UNL     1       1.641   9.493  21.968  0.00  0.00    +0.000 OA
BRANCH  15  18
ATOM     18  N   UNL     1       0.413  10.698  20.150  0.00  0.00    +0.000 NA
ATOM     19  H   UNL     1       0.844  10.812  19.235  0.00  0.00    +0.000 HD
BRANCH  18  20
ATOM     20  C   UNL     1      -0.978  11.181  20.247  0.00  0.00    +0.000 C 
BRANCH  20  21
ATOM     21  C   UNL     1      -1.739  11.038  18.952  0.00  0.00    +0.000 A 
ATOM     22  C   UNL     1      -1.280  10.183  17.938  0.00  0.00    +0.000 A 
ATOM     23  C   UNL     1      -2.049   9.967  16.793  0.00  0.00    +0.000 A 
ATOM     24  C   UNL     1      -3.279  10.604  16.649  0.00  0.00    +0.000 A 
ATOM     25  C   UNL     1      -3.732  11.477  17.638  0.00  0.00    +0.000 A 
ATOM     26  C   UNL     1      -2.965  11.696  18.782  0.00  0.00    +0.000 A 
ENDBRANCH  20  21
ENDBRANCH  18  20
ENDBRANCH  15  18
ENDBRANCH   8  15
TORSDOF 4
ENDMDL
MODEL 3
REMARK VINA RESULT:      -7.7      1.248      1.664
REMARK  Name = 
REMARK  4 active torsions:
REMARK  status: ('A' for Active; 'I' for Inactive)
REMARK    1  A    between atoms: C_8  and  S_9
REMARK    2  A    between atoms: S_9  and  N_12
REMARK    3  A    between atoms: N_12  and  C_13
REMARK    4  A    between atoms: C_13  and  C_14
REMARK                            x       y       z     vdW  Elec       q    Type
REMARK                         _______ _______ _______ _____ _____    ______ ____
ROOT
ATOM      1  O   UNL     1       1.704   5.092  21.575  0.00  0.00    +0.000 OA
ATOM      2  C   UNL     1       2.242   4.610  20.578  0.00  0.00    +0.000 C 
ATOM      3  C   UNL     1       2.553   3.121  20.487  0.00  0.00    +0.000 C 
ATOM      4  O   UNL     1       2.823   2.537  19.228  0.00  0.00    +0.000 OA
ATOM      5  C   UNL     1       3.495   3.372  18.380  0.00  0.00    +0.000 A 
ATOM      6  C   UNL     1       4.244   2.752  17.383  0.00  0.00    +0.000 A 
ATOM      7  C   UNL     1       4.987   3.521  16.492  0.00  0.00    +0.000 A 
ATOM      8  C   UNL     1       4.919   4.921  16.546  0.00  0.00    +0.000 A 
ATOM      9  C   UNL     1       4.065   5.557  17.478  0.00  0.00    +0.000 A 
ATOM     10  C   UNL     1       3.414   4.768  18.449  0.00  0.00    +0.000 A 
ATOM     11  N   UNL     1       2.684   5.370  19.506  0.00  0.00    +0.000 N 
ATOM     12  C   UNL     1       2.598   6.818  19.603  0.00  0.00    +0.000 C 
ATOM     13  C   UNL     1       2.595   7.471  18.244  0.00  0.00    +0.000 C 
ATOM     14  C   UNL     1       3.822   7.041  17.461  0.00  0.00    +0.000 C 
ENDROOT
BRANCH   8  15
ATOM     15  S   UNL     1       6.117   5.831  15.560  0.00  0.00    +0.000 S 
ATOM     16  O   UNL     1       5.368   6.671  14.652  0.00  0.00    +0.000 OA
ATOM     17  O   UNL     1       7.081   6.394  16.475  0.00  0.00    +0.000 OA
BRANCH  15  18
ATOM     18  N   UNL     1       6.944   4.660  14.674  0.00  0.00    +0.000 NA
ATOM     19  H   UNL     1       6.704   3.701  14.915  0.00  0.00    +0.000 HD
BRANCH  18  20
ATOM     20  C   UNL     1       7.073   4.924  13.228  0.00  0.00    +0.000 C 
BRANCH  20  21
ATOM     21  C   UNL     1       6.608   3.768  12.377  0.00  0.00    +0.000 A 
ATOM     22  C   UNL     1       7.531   2.868  11.821  0.00  0.00    +0.000 A 
ATOM     23  C   UNL     1       7.089   1.736  11.135  0.00  0.00    +0.000 A 
ATOM     24  C   UNL     1       5.724   1.494  10.994  0.00  0.00    +0.000 A 
ATOM     25  C   UNL     1       4.799   2.396  11.519  0.00  0.00    +0.000 A 
ATOM     26  C   UNL     1       5.238   3.529  12.204  0.00  0.00    +0.000 A 
ENDBRANCH  20  21
ENDBRANCH  18  20
ENDBRANCH  15  18
ENDBRANCH   8  15
TORSDOF 4
ENDMDL
MODEL 4
REMARK VINA RESULT:      -7.5      0.340      1.020
REMARK  Name = 
REMARK  4 active torsions:
REMARK  status: ('A' for Active; 'I' for Inactive)
REMARK    1  A    between atoms: C_8  and  S_9
REMARK    2  A    between atoms: S_9  and  N_12
REMARK    3  A    between atoms: N_12  and  C_13
REMARK    4  A    between atoms: C_13  and  C_14
REMARK                            x       y       z     vdW  Elec       q    Type
REMARK                         _______ _______ _______ _____ _____    ______ ____
ROOT
ATOM      1  O   UNL     1       1.013   7.294  21.203  0.00  0.00    +0.000 OA
ATOM      2  C   UNL     1       1.729   6.481  20.620  0.00  0.00    +0.000 C 
ATOM      3  C   UNL     1       2.010   5.105  21.213  0.00  0.00    +0.000 C 
ATOM      4  O   UNL     1       2.515   4.075  20.386  0.00  0.00    +0.000 OA
ATOM      5  C   UNL     1       3.368   4.530  19.419  0.00  0.00    +0.000 A 
ATOM      6  C   UNL     1       4.286   3.601  18.935  0.00  0.00    +0.000 A 
ATOM      7  C   UNL     1       5.216   3.983  17.971  0.00  0.00    +0.000 A 
ATOM      8  C   UNL     1       5.178   5.276  17.430  0.00  0.00    +0.000 A 
ATOM      9  C   UNL     1       4.170   6.186  17.830  0.00  0.00    +0.000 A 
ATOM     10  C   UNL     1       3.314   5.824  18.891  0.00  0.00    +0.000 A 
ATOM     11  N   UNL     1       2.401   6.761  19.441  0.00  0.00    +0.000 N 
ATOM     12  C   UNL     1       2.338   8.115  18.914  0.00  0.00    +0.000 C 
ATOM     13  C   UNL     1       2.629   8.155  17.435  0.00  0.00    +0.000 C 
ATOM     14  C   UNL     1       3.977   7.516  17.157  0.00  0.00    +0.000 C 
ENDROOT
BRANCH   8  15
ATOM     15  S   UNL     1       6.576   5.773  16.415  0.00  0.00    +0.000 S 
ATOM     16  O   UNL     1       6.785   7.186  16.643  0.00  0.00    +0.000 OA
ATOM     17  O   UNL     1       7.632   4.816  16.646  0.00  0.00    +0.000 OA
BRANCH  15  18
ATOM     18  N   UNL     1       6.076   5.539  14.823  0.00  0.00    +0.000 NA
ATOM     19  H   UNL     1       5.550   6.315  14.428  0.00  0.00    +0.000 HD
BRANCH  18  20
ATOM     20  C   UNL     1       7.079   4.944  13.918  0.00  0.00    +0.000 C 
BRANCH  20  21
ATOM     21  C   UNL     1       6.470   4.012  12.899  0.00  0.00    +0.000 A 
ATOM     22  C   UNL     1       7.272   3.117  12.173  0.00  0.00    +0.000 A 
ATOM     23  C   UNL     1       6.690   2.178  11.320  0.00  0.00    +0.000 A 
ATOM     24  C   UNL     1       5.305   2.127  11.181  0.00  0.00    +0.000 A 
ATOM     25  C   UNL     1       4.501   3.030  11.876  0.00  0.00    +0.000 A 
ATOM     26  C   UNL     1       5.080   3.970  12.728  0.00  0.00    +0.000 A 
ENDBRANCH  20  21
ENDBRANCH  18  20
ENDBRANCH  15  18
ENDBRANCH   8  15
TORSDOF 4
ENDMDL
MODEL 5
REMARK VINA RESULT:      -7.3      4.140      6.279
REMARK  Name = 
REMARK  4 active torsions:
REMARK  status: ('A' for Active; 'I' for Inactive)
REMARK    1  A    between atoms: C_8  and  S_9
REMARK    2  A    between atoms: S_9  and  N_12
REMARK    3  A    between atoms: N_12  and  C_13
REMARK    4  A    between atoms: C_13  and  C_14
REMARK                            x       y       z     vdW  Elec       q    Type
REMARK                         _______ _______ _______ _____ _____    ______ ____
ROOT
ATOM      1  O   UNL     1      -0.826  12.617  20.664  0.00  0.00    +0.000 OA
ATOM      2  C   UNL     1      -0.078  11.856  20.051  0.00  0.00    +0.000 C 
ATOM      3  C   UNL     1       0.306  12.122  18.600  0.00  0.00    +0.000 C 
ATOM      4  O   UNL     1       1.426  11.464  18.039  0.00  0.00    +0.000 OA
ATOM      5  C   UNL     1       1.596  10.193  18.513  0.00  0.00    +0.000 A 
ATOM      6  C   UNL     1       2.292   9.322  17.678  0.00  0.00    +0.000 A 
ATOM      7  C   UNL     1       2.487   7.998  18.063  0.00  0.00    +0.000 A 
ATOM      8  C   UNL     1       2.054   7.561  19.324  0.00  0.00    +0.000 A 
ATOM      9  C   UNL     1       1.454   8.472  20.225  0.00  0.00    +0.000 A 
ATOM     10  C   UNL     1       1.156   9.775  19.774  0.00  0.00    +0.000 A 
ATOM     11  N   UNL     1       0.406  10.670  20.580  0.00  0.00    +0.000 N 
ATOM     12  C   UNL     1      -0.070  10.252  21.888  0.00  0.00    +0.000 C 
ATOM     13  C   UNL     1       0.886   9.293  22.552  0.00  0.00    +0.000 C 
ATOM     14  C   UNL     1       1.133   8.100  21.646  0.00  0.00    +0.000 C 
ENDROOT
BRANCH   8  15
ATOM     15  S   UNL     1       2.085   5.788  19.623  0.00  0.00    +0.000 S 
ATOM     16  O   UNL     1       1.151   5.524  20.695  0.00  0.00    +0.000 OA
ATOM     17  O   UNL     1       1.954   5.138  18.341  0.00  0.00    +0.000 OA
BRANCH  15  18
ATOM     18  N   UNL     1       3.648   5.454  20.156  0.00  0.00    +0.000 NA
ATOM     19  H   UNL     1       3.710   5.183  21.135  0.00  0.00    +0.000 HD
BRANCH  18  20
ATOM     20  C   UNL     1       4.482   4.658  19.236  0.00  0.00    +0.000 C 
BRANCH  20  21
ATOM     21  C   UNL     1       5.657   5.431  18.690  0.00  0.00    +0.000 A 
ATOM     22  C   UNL     1       5.528   6.212  17.531  0.00  0.00    +0.000 A 
ATOM     23  C   UNL     1       6.583   7.017  17.098  0.00  0.00    +0.000 A 
ATOM     24  C   UNL     1       7.777   7.046  17.817  0.00  0.00    +0.000 A 
ATOM     25  C   UNL     1       7.925   6.253  18.954  0.00  0.00    +0.000 A 
ATOM     26  C   UNL     1       6.873   5.447  19.387  0.00  0.00    +0.000 A 
ENDBRANCH  20  21
ENDBRANCH  18  20
ENDBRANCH  15  18
ENDBRANCH   8  15
TORSDOF 4
ENDMDL
MODEL 6
REMARK VINA RESULT:      -7.3      1.840      2.517
REMARK  Name = 
REMARK  4 active torsions:
REMARK  status: ('A' for Active; 'I' for Inactive)
REMARK    1  A    between atoms: C_8  and  S_9
REMARK    2  A    between atoms: S_9  and  N_12
REMARK    3  A    between atoms: N_12  and  C_13
REMARK    4  A    between atoms: C_13  and  C_14
REMARK                            x       y       z     vdW  Elec       q    Type
REMARK                         _______ _______ _______ _____ _____    ______ ____
ROOT
ATOM      1  O   UNL     1       1.269   2.585  22.146  0.00  0.00    +0.000 OA
ATOM      2  C   UNL     1       1.718   2.729  21.008  0.00  0.00    +0.000 C 
ATOM      3  C   UNL     1       2.077   1.528  20.141  0.00  0.00    +0.000 C 
ATOM      4  O   UNL     1       2.236   1.693  18.746  0.00  0.00    +0.000 OA
ATOM      5  C   UNL     1       2.780   2.900  18.406  0.00  0.00    +0.000 A 
ATOM      6  C   UNL     1       3.443   2.943  17.182  0.00  0.00    +0.000 A 
ATOM      7  C   UNL     1       4.056   4.122  16.766  0.00  0.00    +0.000 A 
ATOM      8  C   UNL     1       3.937   5.287  17.538  0.00  0.00    +0.000 A 
ATOM      9  C   UNL     1       3.162   5.281  18.722  0.00  0.00    +0.000 A 
ATOM     10  C   UNL     1       2.650   4.052  19.190  0.00  0.00    +0.000 A 
ATOM     11  N   UNL     1       2.012   3.964  20.454  0.00  0.00    +0.000 N 
ATOM     12  C   UNL     1       1.879   5.147  21.289  0.00  0.00    +0.000 C 
ATOM     13  C   UNL     1       1.705   6.397  20.465  0.00  0.00    +0.000 C 
ATOM     14  C   UNL     1       2.859   6.537  19.489  0.00  0.00    +0.000 C 
ENDROOT
BRANCH   8  15
ATOM     15  S   UNL     1       4.987   6.674  17.081  0.00  0.00    +0.000 S 
ATOM     16  O   UNL     1       4.147   7.851  17.058  0.00  0.00    +0.000 OA
ATOM     17  O   UNL     1       6.162   6.612  17.916  0.00  0.00    +0.000 OA
BRANCH  15  18
ATOM     18  N   UNL     1       5.511   6.338  15.515  0.00  0.00    +0.000 NA
ATOM     19  H   UNL     1       5.535   7.147  14.897  0.00  0.00    +0.000 HD
BRANCH  18  20
ATOM     20  C   UNL     1       6.676   5.439  15.409  0.00  0.00    +0.000 C 
BRANCH  20  21
ATOM     21  C   UNL     1       6.772   4.759  14.066  0.00  0.00    +0.000 A 
ATOM     22  C   UNL     1       5.902   3.710  13.727  0.00  0.00    +0.000 A 
ATOM     23  C   UNL     1       5.918   3.164  12.443  0.00  0.00    +0.000 A 
ATOM     24  C   UNL     1       6.802   3.658  11.487  0.00  0.00    +0.000 A 
ATOM     25  C   UNL     1       7.689   4.681  11.820  0.00  0.00    +0.000 A 
ATOM     26  C   UNL     1       7.677   5.226  13.104  0.00  0.00    +0.000 A 
ENDBRANCH  20  21
ENDBRANCH  18  20
ENDBRANCH  15  18
ENDBRANCH   8  15
TORSDOF 4
ENDMDL
MODEL 7
REMARK VINA RESULT:      -7.2      5.705      8.880
REMARK  Name = 
REMARK  4 active torsions:
REMARK  status: ('A' for Active; 'I' for Inactive)
REMARK    1  A    between atoms: C_8  and  S_9
REMARK    2  A    between atoms: S_9  and  N_12
REMARK    3  A    between atoms: N_12  and  C_13
REMARK    4  A    between atoms: C_13  and  C_14
REMARK                            x       y       z     vdW  Elec       q    Type
REMARK                         _______ _______ _______ _____ _____    ______ ____
ROOT
ATOM      1  O   UNL     1      -6.006  12.534  18.100  0.00  0.00    +0.000 OA
ATOM      2  C   UNL     1      -4.889  12.043  17.937  0.00  0.00    +0.000 C 
ATOM      3  C   UNL     1      -4.559  11.219  16.698  0.00  0.00    +0.000 C 
ATOM      4  O   UNL     1      -3.208  10.981  16.354  0.00  0.00    +0.000 OA
ATOM      5  C   UNL     1      -2.393  10.835  17.442  0.00  0.00    +0.000 A 
ATOM      6  C   UNL     1      -1.228  10.101  17.234  0.00  0.00    +0.000 A 
ATOM      7  C   UNL     1      -0.353   9.873  18.292  0.00  0.00    +0.000 A 
ATOM      8  C   UNL     1      -0.601  10.450  19.546  0.00  0.00    +0.000 A 
ATOM      9  C   UNL     1      -1.719  11.298  19.732  0.00  0.00    +0.000 A 
ATOM     10  C   UNL     1      -2.658  11.419  18.686  0.00  0.00    +0.000 A 
ATOM     11  N   UNL     1      -3.877  12.119  18.880  0.00  0.00    +0.000 N 
ATOM     12  C   UNL     1      -4.176  12.722  20.169  0.00  0.00    +0.000 C 
ATOM     13  C   UNL     1      -2.929  13.214  20.860  0.00  0.00    +0.000 C 
ATOM     14  C   UNL     1      -1.933  12.077  20.999  0.00  0.00    +0.000 C 
ENDROOT
BRANCH   8  15
ATOM     15  S   UNL     1       0.413   9.878  20.917  0.00  0.00    +0.000 S 
ATOM     16  O   UNL     1       1.153  11.022  21.403  0.00  0.00    +0.000 OA
ATOM     17  O   UNL     1      -0.446   9.118  21.793  0.00  0.00    +0.000 OA
BRANCH  15  18
ATOM     18  N   UNL     1       1.488   8.769  20.243  0.00  0.00    +0.000 NA
ATOM     19  H   UNL     1       2.329   9.185  19.847  0.00  0.00    +0.000 HD
BRANCH  18  20
ATOM     20  C   UNL     1       1.713   7.539  21.026  0.00  0.00    +0.000 C 
BRANCH  20  21
ATOM     21  C   UNL     1       1.844   6.310  20.161  0.00  0.00    +0.000 A 
ATOM     22  C   UNL     1       1.290   5.084  20.564  0.00  0.00    +0.000 A 
ATOM     23  C   UNL     1       1.313   3.982  19.708  0.00  0.00    +0.000 A 
ATOM     24  C   UNL     1       1.891   4.092  18.445  0.00  0.00    +0.000 A 
ATOM     25  C   UNL     1       2.468   5.297  18.045  0.00  0.00    +0.000 A 
ATOM     26  C   UNL     1       2.449   6.399  18.900  0.00  0.00    +0.000 A 
ENDBRANCH  20  21
ENDBRANCH  18  20
ENDBRANCH  15  18
ENDBRANCH   8  15
TORSDOF 4
ENDMDL
MODEL 8
REMARK VINA RESULT:      -7.2      3.280      5.845
REMARK  Name = 
REMARK  4 active torsions:
REMARK  status: ('A' for Active; 'I' for Inactive)
REMARK    1  A    between atoms: C_8  and  S_9
REMARK    2  A    between atoms: S_9  and  N_12
REMARK    3  A    between atoms: N_12  and  C_13
REMARK    4  A    between atoms: C_13  and  C_14
REMARK                            x       y       z     vdW  Elec       q    Type
REMARK                         _______ _______ _______ _____ _____    ______ ____
ROOT
ATOM      1  O   UNL     1      -1.494  12.230  21.234  0.00  0.00    +0.000 OA
ATOM      2  C   UNL     1      -0.685  11.637  20.520  0.00  0.00    +0.000 C 
ATOM      3  C   UNL     1      -0.446  12.061  19.075  0.00  0.00    +0.000 C 
ATOM      4  O   UNL     1       0.717  11.623  18.400  0.00  0.00    +0.000 OA
ATOM      5  C   UNL     1       1.105  10.363  18.759  0.00  0.00    +0.000 A 
ATOM      6  C   UNL     1       1.864   9.671  17.818  0.00  0.00    +0.000 A 
ATOM      7  C   UNL     1       2.278   8.368  18.083  0.00  0.00    +0.000 A 
ATOM      8  C   UNL     1       2.002   7.781  19.327  0.00  0.00    +0.000 A 
ATOM      9  C   UNL     1       1.338   8.523  20.332  0.00  0.00    +0.000 A 
ATOM     10  C   UNL     1       0.821   9.794  20.006  0.00  0.00    +0.000 A 
ATOM     11  N   UNL     1       0.003  10.505  20.923  0.00  0.00    +0.000 N 
ATOM     12  C   UNL     1      -0.314   9.926  22.219  0.00  0.00    +0.000 C 
ATOM     13  C   UNL     1       0.816   9.080  22.746  0.00  0.00    +0.000 C 
ATOM     14  C   UNL     1       1.174   8.006  21.734  0.00  0.00    +0.000 C 
ENDROOT
BRANCH   8  15
ATOM     15  S   UNL     1       2.316   6.017  19.479  0.00  0.00    +0.000 S 
ATOM     16  O   UNL     1       1.612   5.563  20.659  0.00  0.00    +0.000 OA
ATOM     17  O   UNL     1       2.065   5.426  18.187  0.00  0.00    +0.000 OA
BRANCH  15  18
ATOM     18  N   UNL     1       3.975   5.881  19.739  0.00  0.00    +0.000 NA
ATOM     19  H   UNL     1       4.281   6.169  20.666  0.00  0.00    +0.000 HD
BRANCH  18  20
ATOM     20  C   UNL     1       4.602   4.644  19.235  0.00  0.00    +0.000 C 
BRANCH  20  21
ATOM     21  C   UNL     1       5.322   4.844  17.923  0.00  0.00    +0.000 A 
ATOM     22  C   UNL     1       6.343   5.799  17.802  0.00  0.00    +0.000 A 
ATOM     23  C   UNL     1       7.083   5.898  16.623  0.00  0.00    +0.000 A 
ATOM     24  C   UNL     1       6.807   5.048  15.554  0.00  0.00    +0.000 A 
ATOM     25  C   UNL     1       5.776   4.114  15.654  0.00  0.00    +0.000 A 
ATOM     26  C   UNL     1       5.034   4.016  16.831  0.00  0.00    +0.000 A 
ENDBRANCH  20  21
ENDBRANCH  18  20
ENDBRANCH  15  18
ENDBRANCH   8  15
TORSDOF 4
ENDMDL
MODEL 9
REMARK VINA RESULT:      -7.2      3.178      5.602
REMARK  Name = 
REMARK  4 active torsions:
REMARK  status: ('A' for Active; 'I' for Inactive)
REMARK    1  A    between atoms: C_8  and  S_9
REMARK    2  A    between atoms: S_9  and  N_12
REMARK    3  A    between atoms: N_12  and  C_13
REMARK    4  A    between atoms: C_13  and  C_14
REMARK                            x       y       z     vdW  Elec       q    Type
REMARK                         _______ _______ _______ _____ _____    ______ ____
ROOT
ATOM      1  O   UNL     1      -1.427  12.108  20.881  0.00  0.00    +0.000 OA
ATOM      2  C   UNL     1      -0.585  11.511  20.209  0.00  0.00    +0.000 C 
ATOM      3  C   UNL     1      -0.290  11.915  18.769  0.00  0.00    +0.000 C 
ATOM      4  O   UNL     1       0.903  11.476  18.149  0.00  0.00    +0.000 OA
ATOM      5  C   UNL     1       1.285  10.224  18.542  0.00  0.00    +0.000 A 
ATOM      6  C   UNL     1       2.086   9.524  17.644  0.00  0.00    +0.000 A 
ATOM      7  C   UNL     1       2.498   8.228  17.945  0.00  0.00    +0.000 A 
ATOM      8  C   UNL     1       2.175   7.658  19.185  0.00  0.00    +0.000 A 
ATOM      9  C   UNL     1       1.465   8.409  20.151  0.00  0.00    +0.000 A 
ATOM     10  C   UNL     1       0.953   9.672  19.785  0.00  0.00    +0.000 A 
ATOM     11  N   UNL     1       0.094  10.389  20.657  0.00  0.00    +0.000 N 
ATOM     12  C   UNL     1      -0.273   9.828  21.947  0.00  0.00    +0.000 C 
ATOM     13  C   UNL     1       0.840   8.997  22.533  0.00  0.00    +0.000 C 
ATOM     14  C   UNL     1       1.246   7.912  21.553  0.00  0.00    +0.000 C 
ENDROOT
BRANCH   8  15
ATOM     15  S   UNL     1       2.494   5.898  19.376  0.00  0.00    +0.000 S 
ATOM     16  O   UNL     1       3.750   5.770  20.081  0.00  0.00    +0.000 OA
ATOM     17  O   UNL     1       1.285   5.300  19.891  0.00  0.00    +0.000 OA
BRANCH  15  18
ATOM     18  N   UNL     1       2.676   5.306  17.809  0.00  0.00    +0.000 NA
ATOM     19  H   UNL     1       2.903   6.014  17.115  0.00  0.00    +0.000 HD
BRANCH  18  20
ATOM     20  C   UNL     1       3.437   4.047  17.686  0.00  0.00    +0.000 C 
BRANCH  20  21
ATOM     21  C   UNL     1       4.785   4.239  17.035  0.00  0.00    +0.000 A 
ATOM     22  C   UNL     1       4.899   4.371  15.642  0.00  0.00    +0.000 A 
ATOM     23  C   UNL     1       6.132   4.664  15.058  0.00  0.00    +0.000 A 
ATOM     24  C   UNL     1       7.261   4.825  15.858  0.00  0.00    +0.000 A 
ATOM     25  C   UNL     1       7.164   4.669  17.240  0.00  0.00    +0.000 A 
ATOM     26  C   UNL     1       5.934   4.373  17.826  0.00  0.00    +0.000 A 
ENDBRANCH  20  21
ENDBRANCH  18  20
ENDBRANCH  15  18
ENDBRANCH   8  15
TORSDOF 4
ENDMDL
