MODEL 1
REMARK VINA RESULT:      -7.0      0.000      0.000
REMARK  Name = 
REMARK  7 active torsions:
REMARK  status: ('A' for Active; 'I' for Inactive)
REMARK    1  A    between atoms: C_1  and  N_2
REMARK    2  A    between atoms: C_3  and  C_5
REMARK    3  A    between atoms: C_12  and  O_13
REMARK    4  A    between atoms: O_13  and  C_14
REMARK    5  A    between atoms: N_20  and  C_21
REMARK    6  A    between atoms: C_21  and  C_22
REMARK    7  A    between atoms: C_21  and  C_23
REMARK                            x       y       z     vdW  Elec       q    Type
REMARK                         _______ _______ _______ _____ _____    ______ ____
ROOT
ATOM      1  C   UNL     1       2.400   5.820  18.929  0.00  0.00    +0.000 C 
ATOM      2  C   UNL     1       3.795   6.373  18.676  0.00  0.00    +0.000 C 
ATOM      3  C   UNL     1       4.694   5.359  19.369  0.00  0.00    +0.000 C 
ATOM      4  C   UNL     1       6.056   5.175  18.722  0.00  0.00    +0.000 C 
ATOM      5  N   UNL     1       5.840   4.174  17.678  0.00  0.00    +0.000 N 
ATOM      6  C   UNL     1       6.182   4.469  16.372  0.00  0.00    +0.000 A 
ATOM      7  C   UNL     1       5.965   3.581  15.332  0.00  0.00    +0.000 A 
ATOM      8  C   UNL     1       6.383   3.973  14.074  0.00  0.00    +0.000 A 
ATOM      9  N   UNL     1       6.974   5.148  13.810  0.00  0.00    +0.000 NA
ATOM     10  C   UNL     1       7.155   5.927  14.872  0.00  0.00    +0.000 A 
ATOM     11  N   UNL     1       6.796   5.648  16.131  0.00  0.00    +0.000 NA
ATOM     12  C   UNL     1       4.695   3.325  18.026  0.00  0.00    +0.000 C 
ATOM     13  C   UNL     1       3.969   4.027  19.208  0.00  0.00    +0.000 C 
ATOM     14  N   UNL     1       2.561   4.346  18.890  0.00  0.00    +0.000 NA
ENDROOT
BRANCH   1  17
ATOM     15  C   UNL     1       1.338   8.533  21.380  0.00  0.00    +0.000 C 
ATOM     16  N   UNL     1       1.885   7.800  20.268  0.00  0.00    +0.000 N 
ATOM     17  C   UNL     1       1.866   6.413  20.252  0.00  0.00    +0.000 C 
ATOM     18  O   UNL     1       1.498   5.746  21.215  0.00  0.00    +0.000 OA
ATOM     19  H   UNL     1       2.067   8.299  19.407  0.00  0.00    +0.000 HD
ENDBRANCH   1  17
BRANCH  14  20
ATOM     20  C   UNL     1       1.552   3.531  19.584  0.00  0.00    +0.000 C 
ATOM     21  C   UNL     1       0.807   2.585  18.628  0.00  0.00    +0.000 C 
ATOM     22  C   UNL     1       2.184   2.661  20.685  0.00  0.00    +0.000 C 
ENDBRANCH  14  20
BRANCH   8  23
ATOM     23  O   UNL     1       6.170   3.079  13.043  0.00  0.00    +0.000 OA
ATOM     24  C   UNL     1       5.124   3.489  12.166  0.00  0.00    +0.000 C 
ENDBRANCH   8  23
TORSDOF 3
ENDMDL
MODEL 2
REMARK VINA RESULT:      -6.8      1.290      1.323
REMARK  Name = 
REMARK  7 active torsions:
REMARK  status: ('A' for Active; 'I' for Inactive)
REMARK    1  A    between atoms: C_1  and  N_2
REMARK    2  A    between atoms: C_3  and  C_5
REMARK    3  A    between atoms: C_12  and  O_13
REMARK    4  A    between atoms: O_13  and  C_14
REMARK    5  A    between atoms: N_20  and  C_21
REMARK    6  A    between atoms: C_21  and  C_22
REMARK    7  A    between atoms: C_21  and  C_23
REMARK                            x       y       z     vdW  Elec       q    Type
REMARK                         _______ _______ _______ _____ _____    ______ ____
ROOT
ATOM      1  C   UNL     1       2.899   6.554  17.762  0.00  0.00    +0.000 C 
ATOM      2  C   UNL     1       4.346   6.894  17.434  0.00  0.00    +0.000 C 
ATOM      3  C   UNL     1       5.128   5.854  18.223  0.00  0.00    +0.000 C 
ATOM      4  C   UNL     1       6.438   5.430  17.585  0.00  0.00    +0.000 C 
ATOM      5  N   UNL     1       6.072   4.358  16.660  0.00  0.00    +0.000 N 
ATOM      6  C   UNL     1       6.416   4.465  15.325  0.00  0.00    +0.000 A 
ATOM      7  C   UNL     1       6.062   3.506  14.391  0.00  0.00    +0.000 A 
ATOM      8  C   UNL     1       6.494   3.704  13.093  0.00  0.00    +0.000 A 
ATOM      9  N   UNL     1       7.221   4.758  12.695  0.00  0.00    +0.000 NA
ATOM     10  C   UNL     1       7.525   5.617  13.663  0.00  0.00    +0.000 A 
ATOM     11  N   UNL     1       7.166   5.523  14.949  0.00  0.00    +0.000 NA
ATOM     12  C   UNL     1       4.838   3.704  17.112  0.00  0.00    +0.000 C 
ATOM     13  C   UNL     1       4.237   4.616  18.218  0.00  0.00    +0.000 C 
ATOM     14  N   UNL     1       2.872   5.076  17.883  0.00  0.00    +0.000 NA
ENDROOT
BRANCH   1  17
ATOM     15  C   UNL     1       1.207   9.319  19.759  0.00  0.00    +0.000 C 
ATOM     16  N   UNL     1       1.765   8.500  18.715  0.00  0.00    +0.000 N 
ATOM     17  C   UNL     1       2.478   7.349  19.019  0.00  0.00    +0.000 C 
ATOM     18  O   UNL     1       2.768   7.035  20.170  0.00  0.00    +0.000 OA
ATOM     19  H   UNL     1       1.438   8.640  17.768  0.00  0.00    +0.000 HD
ENDBRANCH   1  17
BRANCH  14  20
ATOM     20  C   UNL     1       1.787   4.476  18.674  0.00  0.00    +0.000 C 
ATOM     21  C   UNL     1       1.051   3.366  17.906  0.00  0.00    +0.000 C 
ATOM     22  C   UNL     1       2.312   3.855  19.980  0.00  0.00    +0.000 C 
ENDBRANCH  14  20
BRANCH   8  23
ATOM     23  O   UNL     1       6.144   2.739  12.169  0.00  0.00    +0.000 OA
ATOM     24  C   UNL     1       4.854   2.960  11.605  0.00  0.00    +0.000 C 
ENDBRANCH   8  23
TORSDOF 3
ENDMDL
MODEL 3
REMARK VINA RESULT:      -5.9      3.113      5.028
REMARK  Name = 
REMARK  7 active torsions:
REMARK  status: ('A' for Active; 'I' for Inactive)
REMARK    1  A    between atoms: C_1  and  N_2
REMARK    2  A    between atoms: C_3  and  C_5
REMARK    3  A    between atoms: C_12  and  O_13
REMARK    4  A    between atoms: O_13  and  C_14
REMARK    5  A    between atoms: N_20  and  C_21
REMARK    6  A    between atoms: C_21  and  C_22
REMARK    7  A    between atoms: C_21  and  C_23
REMARK                            x       y       z     vdW  Elec       q    Type
REMARK                         _______ _______ _______ _____ _____    ______ ____
ROOT
ATOM      1  C   UNL     1       1.621   8.795  20.941  0.00  0.00    +0.000 C 
ATOM      2  C   UNL     1       2.016   7.330  20.816  0.00  0.00    +0.000 C 
ATOM      3  C   UNL     1       1.398   6.923  19.486  0.00  0.00    +0.000 C 
ATOM      4  C   UNL     1       2.171   5.856  18.730  0.00  0.00    +0.000 C 
ATOM      5  N   UNL     1       3.174   6.595  17.966  0.00  0.00    +0.000 N 
ATOM      6  C   UNL     1       4.512   6.280  18.115  0.00  0.00    +0.000 A 
ATOM      7  C   UNL     1       5.513   6.968  17.451  0.00  0.00    +0.000 A 
ATOM      8  C   UNL     1       6.811   6.537  17.652  0.00  0.00    +0.000 A 
ATOM      9  N   UNL     1       7.148   5.509  18.443  0.00  0.00    +0.000 NA
ATOM     10  C   UNL     1       6.119   4.899  19.026  0.00  0.00    +0.000 A 
ATOM     11  N   UNL     1       4.828   5.227  18.899  0.00  0.00    +0.000 NA
ATOM     12  C   UNL     1       2.705   7.962  17.710  0.00  0.00    +0.000 C 
ATOM     13  C   UNL     1       1.469   8.181  18.627  0.00  0.00    +0.000 C 
ATOM     14  N   UNL     1       1.654   9.318  19.554  0.00  0.00    +0.000 NA
ENDROOT
BRANCH   1  17
ATOM     15  C   UNL     1      -1.061  10.278  23.200  0.00  0.00    +0.000 C 
ATOM     16  N   UNL     1       0.166   9.980  22.509  0.00  0.00    +0.000 N 
ATOM     17  C   UNL     1       0.261   8.879  21.670  0.00  0.00    +0.000 C 
ATOM     18  O   UNL     1      -0.638   8.050  21.564  0.00  0.00    +0.000 OA
ATOM     19  H   UNL     1       0.876  10.700  22.457  0.00  0.00    +0.000 HD
ENDBRANCH   1  17
BRANCH  14  20
ATOM     20  C   UNL     1       0.854  10.517  19.257  0.00  0.00    +0.000 C 
ATOM     21  C   UNL     1       1.687  11.625  18.593  0.00  0.00    +0.000 C 
ATOM     22  C   UNL     1      -0.317  10.198  18.312  0.00  0.00    +0.000 C 
ENDBRANCH  14  20
BRANCH   8  23
ATOM     23  O   UNL     1       7.803   7.225  16.981  0.00  0.00    +0.000 OA
ATOM     24  C   UNL     1       8.085   8.494  17.564  0.00  0.00    +0.000 C 
ENDBRANCH   8  23
TORSDOF 3
ENDMDL
MODEL 4
REMARK VINA RESULT:      -5.8      5.994     11.696
REMARK  Name = 
REMARK  7 active torsions:
REMARK  status: ('A' for Active; 'I' for Inactive)
REMARK    1  A    between atoms: C_1  and  N_2
REMARK    2  A    between atoms: C_3  and  C_5
REMARK    3  A    between atoms: C_12  and  O_13
REMARK    4  A    between atoms: O_13  and  C_14
REMARK    5  A    between atoms: N_20  and  C_21
REMARK    6  A    between atoms: C_21  and  C_22
REMARK    7  A    between atoms: C_21  and  C_23
REMARK                            x       y       z     vdW  Elec       q    Type
REMARK                         _______ _______ _______ _____ _____    ______ ____
ROOT
ATOM      1  C   UNL     1      -0.575   9.275  21.341  0.00  0.00    +0.000 C 
ATOM      2  C   UNL     1      -0.864   9.994  22.651  0.00  0.00    +0.000 C 
ATOM      3  C   UNL     1      -0.417  11.419  22.363  0.00  0.00    +0.000 C 
ATOM      4  C   UNL     1      -1.204  12.489  23.099  0.00  0.00    +0.000 C 
ATOM      5  N   UNL     1      -2.364  12.750  22.249  0.00  0.00    +0.000 N 
ATOM      6  C   UNL     1      -3.636  12.627  22.777  0.00  0.00    +0.000 A 
ATOM      7  C   UNL     1      -4.775  12.819  22.014  0.00  0.00    +0.000 A 
ATOM      8  C   UNL     1      -5.991  12.704  22.662  0.00  0.00    +0.000 A 
ATOM      9  N   UNL     1      -6.125  12.419  23.965  0.00  0.00    +0.000 NA
ATOM     10  C   UNL     1      -4.977  12.267  24.618  0.00  0.00    +0.000 A 
ATOM     11  N   UNL     1      -3.748  12.360  24.096  0.00  0.00    +0.000 NA
ATOM     12  C   UNL     1      -2.049  12.421  20.854  0.00  0.00    +0.000 C 
ATOM     13  C   UNL     1      -0.714  11.625  20.881  0.00  0.00    +0.000 C 
ATOM     14  N   UNL     1      -0.852  10.279  20.285  0.00  0.00    +0.000 NA
ENDROOT
BRANCH   1  17
ATOM     15  C   UNL     1       2.309   6.929  20.519  0.00  0.00    +0.000 C 
ATOM     16  N   UNL     1       1.017   7.545  20.667  0.00  0.00    +0.000 N 
ATOM     17  C   UNL     1       0.866   8.718  21.391  0.00  0.00    +0.000 C 
ATOM     18  O   UNL     1       1.785   9.222  22.031  0.00  0.00    +0.000 OA
ATOM     19  H   UNL     1       0.270   7.247  20.052  0.00  0.00    +0.000 HD
ENDBRANCH   1  17
BRANCH  14  20
ATOM     20  C   UNL     1      -0.203  10.093  18.979  0.00  0.00    +0.000 C 
ATOM     21  C   UNL     1      -1.206  10.142  17.816  0.00  0.00    +0.000 C 
ATOM     22  C   UNL     1       0.858  11.175  18.711  0.00  0.00    +0.000 C 
ENDBRANCH  14  20
BRANCH   8  23
ATOM     23  O   UNL     1      -7.123  12.905  21.895  0.00  0.00    +0.000 OA
ATOM     24  C   UNL     1      -7.067  12.228  20.643  0.00  0.00    +0.000 C 
ENDBRANCH   8  23
TORSDOF 3
ENDMDL
MODEL 5
REMARK VINA RESULT:      -5.7      4.157      6.873
REMARK  Name = 
REMARK  7 active torsions:
REMARK  status: ('A' for Active; 'I' for Inactive)
REMARK    1  A    between atoms: C_1  and  N_2
REMARK    2  A    between atoms: C_3  and  C_5
REMARK    3  A    between atoms: C_12  and  O_13
REMARK    4  A    between atoms: O_13  and  C_14
REMARK    5  A    between atoms: N_20  and  C_21
REMARK    6  A    between atoms: C_21  and  C_22
REMARK    7  A    between atoms: C_21  and  C_23
REMARK                            x       y       z     vdW  Elec       q    Type
REMARK                         _______ _______ _______ _____ _____    ______ ____
ROOT
ATOM      1  C   UNL     1      -0.979  10.006  19.228  0.00  0.00    +0.000 C 
ATOM      2  C   UNL     1      -0.020   9.349  18.246  0.00  0.00    +0.000 C 
ATOM      3  C   UNL     1       1.342   9.617  18.868  0.00  0.00    +0.000 C 
ATOM      4  C   UNL     1       2.380   8.541  18.605  0.00  0.00    +0.000 C 
ATOM      5  N   UNL     1       2.165   7.550  19.658  0.00  0.00    +0.000 N 
ATOM      6  C   UNL     1       1.924   6.233  19.315  0.00  0.00    +0.000 A 
ATOM      7  C   UNL     1       1.672   5.256  20.263  0.00  0.00    +0.000 A 
ATOM      8  C   UNL     1       1.480   3.967  19.800  0.00  0.00    +0.000 A 
ATOM      9  N   UNL     1       1.522   3.619  18.506  0.00  0.00    +0.000 NA
ATOM     10  C   UNL     1       1.786   4.620  17.672  0.00  0.00    +0.000 A 
ATOM     11  N   UNL     1       1.992   5.899  18.008  0.00  0.00    +0.000 NA
ATOM     12  C   UNL     1       1.557   8.189  20.832  0.00  0.00    +0.000 C 
ATOM     13  C   UNL     1       1.089   9.598  20.372  0.00  0.00    +0.000 C 
ATOM     14  N   UNL     1      -0.364   9.795  20.561  0.00  0.00    +0.000 NA
ENDROOT
BRANCH   1  17
ATOM     15  C   UNL     1      -0.017  13.469  17.971  0.00  0.00    +0.000 C 
ATOM     16  N   UNL     1      -0.009  12.123  18.481  0.00  0.00    +0.000 N 
ATOM     17  C   UNL     1      -1.194  11.476  18.802  0.00  0.00    +0.000 C 
ATOM     18  O   UNL     1      -2.283  12.043  18.781  0.00  0.00    +0.000 OA
ATOM     19  H   UNL     1       0.838  11.577  18.384  0.00  0.00    +0.000 HD
ENDBRANCH   1  17
BRANCH  14  20
ATOM     20  C   UNL     1      -0.745  10.716  21.643  0.00  0.00    +0.000 C 
ATOM     21  C   UNL     1      -0.776  10.024  23.015  0.00  0.00    +0.000 C 
ATOM     22  C   UNL     1       0.232  11.900  21.752  0.00  0.00    +0.000 C 
ENDBRANCH  14  20
BRANCH   8  23
ATOM     23  O   UNL     1       1.236   2.997  20.752  0.00  0.00    +0.000 OA
ATOM     24  C   UNL     1       2.121   3.084  21.866  0.00  0.00    +0.000 C 
ENDBRANCH   8  23
TORSDOF 3
ENDMDL
MODEL 6
REMARK VINA RESULT:      -5.7      8.541     10.854
REMARK  Name = 
REMARK  7 active torsions:
REMARK  status: ('A' for Active; 'I' for Inactive)
REMARK    1  A    between atoms: C_1  and  N_2
REMARK    2  A    between atoms: C_3  and  C_5
REMARK    3  A    between atoms: C_12  and  O_13
REMARK    4  A    between atoms: O_13  and  C_14
REMARK    5  A    between atoms: N_20  and  C_21
REMARK    6  A    between atoms: C_21  and  C_22
REMARK    7  A    between atoms: C_21  and  C_23
REMARK                            x       y       z     vdW  Elec       q    Type
REMARK                         _______ _______ _______ _____ _____    ______ ____
ROOT
ATOM      1  C   UNL     1       2.409  14.181  18.269  0.00  0.00    +0.000 C 
ATOM      2  C   UNL     1       2.148  12.684  18.360  0.00  0.00    +0.000 C 
ATOM      3  C   UNL     1       1.591  12.520  19.766  0.00  0.00    +0.000 C 
ATOM      4  C   UNL     1       0.583  11.395  19.920  0.00  0.00    +0.000 C 
ATOM      5  N   UNL     1      -0.700  11.991  19.551  0.00  0.00    +0.000 N 
ATOM      6  C   UNL     1      -1.455  11.413  18.547  0.00  0.00    +0.000 A 
ATOM      7  C   UNL     1      -2.658  11.952  18.123  0.00  0.00    +0.000 A 
ATOM      8  C   UNL     1      -3.340  11.264  17.137  0.00  0.00    +0.000 A 
ATOM      9  N   UNL     1      -2.908  10.125  16.577  0.00  0.00    +0.000 NA
ATOM     10  C   UNL     1      -1.753   9.676  17.059  0.00  0.00    +0.000 A 
ATOM     11  N   UNL     1      -1.012  10.255  18.012  0.00  0.00    +0.000 NA
ATOM     12  C   UNL     1      -0.667  13.440  19.785  0.00  0.00    +0.000 C 
ATOM     13  C   UNL     1       0.823  13.811  20.029  0.00  0.00    +0.000 C 
ATOM     14  N   UNL     1       1.319  14.807  19.056  0.00  0.00    +0.000 NA
ENDROOT
BRANCH   1  17
ATOM     15  C   UNL     1       6.140  14.879  17.966  0.00  0.00    +0.000 C 
ATOM     16  N   UNL     1       4.765  14.532  17.716  0.00  0.00    +0.000 N 
ATOM     17  C   UNL     1       3.849  14.461  18.755  0.00  0.00    +0.000 C 
ATOM     18  O   UNL     1       4.176  14.572  19.934  0.00  0.00    +0.000 OA
ATOM     19  H   UNL     1       4.426  14.569  16.763  0.00  0.00    +0.000 HD
ENDBRANCH   1  17
BRANCH  14  20
ATOM     20  C   UNL     1       1.552  16.157  19.590  0.00  0.00    +0.000 C 
ATOM     21  C   UNL     1       0.710  17.223  18.870  0.00  0.00    +0.000 C 
ATOM     22  C   UNL     1       1.210  16.243  21.088  0.00  0.00    +0.000 C 
ENDBRANCH  14  20
BRANCH   8  23
ATOM     23  O   UNL     1      -4.543  11.804  16.724  0.00  0.00    +0.000 OA
ATOM     24  C   UNL     1      -5.477  11.947  17.790  0.00  0.00    +0.000 C 
ENDBRANCH   8  23
TORSDOF 3
ENDMDL
MODEL 7
REMARK VINA RESULT:      -5.6      7.394     10.890
REMARK  Name = 
REMARK  7 active torsions:
REMARK  status: ('A' for Active; 'I' for Inactive)
REMARK    1  A    between atoms: C_1  and  N_2
REMARK    2  A    between atoms: C_3  and  C_5
REMARK    3  A    between atoms: C_12  and  O_13
REMARK    4  A    between atoms: O_13  and  C_14
REMARK    5  A    between atoms: N_20  and  C_21
REMARK    6  A    between atoms: C_21  and  C_22
REMARK    7  A    between atoms: C_21  and  C_23
REMARK                            x       y       z     vdW  Elec       q    Type
REMARK                         _______ _______ _______ _____ _____    ______ ____
ROOT
ATOM      1  C   UNL     1      -0.432  12.285  19.641  0.00  0.00    +0.000 C 
ATOM      2  C   UNL     1      -1.306  12.758  18.488  0.00  0.00    +0.000 C 
ATOM      3  C   UNL     1      -1.220  11.605  17.499  0.00  0.00    +0.000 C 
ATOM      4  C   UNL     1      -2.468  11.398  16.659  0.00  0.00    +0.000 C 
ATOM      5  N   UNL     1      -3.332  10.549  17.477  0.00  0.00    +0.000 N 
ATOM      6  C   UNL     1      -4.614  10.973  17.779  0.00  0.00    +0.000 A 
ATOM      7  C   UNL     1      -5.466  10.235  18.582  0.00  0.00    +0.000 A 
ATOM      8  C   UNL     1      -6.736  10.744  18.783  0.00  0.00    +0.000 A 
ATOM      9  N   UNL     1      -7.178  11.894  18.254  0.00  0.00    +0.000 NA
ATOM     10  C   UNL     1      -6.295  12.524  17.484  0.00  0.00    +0.000 A 
ATOM     11  N   UNL     1      -5.046  12.123  17.218  0.00  0.00    +0.000 NA
ATOM     12  C   UNL     1      -2.521   9.752  18.404  0.00  0.00    +0.000 C 
ATOM     13  C   UNL     1      -1.090  10.359  18.371  0.00  0.00    +0.000 C 
ATOM     14  N   UNL     1      -0.646  10.819  19.704  0.00  0.00    +0.000 NA
ENDROOT
BRANCH   1  17
ATOM     15  C   UNL     1       2.958  13.809  20.467  0.00  0.00    +0.000 C 
ATOM     16  N   UNL     1       1.581  13.388  20.483  0.00  0.00    +0.000 N 
ATOM     17  C   UNL     1       1.018  12.752  19.386  0.00  0.00    +0.000 C 
ATOM     18  O   UNL     1       1.615  12.622  18.320  0.00  0.00    +0.000 OA
ATOM     19  H   UNL     1       1.101  13.348  21.373  0.00  0.00    +0.000 HD
ENDBRANCH   1  17
BRANCH  14  20
ATOM     20  C   UNL     1       0.400  10.003  20.341  0.00  0.00    +0.000 C 
ATOM     21  C   UNL     1      -0.177   9.003  21.355  0.00  0.00    +0.000 C 
ATOM     22  C   UNL     1       1.199   9.193  19.305  0.00  0.00    +0.000 C 
ENDBRANCH  14  20
BRANCH   8  23
ATOM     23  O   UNL     1      -7.583   9.998  19.580  0.00  0.00    +0.000 OA
ATOM     24  C   UNL     1      -7.107   8.673  19.800  0.00  0.00    +0.000 C 
ENDBRANCH   8  23
TORSDOF 3
ENDMDL
MODEL 8
REMARK VINA RESULT:      -5.6      6.688     12.223
REMARK  Name = 
REMARK  7 active torsions:
REMARK  status: ('A' for Active; 'I' for Inactive)
REMARK    1  A    between atoms: C_1  and  N_2
REMARK    2  A    between atoms: C_3  and  C_5
REMARK    3  A    between atoms: C_12  and  O_13
REMARK    4  A    between atoms: O_13  and  C_14
REMARK    5  A    between atoms: N_20  and  C_21
REMARK    6  A    between atoms: C_21  and  C_22
REMARK    7  A    between atoms: C_21  and  C_23
REMARK                            x       y       z     vdW  Elec       q    Type
REMARK                         _______ _______ _______ _____ _____    ______ ____
ROOT
ATOM      1  C   UNL     1      -0.658  10.627  19.771  0.00  0.00    +0.000 C 
ATOM      2  C   UNL     1      -0.522  11.773  20.763  0.00  0.00    +0.000 C 
ATOM      3  C   UNL     1      -1.104  12.954  20.001  0.00  0.00    +0.000 C 
ATOM      4  C   UNL     1      -1.789  13.994  20.871  0.00  0.00    +0.000 C 
ATOM      5  N   UNL     1      -3.157  13.503  21.029  0.00  0.00    +0.000 N 
ATOM      6  C   UNL     1      -3.669  13.312  22.300  0.00  0.00    +0.000 A 
ATOM      7  C   UNL     1      -4.942  12.812  22.517  0.00  0.00    +0.000 A 
ATOM      8  C   UNL     1      -5.356  12.699  23.831  0.00  0.00    +0.000 A 
ATOM      9  N   UNL     1      -4.605  13.039  24.888  0.00  0.00    +0.000 NA
ATOM     10  C   UNL     1      -3.405  13.524  24.581  0.00  0.00    +0.000 A 
ATOM     11  N   UNL     1      -2.904  13.681  23.350  0.00  0.00    +0.000 NA
ATOM     12  C   UNL     1      -3.521  12.652  19.891  0.00  0.00    +0.000 C 
ATOM     13  C   UNL     1      -2.200  12.349  19.129  0.00  0.00    +0.000 C 
ATOM     14  N   UNL     1      -1.922  10.899  19.044  0.00  0.00    +0.000 NA
ENDROOT
BRANCH   1  17
ATOM     15  C   UNL     1       2.226   9.005  17.888  0.00  0.00    +0.000 C 
ATOM     16  N   UNL     1       1.096   9.272  18.738  0.00  0.00    +0.000 N 
ATOM     17  C   UNL     1       0.624  10.565  18.910  0.00  0.00    +0.000 C 
ATOM     18  O   UNL     1       1.202  11.546  18.451  0.00  0.00    +0.000 OA
ATOM     19  H   UNL     1       0.512   8.494  19.020  0.00  0.00    +0.000 HD
ENDBRANCH   1  17
BRANCH  14  20
ATOM     20  C   UNL     1      -2.087  10.298  17.712  0.00  0.00    +0.000 C 
ATOM     21  C   UNL     1      -3.349   9.426  17.617  0.00  0.00    +0.000 C 
ATOM     22  C   UNL     1      -2.189  11.369  16.613  0.00  0.00    +0.000 C 
ENDBRANCH  14  20
BRANCH   8  23
ATOM     23  O   UNL     1      -6.629  12.206  24.039  0.00  0.00    +0.000 OA
ATOM     24  C   UNL     1      -7.464  12.335  22.891  0.00  0.00    +0.000 C 
ENDBRANCH   8  23
TORSDOF 3
ENDMDL
MODEL 9
REMARK VINA RESULT:      -5.6      8.022     11.208
REMARK  Name = 
REMARK  7 active torsions:
REMARK  status: ('A' for Active; 'I' for Inactive)
REMARK    1  A    between atoms: C_1  and  N_2
REMARK    2  A    between atoms: C_3  and  C_5
REMARK    3  A    between atoms: C_12  and  O_13
REMARK    4  A    between atoms: O_13  and  C_14
REMARK    5  A    between atoms: N_20  and  C_21
REMARK    6  A    between atoms: C_21  and  C_22
REMARK    7  A    between atoms: C_21  and  C_23
REMARK                            x       y       z     vdW  Elec       q    Type
REMARK                         _______ _______ _______ _____ _____    ______ ____
ROOT
ATOM      1  C   UNL     1       3.233  15.322  17.851  0.00  0.00    +0.000 C 
ATOM      2  C   UNL     1       3.193  13.943  18.492  0.00  0.00    +0.000 C 
ATOM      3  C   UNL     1       2.520  14.208  19.830  0.00  0.00    +0.000 C 
ATOM      4  C   UNL     1       1.683  13.056  20.357  0.00  0.00    +0.000 C 
ATOM      5  N   UNL     1       0.372  13.233  19.735  0.00  0.00    +0.000 N 
ATOM      6  C   UNL     1      -0.176  12.201  18.995  0.00  0.00    +0.000 A 
ATOM      7  C   UNL     1      -1.393  12.320  18.347  0.00  0.00    +0.000 A 
ATOM      8  C   UNL     1      -1.854  11.208  17.668  0.00  0.00    +0.000 A 
ATOM      9  N   UNL     1      -1.197  10.041  17.601  0.00  0.00    +0.000 NA
ATOM     10  C   UNL     1      -0.046  10.017  18.266  0.00  0.00    +0.000 A 
ATOM     11  N   UNL     1       0.493  11.028  18.958  0.00  0.00    +0.000 NA
ATOM     12  C   UNL     1       0.160  14.647  19.403  0.00  0.00    +0.000 C 
ATOM     13  C   UNL     1       1.541  15.345  19.551  0.00  0.00    +0.000 C 
ATOM     14  N   UNL     1       1.983  15.986  18.294  0.00  0.00    +0.000 NA
ENDROOT
BRANCH   1  17
ATOM     15  C   UNL     1       6.990  15.697  18.348  0.00  0.00    +0.000 C 
ATOM     16  N   UNL     1       5.661  15.195  18.110  0.00  0.00    +0.000 N 
ATOM     17  C   UNL     1       4.553  16.017  18.255  0.00  0.00    +0.000 C 
ATOM     18  O   UNL     1       4.631  17.159  18.699  0.00  0.00    +0.000 OA
ATOM     19  H   UNL     1       5.561  14.317  17.616  0.00  0.00    +0.000 HD
ENDBRANCH   1  17
BRANCH  14  20
ATOM     20  C   UNL     1       1.950  17.456  18.285  0.00  0.00    +0.000 C 
ATOM     21  C   UNL     1       1.159  18.015  17.092  0.00  0.00    +0.000 C 
ATOM     22  C   UNL     1       1.304  18.018  19.564  0.00  0.00    +0.000 C 
ENDBRANCH  14  20
BRANCH   8  23
ATOM     23  O   UNL     1      -3.074  11.333  17.030  0.00  0.00    +0.000 OA
ATOM     24  C   UNL     1      -3.032  10.902  15.672  0.00  0.00    +0.000 C 
ENDBRANCH   8  23
TORSDOF 3
ENDMDL
