MODEL 1
REMARK VINA RESULT:      -7.5      0.000      0.000
REMARK  Name = 
REMARK  7 active torsions:
REMARK  status: ('A' for Active; 'I' for Inactive)
REMARK    1  A    between atoms: C_1  and  C_2
REMARK    2  A    between atoms: C_2  and  C_3
REMARK    3  A    between atoms: C_2  and  C_4
REMARK    4  A    between atoms: C_2  and  C_5
REMARK    5  A    between atoms: C_6  and  C_7
REMARK    6  A    between atoms: C_7  and  O_9
REMARK    7  A    between atoms: C_14  and  C_15
REMARK                            x       y       z     vdW  Elec       q    Type
REMARK                         _______ _______ _______ _____ _____    ______ ____
ROOT
ATOM      1  C   UNL     1       4.802   4.372  17.366  0.00  0.00    +0.000 C 
ATOM      2  C   UNL     1       6.111   4.604  17.596  0.00  0.00    +0.000 C 
ATOM      3  N   UNL     1       6.857   4.344  16.458  0.00  0.00    +0.000 N 
ATOM      4  C   UNL     1       7.122   5.318  15.528  0.00  0.00    +0.000 C 
ATOM      5  O   UNL     1       7.720   6.370  15.627  0.00  0.00    +0.000 OA
ATOM      6  C   UNL     1       6.527   4.516  14.468  0.00  0.00    +0.000 C 
ATOM      7  C   UNL     1       6.656   4.452  13.144  0.00  0.00    +0.000 C 
ATOM      8  C   UNL     1       5.881   3.708  15.564  0.00  0.00    +0.000 C 
ATOM      9  O   UNL     1       4.541   4.035  16.005  0.00  0.00    +0.000 OA
ENDROOT
BRANCH   7  10
ATOM     10  C   UNL     1       6.090   3.403  12.364  0.00  0.00    +0.000 A 
ATOM     11  C   UNL     1       6.715   2.253  11.816  0.00  0.00    +0.000 A 
ATOM     12  C   UNL     1       5.743   1.593  11.098  0.00  0.00    +0.000 A 
ATOM     13  O   UNL     1       4.561   2.256  11.178  0.00  0.00    +0.000 OA
ATOM     14  C   UNL     1       4.773   3.351  11.957  0.00  0.00    +0.000 A 
ENDBRANCH   7  10
BRANCH   1  16
ATOM     15  C   UNL     1       3.251   5.679  18.950  0.00  0.00    +0.000 C 
ATOM     16  C   UNL     1       3.583   4.326  18.294  0.00  0.00    +0.000 C 
ATOM     17  C   UNL     1       3.813   3.260  19.385  0.00  0.00    +0.000 C 
ATOM     18  C   UNL     1       2.316   3.895  17.512  0.00  0.00    +0.000 C 
ENDBRANCH   1  16
BRANCH   2  19
ATOM     19  C   UNL     1       6.830   4.887  18.864  0.00  0.00    +0.000 C 
ATOM     20  O   UNL     1       6.306   5.287  19.888  0.00  0.00    +0.000 OA
BRANCH  19  21
ATOM     21  O   UNL     1       8.145   4.580  18.798  0.00  0.00    +0.000 OA
ATOM     22  H   UNL     1       8.492   4.487  17.886  0.00  0.00    +0.000 HD
ENDBRANCH  19  21
ENDBRANCH   2  19
TORSDOF 4
ENDMDL
MODEL 2
REMARK VINA RESULT:      -7.1      0.745      1.014
REMARK  Name = 
REMARK  7 active torsions:
REMARK  status: ('A' for Active; 'I' for Inactive)
REMARK    1  A    between atoms: C_1  and  C_2
REMARK    2  A    between atoms: C_2  and  C_3
REMARK    3  A    between atoms: C_2  and  C_4
REMARK    4  A    between atoms: C_2  and  C_5
REMARK    5  A    between atoms: C_6  and  C_7
REMARK    6  A    between atoms: C_7  and  O_9
REMARK    7  A    between atoms: C_14  and  C_15
REMARK                            x       y       z     vdW  Elec       q    Type
REMARK                         _______ _______ _______ _____ _____    ______ ____
ROOT
ATOM      1  C   UNL     1       4.362   4.520  17.479  0.00  0.00    +0.000 C 
ATOM      2  C   UNL     1       5.654   4.676  17.839  0.00  0.00    +0.000 C 
ATOM      3  N   UNL     1       6.491   4.419  16.765  0.00  0.00    +0.000 N 
ATOM      4  C   UNL     1       6.889   5.410  15.904  0.00  0.00    +0.000 C 
ATOM      5  O   UNL     1       7.525   6.426  16.100  0.00  0.00    +0.000 OA
ATOM      6  C   UNL     1       6.359   4.679  14.762  0.00  0.00    +0.000 C 
ATOM      7  C   UNL     1       6.609   4.656  13.453  0.00  0.00    +0.000 C 
ATOM      8  C   UNL     1       5.574   3.866  15.760  0.00  0.00    +0.000 C 
ATOM      9  O   UNL     1       4.215   4.247  16.087  0.00  0.00    +0.000 OA
ENDROOT
BRANCH   7  10
ATOM     10  C   UNL     1       6.069   3.666  12.583  0.00  0.00    +0.000 A 
ATOM     11  C   UNL     1       4.741   3.514  12.109  0.00  0.00    +0.000 A 
ATOM     12  C   UNL     1       4.732   2.367  11.349  0.00  0.00    +0.000 A 
ATOM     13  O   UNL     1       5.970   1.811  11.315  0.00  0.00    +0.000 OA
ATOM     14  C   UNL     1       6.783   2.609  12.058  0.00  0.00    +0.000 A 
ENDBRANCH   7  10
BRANCH   1  16
ATOM     15  C   UNL     1       2.866   5.746  19.177  0.00  0.00    +0.000 C 
ATOM     16  C   UNL     1       3.061   4.504  18.288  0.00  0.00    +0.000 C 
ATOM     17  C   UNL     1       3.015   3.229  19.156  0.00  0.00    +0.000 C 
ATOM     18  C   UNL     1       1.831   4.443  17.345  0.00  0.00    +0.000 C 
ENDBRANCH   1  16
BRANCH   2  19
ATOM     19  C   UNL     1       6.262   4.875  19.178  0.00  0.00    +0.000 C 
ATOM     20  O   UNL     1       5.928   4.286  20.190  0.00  0.00    +0.000 OA
BRANCH  19  21
ATOM     21  O   UNL     1       7.301   5.741  19.156  0.00  0.00    +0.000 OA
ATOM     22  H   UNL     1       7.621   6.007  20.043  0.00  0.00    +0.000 HD
ENDBRANCH  19  21
ENDBRANCH   2  19
TORSDOF 4
ENDMDL
MODEL 3
REMARK VINA RESULT:      -6.9      1.183      1.726
REMARK  Name = 
REMARK  7 active torsions:
REMARK  status: ('A' for Active; 'I' for Inactive)
REMARK    1  A    between atoms: C_1  and  C_2
REMARK    2  A    between atoms: C_2  and  C_3
REMARK    3  A    between atoms: C_2  and  C_4
REMARK    4  A    between atoms: C_2  and  C_5
REMARK    5  A    between atoms: C_6  and  C_7
REMARK    6  A    between atoms: C_7  and  O_9
REMARK    7  A    between atoms: C_14  and  C_15
REMARK                            x       y       z     vdW  Elec       q    Type
REMARK                         _______ _______ _______ _____ _____    ______ ____
ROOT
ATOM      1  C   UNL     1       4.330   3.781  17.629  0.00  0.00    +0.000 C 
ATOM      2  C   UNL     1       5.369   4.577  17.959  0.00  0.00    +0.000 C 
ATOM      3  N   UNL     1       6.199   4.770  16.867  0.00  0.00    +0.000 N 
ATOM      4  C   UNL     1       6.019   5.817  15.998  0.00  0.00    +0.000 C 
ATOM      5  O   UNL     1       6.054   7.017  16.180  0.00  0.00    +0.000 OA
ATOM      6  C   UNL     1       5.913   4.906  14.867  0.00  0.00    +0.000 C 
ATOM      7  C   UNL     1       6.114   4.999  13.553  0.00  0.00    +0.000 C 
ATOM      8  C   UNL     1       5.671   3.817  15.881  0.00  0.00    +0.000 C 
ATOM      9  O   UNL     1       4.315   3.457  16.240  0.00  0.00    +0.000 OA
ENDROOT
BRANCH   7  10
ATOM     10  C   UNL     1       6.136   3.864  12.694  0.00  0.00    +0.000 A 
ATOM     11  C   UNL     1       5.061   3.051  12.251  0.00  0.00    +0.000 A 
ATOM     12  C   UNL     1       5.622   2.052  11.489  0.00  0.00    +0.000 A 
ATOM     13  O   UNL     1       6.970   2.202  11.427  0.00  0.00    +0.000 OA
ATOM     14  C   UNL     1       7.278   3.311  12.152  0.00  0.00    +0.000 A 
ENDBRANCH   7  10
BRANCH   1  16
ATOM     15  C   UNL     1       3.758   2.433  19.745  0.00  0.00    +0.000 C 
ATOM     16  C   UNL     1       3.234   3.114  18.467  0.00  0.00    +0.000 C 
ATOM     17  C   UNL     1       2.484   2.084  17.597  0.00  0.00    +0.000 C 
ATOM     18  C   UNL     1       2.184   4.158  18.925  0.00  0.00    +0.000 C 
ENDBRANCH   1  16
BRANCH   2  19
ATOM     19  C   UNL     1       5.818   5.072  19.284  0.00  0.00    +0.000 C 
ATOM     20  O   UNL     1       6.938   4.927  19.740  0.00  0.00    +0.000 OA
BRANCH  19  21
ATOM     21  O   UNL     1       4.864   5.784  19.926  0.00  0.00    +0.000 OA
ATOM     22  H   UNL     1       4.835   5.636  20.894  0.00  0.00    +0.000 HD
ENDBRANCH  19  21
ENDBRANCH   2  19
TORSDOF 4
ENDMDL
MODEL 4
REMARK VINA RESULT:      -6.8      1.066      1.336
REMARK  Name = 
REMARK  7 active torsions:
REMARK  status: ('A' for Active; 'I' for Inactive)
REMARK    1  A    between atoms: C_1  and  C_2
REMARK    2  A    between atoms: C_2  and  C_3
REMARK    3  A    between atoms: C_2  and  C_4
REMARK    4  A    between atoms: C_2  and  C_5
REMARK    5  A    between atoms: C_6  and  C_7
REMARK    6  A    between atoms: C_7  and  O_9
REMARK    7  A    between atoms: C_14  and  C_15
REMARK                            x       y       z     vdW  Elec       q    Type
REMARK                         _______ _______ _______ _____ _____    ______ ____
ROOT
ATOM      1  C   UNL     1       4.260   3.830  17.628  0.00  0.00    +0.000 C 
ATOM      2  C   UNL     1       5.311   4.615  17.947  0.00  0.00    +0.000 C 
ATOM      3  N   UNL     1       6.148   4.772  16.855  0.00  0.00    +0.000 N 
ATOM      4  C   UNL     1       5.990   5.803  15.964  0.00  0.00    +0.000 C 
ATOM      5  O   UNL     1       6.043   7.006  16.122  0.00  0.00    +0.000 OA
ATOM      6  C   UNL     1       5.873   4.871  14.852  0.00  0.00    +0.000 C 
ATOM      7  C   UNL     1       6.082   4.934  13.537  0.00  0.00    +0.000 C 
ATOM      8  C   UNL     1       5.609   3.807  15.887  0.00  0.00    +0.000 C 
ATOM      9  O   UNL     1       4.246   3.477  16.246  0.00  0.00    +0.000 OA
ENDROOT
BRANCH   7  10
ATOM     10  C   UNL     1       6.089   3.781  12.701  0.00  0.00    +0.000 A 
ATOM     11  C   UNL     1       7.188   3.101  12.116  0.00  0.00    +0.000 A 
ATOM     12  C   UNL     1       6.653   2.091  11.351  0.00  0.00    +0.000 A 
ATOM     13  O   UNL     1       5.298   2.098  11.435  0.00  0.00    +0.000 OA
ATOM     14  C   UNL     1       4.958   3.121  12.266  0.00  0.00    +0.000 A 
ENDBRANCH   7  10
BRANCH   1  16
ATOM     15  C   UNL     1       2.079   4.200  18.943  0.00  0.00    +0.000 C 
ATOM     16  C   UNL     1       3.150   3.198  18.475  0.00  0.00    +0.000 C 
ATOM     17  C   UNL     1       3.777   2.495  19.696  0.00  0.00    +0.000 C 
ATOM     18  C   UNL     1       2.403   2.103  17.668  0.00  0.00    +0.000 C 
ENDBRANCH   1  16
BRANCH   2  19
ATOM     19  C   UNL     1       5.762   5.130  19.264  0.00  0.00    +0.000 C 
ATOM     20  O   UNL     1       6.881   4.988  19.721  0.00  0.00    +0.000 OA
BRANCH  19  21
ATOM     21  O   UNL     1       4.811   5.855  19.895  0.00  0.00    +0.000 OA
ATOM     22  H   UNL     1       5.154   6.637  20.376  0.00  0.00    +0.000 HD
ENDBRANCH  19  21
ENDBRANCH   2  19
TORSDOF 4
ENDMDL
MODEL 5
REMARK VINA RESULT:      -6.8      1.996      3.397
REMARK  Name = 
REMARK  7 active torsions:
REMARK  status: ('A' for Active; 'I' for Inactive)
REMARK    1  A    between atoms: C_1  and  C_2
REMARK    2  A    between atoms: C_2  and  C_3
REMARK    3  A    between atoms: C_2  and  C_4
REMARK    4  A    between atoms: C_2  and  C_5
REMARK    5  A    between atoms: C_6  and  C_7
REMARK    6  A    between atoms: C_7  and  O_9
REMARK    7  A    between atoms: C_14  and  C_15
REMARK                            x       y       z     vdW  Elec       q    Type
REMARK                         _______ _______ _______ _____ _____    ______ ____
ROOT
ATOM      1  C   UNL     1       3.070   3.647  18.571  0.00  0.00    +0.000 C 
ATOM      2  C   UNL     1       4.062   3.271  19.406  0.00  0.00    +0.000 C 
ATOM      3  N   UNL     1       5.287   3.327  18.760  0.00  0.00    +0.000 N 
ATOM      4  C   UNL     1       6.063   4.458  18.777  0.00  0.00    +0.000 C 
ATOM      5  O   UNL     1       6.572   5.059  19.701  0.00  0.00    +0.000 OA
ATOM      6  C   UNL     1       6.087   4.507  17.322  0.00  0.00    +0.000 C 
ATOM      7  C   UNL     1       6.903   5.024  16.405  0.00  0.00    +0.000 C 
ATOM      8  C   UNL     1       4.909   3.566  17.361  0.00  0.00    +0.000 C 
ATOM      9  O   UNL     1       3.563   4.097  17.310  0.00  0.00    +0.000 OA
ENDROOT
BRANCH   7  10
ATOM     10  C   UNL     1       6.786   4.731  15.016  0.00  0.00    +0.000 A 
ATOM     11  C   UNL     1       5.907   3.834  14.357  0.00  0.00    +0.000 A 
ATOM     12  C   UNL     1       6.241   3.877  13.023  0.00  0.00    +0.000 A 
ATOM     13  O   UNL     1       7.261   4.749  12.817  0.00  0.00    +0.000 OA
ATOM     14  C   UNL     1       7.583   5.275  14.030  0.00  0.00    +0.000 A 
ENDBRANCH   7  10
BRANCH   1  16
ATOM     15  C   UNL     1       0.972   2.184  18.852  0.00  0.00    +0.000 C 
ATOM     16  C   UNL     1       1.544   3.606  18.697  0.00  0.00    +0.000 C 
ATOM     17  C   UNL     1       0.911   4.292  17.469  0.00  0.00    +0.000 C 
ATOM     18  C   UNL     1       1.076   4.404  19.942  0.00  0.00    +0.000 C 
ENDBRANCH   1  16
BRANCH   2  19
ATOM     19  C   UNL     1       4.002   2.661  20.757  0.00  0.00    +0.000 C 
ATOM     20  O   UNL     1       3.097   2.823  21.555  0.00  0.00    +0.000 OA
BRANCH  19  21
ATOM     21  O   UNL     1       5.038   1.826  20.999  0.00  0.00    +0.000 OA
ATOM     22  H   UNL     1       4.885   0.902  20.712  0.00  0.00    +0.000 HD
ENDBRANCH  19  21
ENDBRANCH   2  19
TORSDOF 4
ENDMDL
MODEL 6
REMARK VINA RESULT:      -6.7      3.871      6.780
REMARK  Name = 
REMARK  7 active torsions:
REMARK  status: ('A' for Active; 'I' for Inactive)
REMARK    1  A    between atoms: C_1  and  C_2
REMARK    2  A    between atoms: C_2  and  C_3
REMARK    3  A    between atoms: C_2  and  C_4
REMARK    4  A    between atoms: C_2  and  C_5
REMARK    5  A    between atoms: C_6  and  C_7
REMARK    6  A    between atoms: C_7  and  O_9
REMARK    7  A    between atoms: C_14  and  C_15
REMARK                            x       y       z     vdW  Elec       q    Type
REMARK                         _______ _______ _______ _____ _____    ______ ____
ROOT
ATOM      1  C   UNL     1       2.872   4.287  19.363  0.00  0.00    +0.000 C 
ATOM      2  C   UNL     1       3.465   4.335  18.152  0.00  0.00    +0.000 C 
ATOM      3  N   UNL     1       3.196   5.542  17.527  0.00  0.00    +0.000 N 
ATOM      4  C   UNL     1       4.016   6.632  17.675  0.00  0.00    +0.000 C 
ATOM      5  O   UNL     1       5.184   6.794  17.386  0.00  0.00    +0.000 OA
ATOM      6  C   UNL     1       2.909   7.442  18.163  0.00  0.00    +0.000 C 
ATOM      7  C   UNL     1       2.636   8.746  18.205  0.00  0.00    +0.000 C 
ATOM      8  C   UNL     1       2.180   6.144  18.401  0.00  0.00    +0.000 C 
ATOM      9  O   UNL     1       2.236   5.517  19.705  0.00  0.00    +0.000 OA
ENDROOT
BRANCH   7  10
ATOM     10  C   UNL     1       1.353   9.253  18.558  0.00  0.00    +0.000 A 
ATOM     11  C   UNL     1       0.301   9.701  17.718  0.00  0.00    +0.000 A 
ATOM     12  C   UNL     1      -0.696  10.149  18.555  0.00  0.00    +0.000 A 
ATOM     13  O   UNL     1      -0.330   9.996  19.854  0.00  0.00    +0.000 OA
ATOM     14  C   UNL     1       0.912   9.441  19.852  0.00  0.00    +0.000 A 
ENDBRANCH   7  10
BRANCH   1  16
ATOM     15  C   UNL     1       3.985   2.365  20.664  0.00  0.00    +0.000 C 
ATOM     16  C   UNL     1       2.694   3.155  20.381  0.00  0.00    +0.000 C 
ATOM     17  C   UNL     1       1.592   2.196  19.888  0.00  0.00    +0.000 C 
ATOM     18  C   UNL     1       2.215   3.717  21.745  0.00  0.00    +0.000 C 
ENDBRANCH   1  16
BRANCH   2  19
ATOM     19  C   UNL     1       4.148   3.273  17.373  0.00  0.00    +0.000 C 
ATOM     20  O   UNL     1       3.694   2.163  17.160  0.00  0.00    +0.000 OA
BRANCH  19  21
ATOM     21  O   UNL     1       5.322   3.685  16.844  0.00  0.00    +0.000 OA
ATOM     22  H   UNL     1       5.279   4.558  16.401  0.00  0.00    +0.000 HD
ENDBRANCH  19  21
ENDBRANCH   2  19
TORSDOF 4
ENDMDL
MODEL 7
REMARK VINA RESULT:      -6.6      3.639      7.842
REMARK  Name = 
REMARK  7 active torsions:
REMARK  status: ('A' for Active; 'I' for Inactive)
REMARK    1  A    between atoms: C_1  and  C_2
REMARK    2  A    between atoms: C_2  and  C_3
REMARK    3  A    between atoms: C_2  and  C_4
REMARK    4  A    between atoms: C_2  and  C_5
REMARK    5  A    between atoms: C_6  and  C_7
REMARK    6  A    between atoms: C_7  and  O_9
REMARK    7  A    between atoms: C_14  and  C_15
REMARK                            x       y       z     vdW  Elec       q    Type
REMARK                         _______ _______ _______ _____ _____    ______ ____
ROOT
ATOM      1  C   UNL     1       4.079   5.161  18.379  0.00  0.00    +0.000 C 
ATOM      2  C   UNL     1       3.813   4.206  19.295  0.00  0.00    +0.000 C 
ATOM      3  N   UNL     1       3.008   4.712  20.303  0.00  0.00    +0.000 N 
ATOM      4  C   UNL     1       1.639   4.652  20.235  0.00  0.00    +0.000 C 
ATOM      5  O   UNL     1       0.887   3.701  20.173  0.00  0.00    +0.000 OA
ATOM      6  C   UNL     1       1.533   6.096  20.389  0.00  0.00    +0.000 C 
ATOM      7  C   UNL     1       0.596   6.936  20.828  0.00  0.00    +0.000 C 
ATOM      8  C   UNL     1       2.994   6.153  20.019  0.00  0.00    +0.000 C 
ATOM      9  O   UNL     1       3.378   6.376  18.641  0.00  0.00    +0.000 OA
ENDROOT
BRANCH   7  10
ATOM     10  C   UNL     1       0.849   8.316  21.069  0.00  0.00    +0.000 A 
ATOM     11  C   UNL     1       0.800   9.410  20.166  0.00  0.00    +0.000 A 
ATOM     12  C   UNL     1       1.188  10.518  20.883  0.00  0.00    +0.000 A 
ATOM     13  O   UNL     1       1.464  10.180  22.169  0.00  0.00    +0.000 OA
ATOM     14  C   UNL     1       1.246   8.842  22.281  0.00  0.00    +0.000 A 
ENDBRANCH   7  10
BRANCH   1  16
ATOM     15  C   UNL     1       4.748   4.130  16.118  0.00  0.00    +0.000 C 
ATOM     16  C   UNL     1       5.035   5.205  17.182  0.00  0.00    +0.000 C 
ATOM     17  C   UNL     1       6.487   5.067  17.684  0.00  0.00    +0.000 C 
ATOM     18  C   UNL     1       4.943   6.574  16.459  0.00  0.00    +0.000 C 
ENDBRANCH   1  16
BRANCH   2  19
ATOM     19  C   UNL     1       4.385   2.848  19.462  0.00  0.00    +0.000 C 
ATOM     20  O   UNL     1       5.164   2.522  20.340  0.00  0.00    +0.000 OA
BRANCH  19  21
ATOM     21  O   UNL     1       3.892   1.960  18.569  0.00  0.00    +0.000 OA
ATOM     22  H   UNL     1       4.454   1.168  18.436  0.00  0.00    +0.000 HD
ENDBRANCH  19  21
ENDBRANCH   2  19
TORSDOF 4
ENDMDL
MODEL 8
REMARK VINA RESULT:      -6.6      3.689      6.937
REMARK  Name = 
REMARK  7 active torsions:
REMARK  status: ('A' for Active; 'I' for Inactive)
REMARK    1  A    between atoms: C_1  and  C_2
REMARK    2  A    between atoms: C_2  and  C_3
REMARK    3  A    between atoms: C_2  and  C_4
REMARK    4  A    between atoms: C_2  and  C_5
REMARK    5  A    between atoms: C_6  and  C_7
REMARK    6  A    between atoms: C_7  and  O_9
REMARK    7  A    between atoms: C_14  and  C_15
REMARK                            x       y       z     vdW  Elec       q    Type
REMARK                         _______ _______ _______ _____ _____    ______ ____
ROOT
ATOM      1  C   UNL     1       5.369   5.711  18.209  0.00  0.00    +0.000 C 
ATOM      2  C   UNL     1       4.503   4.768  18.634  0.00  0.00    +0.000 C 
ATOM      3  N   UNL     1       3.267   5.331  18.906  0.00  0.00    +0.000 N 
ATOM      4  C   UNL     1       2.286   5.421  17.951  0.00  0.00    +0.000 C 
ATOM      5  O   UNL     1       1.705   4.559  17.325  0.00  0.00    +0.000 OA
ATOM      6  C   UNL     1       2.197   6.863  18.128  0.00  0.00    +0.000 C 
ATOM      7  C   UNL     1       1.260   7.788  17.917  0.00  0.00    +0.000 C 
ATOM      8  C   UNL     1       3.536   6.772  18.815  0.00  0.00    +0.000 C 
ATOM      9  O   UNL     1       4.750   6.987  18.054  0.00  0.00    +0.000 OA
ENDROOT
BRANCH   7  10
ATOM     10  C   UNL     1       1.378   9.126  18.389  0.00  0.00    +0.000 A 
ATOM     11  C   UNL     1       0.717   9.758  19.474  0.00  0.00    +0.000 A 
ATOM     12  C   UNL     1       1.136  11.069  19.468  0.00  0.00    +0.000 A 
ATOM     13  O   UNL     1       2.017  11.282  18.458  0.00  0.00    +0.000 OA
ATOM     14  C   UNL     1       2.171  10.096  17.810  0.00  0.00    +0.000 A 
ENDBRANCH   7  10
BRANCH   1  16
ATOM     15  C   UNL     1       7.321   4.555  16.993  0.00  0.00    +0.000 C 
ATOM     16  C   UNL     1       6.878   5.683  17.944  0.00  0.00    +0.000 C 
ATOM     17  C   UNL     1       7.629   5.558  19.285  0.00  0.00    +0.000 C 
ATOM     18  C   UNL     1       7.345   7.012  17.295  0.00  0.00    +0.000 C 
ENDBRANCH   1  16
BRANCH   2  19
ATOM     19  C   UNL     1       4.733   3.351  19.011  0.00  0.00    +0.000 C 
ATOM     20  O   UNL     1       5.252   2.982  20.049  0.00  0.00    +0.000 OA
BRANCH  19  21
ATOM     21  O   UNL     1       4.231   2.481  18.106  0.00  0.00    +0.000 OA
ATOM     22  H   UNL     1       4.147   2.846  17.200  0.00  0.00    +0.000 HD
ENDBRANCH  19  21
ENDBRANCH   2  19
TORSDOF 4
ENDMDL
MODEL 9
REMARK VINA RESULT:      -6.5      3.893      6.734
REMARK  Name = 
REMARK  7 active torsions:
REMARK  status: ('A' for Active; 'I' for Inactive)
REMARK    1  A    between atoms: C_1  and  C_2
REMARK    2  A    between atoms: C_2  and  C_3
REMARK    3  A    between atoms: C_2  and  C_4
REMARK    4  A    between atoms: C_2  and  C_5
REMARK    5  A    between atoms: C_6  and  C_7
REMARK    6  A    between atoms: C_7  and  O_9
REMARK    7  A    between atoms: C_14  and  C_15
REMARK                            x       y       z     vdW  Elec       q    Type
REMARK                         _______ _______ _______ _____ _____    ______ ____
ROOT
ATOM      1  C   UNL     1       2.855   4.308  19.382  0.00  0.00    +0.000 C 
ATOM      2  C   UNL     1       3.407   4.346  18.151  0.00  0.00    +0.000 C 
ATOM      3  N   UNL     1       3.138   5.557  17.536  0.00  0.00    +0.000 N 
ATOM      4  C   UNL     1       3.981   6.633  17.655  0.00  0.00    +0.000 C 
ATOM      5  O   UNL     1       5.141   6.775  17.327  0.00  0.00    +0.000 OA
ATOM      6  C   UNL     1       2.905   7.462  18.181  0.00  0.00    +0.000 C 
ATOM      7  C   UNL     1       2.656   8.770  18.231  0.00  0.00    +0.000 C 
ATOM      8  C   UNL     1       2.163   6.177  18.443  0.00  0.00    +0.000 C 
ATOM      9  O   UNL     1       2.251   5.549  19.745  0.00  0.00    +0.000 OA
ENDROOT
BRANCH   7  10
ATOM     10  C   UNL     1       1.394   9.300  18.628  0.00  0.00    +0.000 A 
ATOM     11  C   UNL     1       0.882   9.519  19.932  0.00  0.00    +0.000 A 
ATOM     12  C   UNL     1      -0.402   9.987  19.767  0.00  0.00    +0.000 A 
ATOM     13  O   UNL     1      -0.708  10.080  18.448  0.00  0.00    +0.000 OA
ATOM     14  C   UNL     1       0.390   9.671  17.758  0.00  0.00    +0.000 A 
ENDBRANCH   7  10
BRANCH   1  16
ATOM     15  C   UNL     1       2.225   3.660  21.791  0.00  0.00    +0.000 C 
ATOM     16  C   UNL     1       2.691   3.179  20.405  0.00  0.00    +0.000 C 
ATOM     17  C   UNL     1       4.024   2.415  20.539  0.00  0.00    +0.000 C 
ATOM     18  C   UNL     1       1.636   2.150  19.920  0.00  0.00    +0.000 C 
ENDBRANCH   1  16
BRANCH   2  19
ATOM     19  C   UNL     1       4.045   3.272  17.349  0.00  0.00    +0.000 C 
ATOM     20  O   UNL     1       3.535   2.196  17.094  0.00  0.00    +0.000 OA
BRANCH  19  21
ATOM     21  O   UNL     1       5.249   3.637  16.852  0.00  0.00    +0.000 OA
ATOM     22  H   UNL     1       5.218   4.407  16.247  0.00  0.00    +0.000 HD
ENDBRANCH  19  21
ENDBRANCH   2  19
TORSDOF 4
ENDMDL
