MODEL 1
REMARK VINA RESULT:      -8.7      0.000      0.000
REMARK  Name = 
REMARK  7 active torsions:
REMARK  status: ('A' for Active; 'I' for Inactive)
REMARK    1  A    between atoms: C_1  and  O_2
REMARK    2  A    between atoms: O_2  and  C_3
REMARK    3  A    between atoms: C_6  and  C_7
REMARK    4  A    between atoms: C_9  and  C_10
REMARK    5  A    between atoms: C_20  and  C_21
REMARK    6  A    between atoms: C_31  and  O_32
REMARK    7  A    between atoms: O_32  and  C_33
REMARK                            x       y       z     vdW  Elec       q    Type
REMARK                         _______ _______ _______ _____ _____    ______ ____
ROOT
ATOM      1  C   UNL     1       0.481  10.564  18.746  0.00  0.00    +0.000 A 
ATOM      2  C   UNL     1       1.175  11.789  18.761  0.00  0.00    +0.000 A 
ATOM      3  C   UNL     1       0.487  12.972  18.633  0.00  0.00    +0.000 A 
ATOM      4  N   UNL     1      -0.904  12.937  18.377  0.00  0.00    +0.000 NA
ATOM      5  C   UNL     1      -1.595  11.698  18.328  0.00  0.00    +0.000 A 
ATOM      6  C   UNL     1      -0.913  10.531  18.568  0.00  0.00    +0.000 A 
ENDROOT
BRANCH   3   7
ATOM      7  C   UNL     1       1.293  14.269  18.712  0.00  0.00    +0.000 A 
ATOM      8  C   UNL     1       0.814  15.355  19.421  0.00  0.00    +0.000 A 
ATOM      9  N   UNL     1       1.473  16.451  18.931  0.00  0.00    +0.000 N 
ATOM     10  C   UNL     1       2.781  16.091  18.766  0.00  0.00    +0.000 A 
ATOM     11  C   UNL     1       3.933  16.902  18.809  0.00  0.00    +0.000 A 
ATOM     12  C   UNL     1       5.164  16.293  18.593  0.00  0.00    +0.000 A 
ATOM     13  C   UNL     1       5.203  14.948  18.263  0.00  0.00    +0.000 A 
ATOM     14  C   UNL     1       4.013  14.161  18.187  0.00  0.00    +0.000 A 
ATOM     15  C   UNL     1       2.733  14.710  18.507  0.00  0.00    +0.000 A 
ATOM     16  H   UNL     1       1.052  17.203  18.408  0.00  0.00    +0.000 HD
ENDBRANCH   3   7
BRANCH   5  17
ATOM     17  C   UNL     1      -3.084  11.604  17.994  0.00  0.00    +0.000 A 
ATOM     18  C   UNL     1      -3.514  10.738  17.008  0.00  0.00    +0.000 A 
ATOM     19  N   UNL     1      -4.765  11.147  16.637  0.00  0.00    +0.000 N 
ATOM     20  C   UNL     1      -5.442  11.478  17.776  0.00  0.00    +0.000 A 
ATOM     21  C   UNL     1      -6.827  11.510  18.012  0.00  0.00    +0.000 A 
ATOM     22  C   UNL     1      -7.268  11.909  19.261  0.00  0.00    +0.000 A 
ATOM     23  C   UNL     1      -6.321  12.328  20.206  0.00  0.00    +0.000 A 
ATOM     24  C   UNL     1      -4.920  12.354  19.919  0.00  0.00    +0.000 A 
ATOM     25  C   UNL     1      -4.421  11.868  18.675  0.00  0.00    +0.000 A 
ATOM     26  H   UNL     1      -5.007  11.547  15.741  0.00  0.00    +0.000 HD
ENDBRANCH   5  17
BRANCH   1  30
ATOM     27  C   UNL     1       2.574   6.885  19.189  0.00  0.00    +0.000 A 
ATOM     28  C   UNL     1       2.549   7.537  17.962  0.00  0.00    +0.000 A 
ATOM     29  C   UNL     1       1.850   8.725  17.826  0.00  0.00    +0.000 A 
ATOM     30  C   UNL     1       1.225   9.316  18.937  0.00  0.00    +0.000 A 
ATOM     31  C   UNL     1       1.323   8.675  20.215  0.00  0.00    +0.000 A 
ATOM     32  C   UNL     1       1.961   7.453  20.319  0.00  0.00    +0.000 A 
BRANCH  27  34
ATOM     33  C   UNL     1       3.250   5.009  17.946  0.00  0.00    +0.000 C 
ATOM     34  O   UNL     1       3.262   5.703  19.209  0.00  0.00    +0.000 OA
ENDBRANCH  27  34
BRANCH  31  35
ATOM     35  O   UNL     1       0.769   9.362  21.263  0.00  0.00    +0.000 OA
ATOM     36  C   UNL     1      -0.336   8.773  21.931  0.00  0.00    +0.000 C 
ENDBRANCH  31  35
ENDBRANCH   1  30
TORSDOF 5
ENDMDL
MODEL 2
REMARK VINA RESULT:      -8.7      0.434      7.092
REMARK  Name = 
REMARK  7 active torsions:
REMARK  status: ('A' for Active; 'I' for Inactive)
REMARK    1  A    between atoms: C_1  and  O_2
REMARK    2  A    between atoms: O_2  and  C_3
REMARK    3  A    between atoms: C_6  and  C_7
REMARK    4  A    between atoms: C_9  and  C_10
REMARK    5  A    between atoms: C_20  and  C_21
REMARK    6  A    between atoms: C_31  and  O_32
REMARK    7  A    between atoms: O_32  and  C_33
REMARK                            x       y       z     vdW  Elec       q    Type
REMARK                         _______ _______ _______ _____ _____    ______ ____
ROOT
ATOM      1  C   UNL     1       0.496  10.552  18.745  0.00  0.00    +0.000 A 
ATOM      2  C   UNL     1      -0.892  10.513  18.510  0.00  0.00    +0.000 A 
ATOM      3  C   UNL     1      -1.575  11.671  18.227  0.00  0.00    +0.000 A 
ATOM      4  N   UNL     1      -0.890  12.908  18.285  0.00  0.00    +0.000 NA
ATOM      5  C   UNL     1       0.502  12.947  18.557  0.00  0.00    +0.000 A 
ATOM      6  C   UNL     1       1.193  11.773  18.727  0.00  0.00    +0.000 A 
ENDROOT
BRANCH   3   7
ATOM      7  C   UNL     1      -3.070  11.554  17.927  0.00  0.00    +0.000 A 
ATOM      8  C   UNL     1      -3.525  10.717  16.925  0.00  0.00    +0.000 A 
ATOM      9  N   UNL     1      -4.774  11.169  16.589  0.00  0.00    +0.000 N 
ATOM     10  C   UNL     1      -5.416  11.474  17.756  0.00  0.00    +0.000 A 
ATOM     11  C   UNL     1      -6.797  11.463  18.035  0.00  0.00    +0.000 A 
ATOM     12  C   UNL     1      -7.206  11.835  19.310  0.00  0.00    +0.000 A 
ATOM     13  C   UNL     1      -6.259  12.278  20.220  0.00  0.00    +0.000 A 
ATOM     14  C   UNL     1      -4.868  12.318  19.894  0.00  0.00    +0.000 A 
ATOM     15  C   UNL     1      -4.383  11.843  18.636  0.00  0.00    +0.000 A 
ATOM     16  H   UNL     1      -5.029  11.588  15.710  0.00  0.00    +0.000 HD
ENDBRANCH   3   7
BRANCH   5  17
ATOM     17  C   UNL     1       1.274  14.260  18.690  0.00  0.00    +0.000 A 
ATOM     18  C   UNL     1       0.769  15.277  19.476  0.00  0.00    +0.000 A 
ATOM     19  N   UNL     1       1.402  16.427  19.094  0.00  0.00    +0.000 N 
ATOM     20  C   UNL     1       2.722  16.125  18.908  0.00  0.00    +0.000 A 
ATOM     21  C   UNL     1       3.845  16.967  18.966  0.00  0.00    +0.000 A 
ATOM     22  C   UNL     1       5.089  16.417  18.712  0.00  0.00    +0.000 A 
ATOM     23  C   UNL     1       5.162  15.067  18.341  0.00  0.00    +0.000 A 
ATOM     24  C   UNL     1       3.998  14.246  18.219  0.00  0.00    +0.000 A 
ATOM     25  C   UNL     1       2.708  14.754  18.558  0.00  0.00    +0.000 A 
ATOM     26  H   UNL     1       0.965  17.205  18.620  0.00  0.00    +0.000 HD
ENDBRANCH   5  17
BRANCH   1  30
ATOM     27  C   UNL     1       2.523   6.859  19.352  0.00  0.00    +0.000 A 
ATOM     28  C   UNL     1       2.523   7.465  18.101  0.00  0.00    +0.000 A 
ATOM     29  C   UNL     1       1.846   8.658  17.912  0.00  0.00    +0.000 A 
ATOM     30  C   UNL     1       1.217   9.300  18.992  0.00  0.00    +0.000 A 
ATOM     31  C   UNL     1       1.289   8.706  20.294  0.00  0.00    +0.000 A 
ATOM     32  C   UNL     1       1.906   7.479  20.452  0.00  0.00    +0.000 A 
BRANCH  27  34
ATOM     33  C   UNL     1       2.609   4.738  20.359  0.00  0.00    +0.000 C 
ATOM     34  O   UNL     1       3.191   5.668  19.425  0.00  0.00    +0.000 OA
ENDBRANCH  27  34
BRANCH  31  35
ATOM     35  O   UNL     1       0.734   9.441  21.309  0.00  0.00    +0.000 OA
ATOM     36  C   UNL     1      -0.354   8.871  22.021  0.00  0.00    +0.000 C 
ENDBRANCH  31  35
ENDBRANCH   1  30
TORSDOF 5
ENDMDL
MODEL 3
REMARK VINA RESULT:      -8.5      2.346      6.806
REMARK  Name = 
REMARK  7 active torsions:
REMARK  status: ('A' for Active; 'I' for Inactive)
REMARK    1  A    between atoms: C_1  and  O_2
REMARK    2  A    between atoms: O_2  and  C_3
REMARK    3  A    between atoms: C_6  and  C_7
REMARK    4  A    between atoms: C_9  and  C_10
REMARK    5  A    between atoms: C_20  and  C_21
REMARK    6  A    between atoms: C_31  and  O_32
REMARK    7  A    between atoms: O_32  and  C_33
REMARK                            x       y       z     vdW  Elec       q    Type
REMARK                         _______ _______ _______ _____ _____    ______ ____
ROOT
ATOM      1  C   UNL     1      -1.425  11.725  18.618  0.00  0.00    +0.000 A 
ATOM      2  C   UNL     1      -0.698  12.930  18.578  0.00  0.00    +0.000 A 
ATOM      3  C   UNL     1       0.659  12.923  18.793  0.00  0.00    +0.000 A 
ATOM      4  N   UNL     1       1.293  11.712  19.162  0.00  0.00    +0.000 NA
ATOM      5  C   UNL     1       0.550  10.505  19.235  0.00  0.00    +0.000 A 
ATOM      6  C   UNL     1      -0.784  10.508  18.909  0.00  0.00    +0.000 A 
ENDROOT
BRANCH   3   7
ATOM      7  C   UNL     1       1.399  14.256  18.683  0.00  0.00    +0.000 A 
ATOM      8  C   UNL     1       0.849  15.413  19.204  0.00  0.00    +0.000 A 
ATOM      9  N   UNL     1       1.467  16.453  18.560  0.00  0.00    +0.000 N 
ATOM     10  C   UNL     1       2.795  16.140  18.480  0.00  0.00    +0.000 A 
ATOM     11  C   UNL     1       3.905  17.007  18.417  0.00  0.00    +0.000 A 
ATOM     12  C   UNL     1       5.169  16.437  18.323  0.00  0.00    +0.000 A 
ATOM     13  C   UNL     1       5.282  15.060  18.210  0.00  0.00    +0.000 A 
ATOM     14  C   UNL     1       4.134  14.210  18.235  0.00  0.00    +0.000 A 
ATOM     15  C   UNL     1       2.821  14.735  18.440  0.00  0.00    +0.000 A 
ATOM     16  H   UNL     1       1.025  17.091  17.918  0.00  0.00    +0.000 HD
ENDBRANCH   3   7
BRANCH   5  17
ATOM     17  C   UNL     1       1.175   9.185  19.687  0.00  0.00    +0.000 A 
ATOM     18  C   UNL     1       0.620   8.489  20.743  0.00  0.00    +0.000 A 
ATOM     19  N   UNL     1       1.575   7.619  21.192  0.00  0.00    +0.000 N 
ATOM     20  C   UNL     1       2.184   7.078  20.094  0.00  0.00    +0.000 A 
ATOM     21  C   UNL     1       2.868   5.858  19.966  0.00  0.00    +0.000 A 
ATOM     22  C   UNL     1       3.423   5.546  18.738  0.00  0.00    +0.000 A 
ATOM     23  C   UNL     1       3.339   6.489  17.704  0.00  0.00    +0.000 A 
ATOM     24  C   UNL     1       2.699   7.755  17.879  0.00  0.00    +0.000 A 
ATOM     25  C   UNL     1       2.039   8.077  19.102  0.00  0.00    +0.000 A 
ATOM     26  H   UNL     1       2.047   7.677  22.084  0.00  0.00    +0.000 HD
ENDBRANCH   5  17
BRANCH   1  30
ATOM     27  C   UNL     1      -5.622  11.715  17.912  0.00  0.00    +0.000 A 
ATOM     28  C   UNL     1      -5.113  12.174  19.121  0.00  0.00    +0.000 A 
ATOM     29  C   UNL     1      -3.747  12.156  19.345  0.00  0.00    +0.000 A 
ATOM     30  C   UNL     1      -2.863  11.746  18.333  0.00  0.00    +0.000 A 
ATOM     31  C   UNL     1      -3.394  11.348  17.063  0.00  0.00    +0.000 A 
ATOM     32  C   UNL     1      -4.764  11.301  16.880  0.00  0.00    +0.000 A 
BRANCH  27  34
ATOM     33  C   UNL     1      -7.607  12.751  18.624  0.00  0.00    +0.000 C 
ATOM     34  O   UNL     1      -6.986  11.742  17.805  0.00  0.00    +0.000 OA
ENDBRANCH  27  34
BRANCH  31  35
ATOM     35  O   UNL     1      -2.464  11.054  16.101  0.00  0.00    +0.000 OA
ATOM     36  C   UNL     1      -2.906  10.370  14.939  0.00  0.00    +0.000 C 
ENDBRANCH  31  35
ENDBRANCH   1  30
TORSDOF 5
ENDMDL
MODEL 4
REMARK VINA RESULT:      -8.5      2.347      8.228
REMARK  Name = 
REMARK  7 active torsions:
REMARK  status: ('A' for Active; 'I' for Inactive)
REMARK    1  A    between atoms: C_1  and  O_2
REMARK    2  A    between atoms: O_2  and  C_3
REMARK    3  A    between atoms: C_6  and  C_7
REMARK    4  A    between atoms: C_9  and  C_10
REMARK    5  A    between atoms: C_20  and  C_21
REMARK    6  A    between atoms: C_31  and  O_32
REMARK    7  A    between atoms: O_32  and  C_33
REMARK                            x       y       z     vdW  Elec       q    Type
REMARK                         _______ _______ _______ _____ _____    ______ ____
ROOT
ATOM      1  C   UNL     1      -1.465  11.752  18.715  0.00  0.00    +0.000 A 
ATOM      2  C   UNL     1      -0.823  10.540  19.033  0.00  0.00    +0.000 A 
ATOM      3  C   UNL     1       0.512  10.533  19.358  0.00  0.00    +0.000 A 
ATOM      4  N   UNL     1       1.253  11.735  19.258  0.00  0.00    +0.000 NA
ATOM      5  C   UNL     1       0.609  12.948  18.902  0.00  0.00    +0.000 A 
ATOM      6  C   UNL     1      -0.748  12.960  18.690  0.00  0.00    +0.000 A 
ENDROOT
BRANCH   3   7
ATOM      7  C   UNL     1       1.137   9.193  19.747  0.00  0.00    +0.000 A 
ATOM      8  C   UNL     1       0.620   8.450  20.793  0.00  0.00    +0.000 A 
ATOM      9  N   UNL     1       1.621   7.604  21.191  0.00  0.00    +0.000 N 
ATOM     10  C   UNL     1       2.212   7.122  20.057  0.00  0.00    +0.000 A 
ATOM     11  C   UNL     1       2.880   5.897  19.861  0.00  0.00    +0.000 A 
ATOM     12  C   UNL     1       3.415   5.643  18.603  0.00  0.00    +0.000 A 
ATOM     13  C   UNL     1       3.347   6.627  17.630  0.00  0.00    +0.000 A 
ATOM     14  C   UNL     1       2.700   7.877  17.873  0.00  0.00    +0.000 A 
ATOM     15  C   UNL     1       2.037   8.147  19.110  0.00  0.00    +0.000 A 
ATOM     16  H   UNL     1       2.104   7.642  22.074  0.00  0.00    +0.000 HD
ENDBRANCH   3   7
BRANCH   5  17
ATOM     17  C   UNL     1       1.375  14.259  18.723  0.00  0.00    +0.000 A 
ATOM     18  C   UNL     1       0.843  15.437  19.209  0.00  0.00    +0.000 A 
ATOM     19  N   UNL     1       1.487  16.459  18.568  0.00  0.00    +0.000 N 
ATOM     20  C   UNL     1       2.813  16.132  18.506  0.00  0.00    +0.000 A 
ATOM     21  C   UNL     1       3.932  16.972  18.384  0.00  0.00    +0.000 A 
ATOM     22  C   UNL     1       5.184  16.387  18.316  0.00  0.00    +0.000 A 
ATOM     23  C   UNL     1       5.271  14.988  18.302  0.00  0.00    +0.000 A 
ATOM     24  C   UNL     1       4.112  14.152  18.356  0.00  0.00    +0.000 A 
ATOM     25  C   UNL     1       2.812  14.717  18.514  0.00  0.00    +0.000 A 
ATOM     26  H   UNL     1       1.064  17.088  17.899  0.00  0.00    +0.000 HD
ENDBRANCH   5  17
BRANCH   1  30
ATOM     27  C   UNL     1      -5.660  11.670  17.994  0.00  0.00    +0.000 A 
ATOM     28  C   UNL     1      -5.161  12.155  19.197  0.00  0.00    +0.000 A 
ATOM     29  C   UNL     1      -3.796  12.160  19.427  0.00  0.00    +0.000 A 
ATOM     30  C   UNL     1      -2.902  11.747  18.424  0.00  0.00    +0.000 A 
ATOM     31  C   UNL     1      -3.422  11.323  17.158  0.00  0.00    +0.000 A 
ATOM     32  C   UNL     1      -4.791  11.254  16.971  0.00  0.00    +0.000 A 
BRANCH  27  34
ATOM     33  C   UNL     1      -7.608  12.981  18.054  0.00  0.00    +0.000 C 
ATOM     34  O   UNL     1      -7.023  11.676  17.881  0.00  0.00    +0.000 OA
ENDBRANCH  27  34
BRANCH  31  35
ATOM     35  O   UNL     1      -2.484  11.028  16.204  0.00  0.00    +0.000 OA
ATOM     36  C   UNL     1      -2.930  10.411  15.006  0.00  0.00    +0.000 C 
ENDBRANCH  31  35
ENDBRANCH   1  30
TORSDOF 5
ENDMDL
MODEL 5
REMARK VINA RESULT:      -8.4      0.986      6.693
REMARK  Name = 
REMARK  7 active torsions:
REMARK  status: ('A' for Active; 'I' for Inactive)
REMARK    1  A    between atoms: C_1  and  O_2
REMARK    2  A    between atoms: O_2  and  C_3
REMARK    3  A    between atoms: C_6  and  C_7
REMARK    4  A    between atoms: C_9  and  C_10
REMARK    5  A    between atoms: C_20  and  C_21
REMARK    6  A    between atoms: C_31  and  O_32
REMARK    7  A    between atoms: O_32  and  C_33
REMARK                            x       y       z     vdW  Elec       q    Type
REMARK                         _______ _______ _______ _____ _____    ______ ____
ROOT
ATOM      1  C   UNL     1       0.447  10.523  18.785  0.00  0.00    +0.000 A 
ATOM      2  C   UNL     1      -0.937  10.441  18.544  0.00  0.00    +0.000 A 
ATOM      3  C   UNL     1      -1.673  11.587  18.361  0.00  0.00    +0.000 A 
ATOM      4  N   UNL     1      -1.045  12.844  18.527  0.00  0.00    +0.000 NA
ATOM      5  C   UNL     1       0.345  12.922  18.804  0.00  0.00    +0.000 A 
ATOM      6  C   UNL     1       1.089  11.770  18.874  0.00  0.00    +0.000 A 
ENDROOT
BRANCH   3   7
ATOM      7  C   UNL     1      -3.161  11.428  18.049  0.00  0.00    +0.000 A 
ATOM      8  C   UNL     1      -3.593  10.497  17.122  0.00  0.00    +0.000 A 
ATOM      9  N   UNL     1      -4.839  10.904  16.725  0.00  0.00    +0.000 N 
ATOM     10  C   UNL     1      -5.503  11.312  17.848  0.00  0.00    +0.000 A 
ATOM     11  C   UNL     1      -6.889  11.314  18.103  0.00  0.00    +0.000 A 
ATOM     12  C   UNL     1      -7.323  11.799  19.331  0.00  0.00    +0.000 A 
ATOM     13  C   UNL     1      -6.395  12.335  20.211  0.00  0.00    +0.000 A 
ATOM     14  C   UNL     1      -5.000  12.356  19.905  0.00  0.00    +0.000 A 
ATOM     15  C   UNL     1      -4.488  11.771  18.706  0.00  0.00    +0.000 A 
ATOM     16  H   UNL     1      -5.082  11.237  15.806  0.00  0.00    +0.000 HD
ENDBRANCH   3   7
BRANCH   5  17
ATOM     17  C   UNL     1       1.057  14.252  19.052  0.00  0.00    +0.000 A 
ATOM     18  C   UNL     1       2.435  14.315  18.994  0.00  0.00    +0.000 A 
ATOM     19  N   UNL     1       2.810  15.457  19.644  0.00  0.00    +0.000 N 
ATOM     20  C   UNL     1       1.937  16.443  19.276  0.00  0.00    +0.000 A 
ATOM     21  C   UNL     1       2.117  17.836  19.272  0.00  0.00    +0.000 A 
ATOM     22  C   UNL     1       1.057  18.631  18.873  0.00  0.00    +0.000 A 
ATOM     23  C   UNL     1      -0.162  18.015  18.558  0.00  0.00    +0.000 A 
ATOM     24  C   UNL     1      -0.343  16.599  18.638  0.00  0.00    +0.000 A 
ATOM     25  C   UNL     1       0.749  15.741  18.961  0.00  0.00    +0.000 A 
ATOM     26  H   UNL     1       3.310  15.494  20.522  0.00  0.00    +0.000 HD
ENDBRANCH   5  17
BRANCH   1  30
ATOM     27  C   UNL     1       2.639   6.885  19.077  0.00  0.00    +0.000 A 
ATOM     28  C   UNL     1       2.594   7.586  17.878  0.00  0.00    +0.000 A 
ATOM     29  C   UNL     1       1.864   8.759  17.791  0.00  0.00    +0.000 A 
ATOM     30  C   UNL     1       1.225   9.287  18.925  0.00  0.00    +0.000 A 
ATOM     31  C   UNL     1       1.342   8.598  20.176  0.00  0.00    +0.000 A 
ATOM     32  C   UNL     1       2.013   7.390  20.229  0.00  0.00    +0.000 A 
BRANCH  27  34
ATOM     33  C   UNL     1       3.189   4.971  17.831  0.00  0.00    +0.000 C 
ATOM     34  O   UNL     1       3.358   5.722  19.048  0.00  0.00    +0.000 OA
ENDBRANCH  27  34
BRANCH  31  35
ATOM     35  O   UNL     1       0.772   9.227  21.251  0.00  0.00    +0.000 OA
ATOM     36  C   UNL     1      -0.371   8.626  21.841  0.00  0.00    +0.000 C 
ENDBRANCH  31  35
ENDBRANCH   1  30
TORSDOF 5
ENDMDL
MODEL 6
REMARK VINA RESULT:      -8.4      2.538      7.036
REMARK  Name = 
REMARK  7 active torsions:
REMARK  status: ('A' for Active; 'I' for Inactive)
REMARK    1  A    between atoms: C_1  and  O_2
REMARK    2  A    between atoms: O_2  and  C_3
REMARK    3  A    between atoms: C_6  and  C_7
REMARK    4  A    between atoms: C_9  and  C_10
REMARK    5  A    between atoms: C_20  and  C_21
REMARK    6  A    between atoms: C_31  and  O_32
REMARK    7  A    between atoms: O_32  and  C_33
REMARK                            x       y       z     vdW  Elec       q    Type
REMARK                         _______ _______ _______ _____ _____    ______ ____
ROOT
ATOM      1  C   UNL     1      -1.504  11.730  18.686  0.00  0.00    +0.000 A 
ATOM      2  C   UNL     1      -0.809  12.954  18.642  0.00  0.00    +0.000 A 
ATOM      3  C   UNL     1       0.552  12.979  18.827  0.00  0.00    +0.000 A 
ATOM      4  N   UNL     1       1.225  11.783  19.170  0.00  0.00    +0.000 NA
ATOM      5  C   UNL     1       0.515  10.556  19.248  0.00  0.00    +0.000 A 
ATOM      6  C   UNL     1      -0.825  10.528  18.950  0.00  0.00    +0.000 A 
ENDROOT
BRANCH   3   7
ATOM      7  C   UNL     1       1.255  14.333  18.714  0.00  0.00    +0.000 A 
ATOM      8  C   UNL     1       2.592  14.407  18.372  0.00  0.00    +0.000 A 
ATOM      9  N   UNL     1       3.029  15.631  18.805  0.00  0.00    +0.000 N 
ATOM     10  C   UNL     1       2.053  16.536  18.498  0.00  0.00    +0.000 A 
ATOM     11  C   UNL     1       2.178  17.915  18.233  0.00  0.00    +0.000 A 
ATOM     12  C   UNL     1       1.018  18.631  17.958  0.00  0.00    +0.000 A 
ATOM     13  C   UNL     1      -0.207  17.988  18.038  0.00  0.00    +0.000 A 
ATOM     14  C   UNL     1      -0.303  16.597  18.349  0.00  0.00    +0.000 A 
ATOM     15  C   UNL     1       0.862  15.790  18.533  0.00  0.00    +0.000 A 
ATOM     16  H   UNL     1       3.694  15.788  19.547  0.00  0.00    +0.000 HD
ENDBRANCH   3   7
BRANCH   5  17
ATOM     17  C   UNL     1       1.184   9.249  19.673  0.00  0.00    +0.000 A 
ATOM     18  C   UNL     1       0.671   8.529  20.734  0.00  0.00    +0.000 A 
ATOM     19  N   UNL     1       1.658   7.680  21.152  0.00  0.00    +0.000 N 
ATOM     20  C   UNL     1       2.255   7.164  20.035  0.00  0.00    +0.000 A 
ATOM     21  C   UNL     1       2.967   5.963  19.880  0.00  0.00    +0.000 A 
ATOM     22  C   UNL     1       3.502   5.677  18.637  0.00  0.00    +0.000 A 
ATOM     23  C   UNL     1       3.370   6.627  17.614  0.00  0.00    +0.000 A 
ATOM     24  C   UNL     1       2.702   7.875  17.816  0.00  0.00    +0.000 A 
ATOM     25  C   UNL     1       2.062   8.168  19.057  0.00  0.00    +0.000 A 
ATOM     26  H   UNL     1       2.148   7.741  22.034  0.00  0.00    +0.000 HD
ENDBRANCH   5  17
BRANCH   1  30
ATOM     27  C   UNL     1      -5.714  11.617  18.071  0.00  0.00    +0.000 A 
ATOM     28  C   UNL     1      -5.191  12.067  19.278  0.00  0.00    +0.000 A 
ATOM     29  C   UNL     1      -3.820  12.083  19.472  0.00  0.00    +0.000 A 
ATOM     30  C   UNL     1      -2.948  11.716  18.433  0.00  0.00    +0.000 A 
ATOM     31  C   UNL     1      -3.496  11.328  17.167  0.00  0.00    +0.000 A 
ATOM     32  C   UNL     1      -4.868  11.247  17.013  0.00  0.00    +0.000 A 
BRANCH  27  34
ATOM     33  C   UNL     1      -7.662  12.925  17.958  0.00  0.00    +0.000 C 
ATOM     34  O   UNL     1      -7.080  11.608  17.994  0.00  0.00    +0.000 OA
ENDBRANCH  27  34
BRANCH  31  35
ATOM     35  O   UNL     1      -2.579  11.078  16.179  0.00  0.00    +0.000 OA
ATOM     36  C   UNL     1      -3.036  10.431  15.001  0.00  0.00    +0.000 C 
ENDBRANCH  31  35
ENDBRANCH   1  30
TORSDOF 5
ENDMDL
MODEL 7
REMARK VINA RESULT:      -8.2      2.537      7.841
REMARK  Name = 
REMARK  7 active torsions:
REMARK  status: ('A' for Active; 'I' for Inactive)
REMARK    1  A    between atoms: C_1  and  O_2
REMARK    2  A    between atoms: O_2  and  C_3
REMARK    3  A    between atoms: C_6  and  C_7
REMARK    4  A    between atoms: C_9  and  C_10
REMARK    5  A    between atoms: C_20  and  C_21
REMARK    6  A    between atoms: C_31  and  O_32
REMARK    7  A    between atoms: O_32  and  C_33
REMARK                            x       y       z     vdW  Elec       q    Type
REMARK                         _______ _______ _______ _____ _____    ______ ____
ROOT
ATOM      1  C   UNL     1      -1.552  11.805  18.746  0.00  0.00    +0.000 A 
ATOM      2  C   UNL     1      -0.885  10.605  19.061  0.00  0.00    +0.000 A 
ATOM      3  C   UNL     1       0.453  10.622  19.372  0.00  0.00    +0.000 A 
ATOM      4  N   UNL     1       1.172  11.837  19.263  0.00  0.00    +0.000 NA
ATOM      5  C   UNL     1       0.503  13.038  18.911  0.00  0.00    +0.000 A 
ATOM      6  C   UNL     1      -0.856  13.026  18.713  0.00  0.00    +0.000 A 
ENDROOT
BRANCH   3   7
ATOM      7  C   UNL     1       1.106   9.294  19.757  0.00  0.00    +0.000 A 
ATOM      8  C   UNL     1       0.616   8.548  20.813  0.00  0.00    +0.000 A 
ATOM      9  N   UNL     1       1.636   7.720  21.200  0.00  0.00    +0.000 N 
ATOM     10  C   UNL     1       2.219   7.243  20.060  0.00  0.00    +0.000 A 
ATOM     11  C   UNL     1       2.904   6.028  19.859  0.00  0.00    +0.000 A 
ATOM     12  C   UNL     1       3.426   5.778  18.595  0.00  0.00    +0.000 A 
ATOM     13  C   UNL     1       3.329   6.757  17.619  0.00  0.00    +0.000 A 
ATOM     14  C   UNL     1       2.664   7.997  17.866  0.00  0.00    +0.000 A 
ATOM     15  C   UNL     1       2.014   8.261  19.112  0.00  0.00    +0.000 A 
ATOM     16  H   UNL     1       2.131   7.769  22.077  0.00  0.00    +0.000 HD
ENDBRANCH   3   7
BRANCH   5  17
ATOM     17  C   UNL     1       1.244  14.362  18.721  0.00  0.00    +0.000 A 
ATOM     18  C   UNL     1       2.563  14.359  18.313  0.00  0.00    +0.000 A 
ATOM     19  N   UNL     1       3.079  15.586  18.626  0.00  0.00    +0.000 N 
ATOM     20  C   UNL     1       2.134  16.520  18.307  0.00  0.00    +0.000 A 
ATOM     21  C   UNL     1       2.296  17.881  17.999  0.00  0.00    +0.000 A 
ATOM     22  C   UNL     1       1.164  18.630  17.732  0.00  0.00    +0.000 A 
ATOM     23  C   UNL     1      -0.090  18.016  17.850  0.00  0.00    +0.000 A 
ATOM     24  C   UNL     1      -0.234  16.647  18.236  0.00  0.00    +0.000 A 
ATOM     25  C   UNL     1       0.911  15.820  18.433  0.00  0.00    +0.000 A 
ATOM     26  H   UNL     1       3.783  15.762  19.330  0.00  0.00    +0.000 HD
ENDBRANCH   5  17
BRANCH   1  30
ATOM     27  C   UNL     1      -5.750  11.645  18.065  0.00  0.00    +0.000 A 
ATOM     28  C   UNL     1      -5.250  12.117  19.273  0.00  0.00    +0.000 A 
ATOM     29  C   UNL     1      -3.883  12.148  19.489  0.00  0.00    +0.000 A 
ATOM     30  C   UNL     1      -2.991  11.774  18.470  0.00  0.00    +0.000 A 
ATOM     31  C   UNL     1      -3.515  11.363  17.201  0.00  0.00    +0.000 A 
ATOM     32  C   UNL     1      -4.884  11.268  17.026  0.00  0.00    +0.000 A 
BRANCH  27  34
ATOM     33  C   UNL     1      -7.749  12.802  18.499  0.00  0.00    +0.000 C 
ATOM     34  O   UNL     1      -7.114  11.623  17.966  0.00  0.00    +0.000 OA
ENDBRANCH  27  34
BRANCH  31  35
ATOM     35  O   UNL     1      -2.581  11.107  16.233  0.00  0.00    +0.000 OA
ATOM     36  C   UNL     1      -2.819  10.019  15.353  0.00  0.00    +0.000 C 
ENDBRANCH  31  35
ENDBRANCH   1  30
TORSDOF 5
ENDMDL
MODEL 8
REMARK VINA RESULT:      -8.2      0.933      1.766
REMARK  Name = 
REMARK  7 active torsions:
REMARK  status: ('A' for Active; 'I' for Inactive)
REMARK    1  A    between atoms: C_1  and  O_2
REMARK    2  A    between atoms: O_2  and  C_3
REMARK    3  A    between atoms: C_6  and  C_7
REMARK    4  A    between atoms: C_9  and  C_10
REMARK    5  A    between atoms: C_20  and  C_21
REMARK    6  A    between atoms: C_31  and  O_32
REMARK    7  A    between atoms: O_32  and  C_33
REMARK                            x       y       z     vdW  Elec       q    Type
REMARK                         _______ _______ _______ _____ _____    ______ ____
ROOT
ATOM      1  C   UNL     1       0.506  10.543  18.789  0.00  0.00    +0.000 A 
ATOM      2  C   UNL     1       1.177  11.774  18.914  0.00  0.00    +0.000 A 
ATOM      3  C   UNL     1       0.470  12.952  18.862  0.00  0.00    +0.000 A 
ATOM      4  N   UNL     1      -0.914  12.914  18.570  0.00  0.00    +0.000 NA
ATOM      5  C   UNL     1      -1.581  11.672  18.410  0.00  0.00    +0.000 A 
ATOM      6  C   UNL     1      -0.883  10.500  18.577  0.00  0.00    +0.000 A 
ENDROOT
BRANCH   3   7
ATOM      7  C   UNL     1       1.251  14.252  19.058  0.00  0.00    +0.000 A 
ATOM      8  C   UNL     1       2.438  14.472  18.384  0.00  0.00    +0.000 A 
ATOM      9  N   UNL     1       3.105  15.437  19.091  0.00  0.00    +0.000 N 
ATOM     10  C   UNL     1       2.182  16.377  19.453  0.00  0.00    +0.000 A 
ATOM     11  C   UNL     1       2.371  17.752  19.700  0.00  0.00    +0.000 A 
ATOM     12  C   UNL     1       1.262  18.503  20.074  0.00  0.00    +0.000 A 
ATOM     13  C   UNL     1       0.049  17.863  20.271  0.00  0.00    +0.000 A 
ATOM     14  C   UNL     1      -0.101  16.459  20.053  0.00  0.00    +0.000 A 
ATOM     15  C   UNL     1       0.978  15.660  19.562  0.00  0.00    +0.000 A 
ATOM     16  H   UNL     1       3.964  15.302  19.601  0.00  0.00    +0.000 HD
ENDBRANCH   3   7
BRANCH   5  17
ATOM     17  C   UNL     1      -3.060  11.579  18.036  0.00  0.00    +0.000 A 
ATOM     18  C   UNL     1      -3.465  10.701  17.050  0.00  0.00    +0.000 A 
ATOM     19  N   UNL     1      -4.703  11.110  16.637  0.00  0.00    +0.000 N 
ATOM     20  C   UNL     1      -5.412  11.459  17.753  0.00  0.00    +0.000 A 
ATOM     21  C   UNL     1      -6.802  11.500  17.948  0.00  0.00    +0.000 A 
ATOM     22  C   UNL     1      -7.277  11.918  19.178  0.00  0.00    +0.000 A 
ATOM     23  C   UNL     1      -6.356  12.346  20.144  0.00  0.00    +0.000 A 
ATOM     24  C   UNL     1      -4.947  12.363  19.897  0.00  0.00    +0.000 A 
ATOM     25  C   UNL     1      -4.414  11.858  18.674  0.00  0.00    +0.000 A 
ATOM     26  H   UNL     1      -4.918  11.499  15.730  0.00  0.00    +0.000 HD
ENDBRANCH   5  17
BRANCH   1  30
ATOM     27  C   UNL     1       2.653   6.874  19.000  0.00  0.00    +0.000 A 
ATOM     28  C   UNL     1       2.619   7.603  17.817  0.00  0.00    +0.000 A 
ATOM     29  C   UNL     1       1.903   8.786  17.756  0.00  0.00    +0.000 A 
ATOM     30  C   UNL     1       1.268   9.296  18.901  0.00  0.00    +0.000 A 
ATOM     31  C   UNL     1       1.375   8.577  20.136  0.00  0.00    +0.000 A 
ATOM     32  C   UNL     1       2.031   7.360  20.163  0.00  0.00    +0.000 A 
BRANCH  27  34
ATOM     33  C   UNL     1       2.875   4.788  17.944  0.00  0.00    +0.000 C 
ATOM     34  O   UNL     1       3.358   5.704  18.945  0.00  0.00    +0.000 OA
ENDBRANCH  27  34
BRANCH  31  35
ATOM     35  O   UNL     1       0.810   9.188  21.225  0.00  0.00    +0.000 OA
ATOM     36  C   UNL     1      -0.353   8.599  21.785  0.00  0.00    +0.000 C 
ENDBRANCH  31  35
ENDBRANCH   1  30
TORSDOF 5
ENDMDL
MODEL 9
REMARK VINA RESULT:      -8.2      3.034      7.909
REMARK  Name = 
REMARK  7 active torsions:
REMARK  status: ('A' for Active; 'I' for Inactive)
REMARK    1  A    between atoms: C_1  and  O_2
REMARK    2  A    between atoms: O_2  and  C_3
REMARK    3  A    between atoms: C_6  and  C_7
REMARK    4  A    between atoms: C_9  and  C_10
REMARK    5  A    between atoms: C_20  and  C_21
REMARK    6  A    between atoms: C_31  and  O_32
REMARK    7  A    between atoms: O_32  and  C_33
REMARK                            x       y       z     vdW  Elec       q    Type
REMARK                         _______ _______ _______ _____ _____    ______ ____
ROOT
ATOM      1  C   UNL     1      -1.420  12.500  21.303  0.00  0.00    +0.000 A 
ATOM      2  C   UNL     1      -0.841  11.223  21.170  0.00  0.00    +0.000 A 
ATOM      3  C   UNL     1       0.368  11.079  20.534  0.00  0.00    +0.000 A 
ATOM      4  N   UNL     1       0.965  12.206  19.921  0.00  0.00    +0.000 NA
ATOM      5  C   UNL     1       0.361  13.486  20.028  0.00  0.00    +0.000 A 
ATOM      6  C   UNL     1      -0.790  13.634  20.762  0.00  0.00    +0.000 A 
ENDROOT
BRANCH   3   7
ATOM      7  C   UNL     1       0.968   9.674  20.470  0.00  0.00    +0.000 A 
ATOM      8  C   UNL     1       0.568   8.694  21.359  0.00  0.00    +0.000 A 
ATOM      9  N   UNL     1       1.568   7.758  21.372  0.00  0.00    +0.000 N 
ATOM     10  C   UNL     1       1.963   7.577  20.077  0.00  0.00    +0.000 A 
ATOM     11  C   UNL     1       2.527   6.434  19.476  0.00  0.00    +0.000 A 
ATOM     12  C   UNL     1       2.861   6.506  18.128  0.00  0.00    +0.000 A 
ATOM     13  C   UNL     1       2.708   7.710  17.459  0.00  0.00    +0.000 A 
ATOM     14  C   UNL     1       2.171   8.865  18.107  0.00  0.00    +0.000 A 
ATOM     15  C   UNL     1       1.710   8.815  19.459  0.00  0.00    +0.000 A 
ATOM     16  H   UNL     1       2.174   7.558  22.152  0.00  0.00    +0.000 HD
ENDBRANCH   3   7
BRANCH   5  17
ATOM     17  C   UNL     1       0.933  14.722  19.334  0.00  0.00    +0.000 A 
ATOM     18  C   UNL     1       2.143  14.640  18.673  0.00  0.00    +0.000 A 
ATOM     19  N   UNL     1       2.603  15.919  18.524  0.00  0.00    +0.000 N 
ATOM     20  C   UNL     1       1.537  16.698  18.170  0.00  0.00    +0.000 A 
ATOM     21  C   UNL     1       1.518  17.920  17.477  0.00  0.00    +0.000 A 
ATOM     22  C   UNL     1       0.295  18.531  17.263  0.00  0.00    +0.000 A 
ATOM     23  C   UNL     1      -0.855  17.941  17.805  0.00  0.00    +0.000 A 
ATOM     24  C   UNL     1      -0.802  16.733  18.569  0.00  0.00    +0.000 A 
ATOM     25  C   UNL     1       0.427  16.028  18.737  0.00  0.00    +0.000 A 
ATOM     26  H   UNL     1       3.412  16.308  18.988  0.00  0.00    +0.000 HD
ENDBRANCH   5  17
BRANCH   1  30
ATOM     27  C   UNL     1      -5.058  12.795  23.493  0.00  0.00    +0.000 A 
ATOM     28  C   UNL     1      -3.845  12.657  24.158  0.00  0.00    +0.000 A 
ATOM     29  C   UNL     1      -2.670  12.545  23.434  0.00  0.00    +0.000 A 
ATOM     30  C   UNL     1      -2.684  12.642  22.033  0.00  0.00    +0.000 A 
ATOM     31  C   UNL     1      -3.930  12.862  21.361  0.00  0.00    +0.000 A 
ATOM     32  C   UNL     1      -5.103  12.899  22.093  0.00  0.00    +0.000 A 
BRANCH  27  34
ATOM     33  C   UNL     1      -7.377  13.160  23.585  0.00  0.00    +0.000 C 
ATOM     34  O   UNL     1      -6.161  12.863  24.298  0.00  0.00    +0.000 OA
ENDBRANCH  27  34
BRANCH  31  35
ATOM     35  O   UNL     1      -3.846  13.041  20.005  0.00  0.00    +0.000 OA
ATOM     36  C   UNL     1      -4.544  12.128  19.173  0.00  0.00    +0.000 C 
ENDBRANCH  31  35
ENDBRANCH   1  30
TORSDOF 5
ENDMDL
