MODEL 1
REMARK VINA RESULT:      -7.6      0.000      0.000
REMARK  Name = 
REMARK  9 active torsions:
REMARK  status: ('A' for Active; 'I' for Inactive)
REMARK    1  A    between atoms: C_1  and  C_2
REMARK    2  A    between atoms: C_4  and  C_5
REMARK    3  A    between atoms: N_8  and  C_9
REMARK    4  A    between atoms: C_9  and  C_10
REMARK    5  A    between atoms: C_10  and  C_11
REMARK    6  A    between atoms: C_11  and  C_12
REMARK    7  A    between atoms: N_14  and  C_15
REMARK    8  A    between atoms: C_15  and  C_16
REMARK    9  A    between atoms: C_16  and  N_17
REMARK                            x       y       z     vdW  Elec       q    Type
REMARK                         _______ _______ _______ _____ _____    ______ ____
ROOT
ATOM      1  C   UNL     1       5.546   6.751  16.792  0.00  0.00    +0.000 C 
ATOM      2  O   UNL     1       5.120   6.666  15.645  0.00  0.00    +0.000 OA
ATOM      3  N   UNL     1       4.735   7.044  17.862  0.00  0.00    +0.000 N 
ATOM      4  H   UNL     1       5.156   7.230  18.766  0.00  0.00    +0.000 HD
ENDROOT
BRANCH   1   5
ATOM      5  C   UNL     1       7.001   6.514  17.139  0.00  0.00    +0.000 C 
BRANCH   5   6
ATOM      6  C   UNL     1       7.139   5.433  18.216  0.00  0.00    +0.000 C 
BRANCH   6   7
ATOM      7  C   UNL     1       6.178   4.267  17.954  0.00  0.00    +0.000 C 
BRANCH   7  15
ATOM      8  C   UNL     1       1.910   2.441  21.836  0.00  0.00    +0.000 C 
ATOM      9  C   UNL     1       2.417   2.984  20.536  0.00  0.00    +0.000 A 
ATOM     10  C   UNL     1       1.544   3.357  19.535  0.00  0.00    +0.000 A 
ATOM     11  C   UNL     1       2.112   3.861  18.387  0.00  0.00    +0.000 A 
ATOM     12  C   UNL     1       1.282   4.301  17.223  0.00  0.00    +0.000 C 
ATOM     13  N   UNL     1       3.441   3.996  18.246  0.00  0.00    +0.000 NA
ATOM     14  C   UNL     1       4.222   3.618  19.266  0.00  0.00    +0.000 A 
ATOM     15  N   UNL     1       5.574   3.785  19.169  0.00  0.00    +0.000 N 
ATOM     16  N   UNL     1       3.756   3.100  20.409  0.00  0.00    +0.000 NA
ATOM     17  H   UNL     1       6.118   3.330  19.886  0.00  0.00    +0.000 HD
ENDBRANCH   7  15
ENDBRANCH   6   7
ENDBRANCH   5   6
ENDBRANCH   1   5
BRANCH   3  18
ATOM     18  C   UNL     1       3.350   7.446  17.643  0.00  0.00    +0.000 C 
BRANCH  18  19
ATOM     19  C   UNL     1       2.510   7.427  18.920  0.00  0.00    +0.000 C 
BRANCH  19  20
ATOM     20  N   UNL     1       1.714   8.633  19.085  0.00  0.00    +0.000 N 
ATOM     21  C   UNL     1       1.517   9.543  18.078  0.00  0.00    +0.000 A 
ATOM     22  C   UNL     1       0.768  10.578  18.580  0.00  0.00    +0.000 A 
ATOM     23  C   UNL     1       0.500  10.296  19.946  0.00  0.00    +0.000 A 
ATOM     24  C   UNL     1      -0.202  10.988  20.952  0.00  0.00    +0.000 A 
ATOM     25  C   UNL     1      -0.287  10.444  22.236  0.00  0.00    +0.000 A 
ATOM     26  C   UNL     1       0.321   9.225  22.522  0.00  0.00    +0.000 A 
ATOM     27  C   UNL     1       1.027   8.516  21.539  0.00  0.00    +0.000 A 
ATOM     28  C   UNL     1       1.103   9.069  20.252  0.00  0.00    +0.000 A 
ENDBRANCH  19  20
ENDBRANCH  18  19
ENDBRANCH   3  18
TORSDOF 7
ENDMDL
MODEL 2
REMARK VINA RESULT:      -7.5      4.941      6.625
REMARK  Name = 
REMARK  9 active torsions:
REMARK  status: ('A' for Active; 'I' for Inactive)
REMARK    1  A    between atoms: C_1  and  C_2
REMARK    2  A    between atoms: C_4  and  C_5
REMARK    3  A    between atoms: N_8  and  C_9
REMARK    4  A    between atoms: C_9  and  C_10
REMARK    5  A    between atoms: C_10  and  C_11
REMARK    6  A    between atoms: C_11  and  C_12
REMARK    7  A    between atoms: N_14  and  C_15
REMARK    8  A    between atoms: C_15  and  C_16
REMARK    9  A    between atoms: C_16  and  N_17
REMARK                            x       y       z     vdW  Elec       q    Type
REMARK                         _______ _______ _______ _____ _____    ______ ____
ROOT
ATOM      1  C   UNL     1       7.611   7.221  17.887  0.00  0.00    +0.000 C 
ATOM      2  O   UNL     1       6.908   7.502  16.923  0.00  0.00    +0.000 OA
ATOM      3  N   UNL     1       8.385   8.154  18.536  0.00  0.00    +0.000 N 
ATOM      4  H   UNL     1       9.044   7.845  19.242  0.00  0.00    +0.000 HD
ENDROOT
BRANCH   1   5
ATOM      5  C   UNL     1       7.673   5.824  18.469  0.00  0.00    +0.000 C 
BRANCH   5   6
ATOM      6  C   UNL     1       7.482   4.766  17.376  0.00  0.00    +0.000 C 
BRANCH   6   7
ATOM      7  C   UNL     1       5.995   4.482  17.137  0.00  0.00    +0.000 C 
BRANCH   7  15
ATOM      8  C   UNL     1       2.314   2.762  21.623  0.00  0.00    +0.000 C 
ATOM      9  C   UNL     1       2.840   3.708  20.588  0.00  0.00    +0.000 A 
ATOM     10  C   UNL     1       2.308   4.974  20.449  0.00  0.00    +0.000 A 
ATOM     11  C   UNL     1       2.875   5.771  19.480  0.00  0.00    +0.000 A 
ATOM     12  C   UNL     1       2.394   7.164  19.224  0.00  0.00    +0.000 C 
ATOM     13  N   UNL     1       3.896   5.351  18.716  0.00  0.00    +0.000 NA
ATOM     14  C   UNL     1       4.361   4.111  18.915  0.00  0.00    +0.000 A 
ATOM     15  N   UNL     1       5.428   3.672  18.184  0.00  0.00    +0.000 N 
ATOM     16  N   UNL     1       3.857   3.263  19.821  0.00  0.00    +0.000 NA
ATOM     17  H   UNL     1       5.622   2.685  18.254  0.00  0.00    +0.000 HD
ENDBRANCH   7  15
ENDBRANCH   6   7
ENDBRANCH   5   6
ENDBRANCH   1   5
BRANCH   3  18
ATOM     18  C   UNL     1       8.534   9.494  17.981  0.00  0.00    +0.000 C 
BRANCH  18  19
ATOM     19  C   UNL     1       9.021  10.519  19.007  0.00  0.00    +0.000 C 
BRANCH  19  20
ATOM     20  N   UNL     1       9.865  11.545  18.418  0.00  0.00    +0.000 N 
ATOM     21  C   UNL     1      11.120  11.291  17.927  0.00  0.00    +0.000 A 
ATOM     22  C   UNL     1      11.656  12.478  17.493  0.00  0.00    +0.000 A 
ATOM     23  C   UNL     1      10.697  13.499  17.729  0.00  0.00    +0.000 A 
ATOM     24  C   UNL     1      10.693  14.888  17.500  0.00  0.00    +0.000 A 
ATOM     25  C   UNL     1       9.575  15.646  17.858  0.00  0.00    +0.000 A 
ATOM     26  C   UNL     1       8.469  15.032  18.440  0.00  0.00    +0.000 A 
ATOM     27  C   UNL     1       8.448  13.650  18.680  0.00  0.00    +0.000 A 
ATOM     28  C   UNL     1       9.573  12.898  18.314  0.00  0.00    +0.000 A 
ENDBRANCH  19  20
ENDBRANCH  18  19
ENDBRANCH   3  18
TORSDOF 7
ENDMDL
MODEL 3
REMARK VINA RESULT:      -7.4      1.884      3.861
REMARK  Name = 
REMARK  9 active torsions:
REMARK  status: ('A' for Active; 'I' for Inactive)
REMARK    1  A    between atoms: C_1  and  C_2
REMARK    2  A    between atoms: C_4  and  C_5
REMARK    3  A    between atoms: N_8  and  C_9
REMARK    4  A    between atoms: C_9  and  C_10
REMARK    5  A    between atoms: C_10  and  C_11
REMARK    6  A    between atoms: C_11  and  C_12
REMARK    7  A    between atoms: N_14  and  C_15
REMARK    8  A    between atoms: C_15  and  C_16
REMARK    9  A    between atoms: C_16  and  N_17
REMARK                            x       y       z     vdW  Elec       q    Type
REMARK                         _______ _______ _______ _____ _____    ______ ____
ROOT
ATOM      1  C   UNL     1       2.152   4.514  19.921  0.00  0.00    +0.000 C 
ATOM      2  O   UNL     1       2.749   4.495  20.992  0.00  0.00    +0.000 OA
ATOM      3  N   UNL     1       2.044   5.651  19.155  0.00  0.00    +0.000 N 
ATOM      4  H   UNL     1       1.433   5.646  18.346  0.00  0.00    +0.000 HD
ENDROOT
BRANCH   1   5
ATOM      5  C   UNL     1       1.499   3.282  19.331  0.00  0.00    +0.000 C 
BRANCH   5   6
ATOM      6  C   UNL     1       1.993   3.032  17.901  0.00  0.00    +0.000 C 
BRANCH   6   7
ATOM      7  C   UNL     1       3.309   2.247  17.901  0.00  0.00    +0.000 C 
BRANCH   7  15
ATOM      8  C   UNL     1       7.950   5.864  19.320  0.00  0.00    +0.000 C 
ATOM      9  C   UNL     1       6.966   5.222  18.391  0.00  0.00    +0.000 A 
ATOM     10  C   UNL     1       7.006   5.469  17.034  0.00  0.00    +0.000 A 
ATOM     11  C   UNL     1       6.069   4.816  16.266  0.00  0.00    +0.000 A 
ATOM     12  C   UNL     1       6.000   4.995  14.782  0.00  0.00    +0.000 C 
ATOM     13  N   UNL     1       5.168   3.975  16.800  0.00  0.00    +0.000 NA
ATOM     14  C   UNL     1       5.197   3.782  18.125  0.00  0.00    +0.000 A 
ATOM     15  N   UNL     1       4.323   2.897  18.690  0.00  0.00    +0.000 N 
ATOM     16  N   UNL     1       6.060   4.390  18.948  0.00  0.00    +0.000 NA
ATOM     17  H   UNL     1       4.275   2.921  19.697  0.00  0.00    +0.000 HD
ENDBRANCH   7  15
ENDBRANCH   6   7
ENDBRANCH   5   6
ENDBRANCH   1   5
BRANCH   3  18
ATOM     18  C   UNL     1       2.491   6.935  19.683  0.00  0.00    +0.000 C 
BRANCH  18  19
ATOM     19  C   UNL     1       1.584   7.481  20.786  0.00  0.00    +0.000 C 
BRANCH  19  20
ATOM     20  N   UNL     1       1.020   8.780  20.457  0.00  0.00    +0.000 N 
ATOM     21  C   UNL     1       1.231   9.402  19.253  0.00  0.00    +0.000 A 
ATOM     22  C   UNL     1       0.604  10.623  19.291  0.00  0.00    +0.000 A 
ATOM     23  C   UNL     1      -0.009  10.757  20.565  0.00  0.00    +0.000 A 
ATOM     24  C   UNL     1      -0.768  11.780  21.166  0.00  0.00    +0.000 A 
ATOM     25  C   UNL     1      -1.238  11.617  22.472  0.00  0.00    +0.000 A 
ATOM     26  C   UNL     1      -0.955  10.452  23.178  0.00  0.00    +0.000 A 
ATOM     27  C   UNL     1      -0.200   9.418  22.604  0.00  0.00    +0.000 A 
ATOM     28  C   UNL     1       0.263   9.590  21.291  0.00  0.00    +0.000 A 
ENDBRANCH  19  20
ENDBRANCH  18  19
ENDBRANCH   3  18
TORSDOF 7
ENDMDL
MODEL 4
REMARK VINA RESULT:      -7.4      2.065      4.095
REMARK  Name = 
REMARK  9 active torsions:
REMARK  status: ('A' for Active; 'I' for Inactive)
REMARK    1  A    between atoms: C_1  and  C_2
REMARK    2  A    between atoms: C_4  and  C_5
REMARK    3  A    between atoms: N_8  and  C_9
REMARK    4  A    between atoms: C_9  and  C_10
REMARK    5  A    between atoms: C_10  and  C_11
REMARK    6  A    between atoms: C_11  and  C_12
REMARK    7  A    between atoms: N_14  and  C_15
REMARK    8  A    between atoms: C_15  and  C_16
REMARK    9  A    between atoms: C_16  and  N_17
REMARK                            x       y       z     vdW  Elec       q    Type
REMARK                         _______ _______ _______ _____ _____    ______ ____
ROOT
ATOM      1  C   UNL     1       1.741   4.549  20.763  0.00  0.00    +0.000 C 
ATOM      2  O   UNL     1       0.571   4.543  20.399  0.00  0.00    +0.000 OA
ATOM      3  N   UNL     1       2.490   5.700  20.825  0.00  0.00    +0.000 N 
ATOM      4  H   UNL     1       3.486   5.633  21.008  0.00  0.00    +0.000 HD
ENDROOT
BRANCH   1   5
ATOM      5  C   UNL     1       2.463   3.292  21.204  0.00  0.00    +0.000 C 
BRANCH   5   6
ATOM      6  C   UNL     1       2.403   2.216  20.114  0.00  0.00    +0.000 C 
BRANCH   6   7
ATOM      7  C   UNL     1       3.400   2.514  18.988  0.00  0.00    +0.000 C 
BRANCH   7  15
ATOM      8  C   UNL     1       7.980   6.465  18.754  0.00  0.00    +0.000 C 
ATOM      9  C   UNL     1       6.920   5.582  18.172  0.00  0.00    +0.000 A 
ATOM     10  C   UNL     1       6.769   5.462  16.805  0.00  0.00    +0.000 A 
ATOM     11  C   UNL     1       5.778   4.610  16.372  0.00  0.00    +0.000 A 
ATOM     12  C   UNL     1       5.506   4.388  14.918  0.00  0.00    +0.000 C 
ATOM     13  N   UNL     1       5.002   3.923  17.227  0.00  0.00    +0.000 NA
ATOM     14  C   UNL     1       5.214   4.089  18.539  0.00  0.00    +0.000 A 
ATOM     15  N   UNL     1       4.470   3.370  19.432  0.00  0.00    +0.000 N 
ATOM     16  N   UNL     1       6.142   4.909  19.046  0.00  0.00    +0.000 NA
ATOM     17  H   UNL     1       4.553   3.659  20.394  0.00  0.00    +0.000 HD
ENDBRANCH   7  15
ENDBRANCH   6   7
ENDBRANCH   5   6
ENDBRANCH   1   5
BRANCH   3  18
ATOM     18  C   UNL     1       1.964   6.947  20.282  0.00  0.00    +0.000 C 
BRANCH  18  19
ATOM     19  C   UNL     1       1.271   7.815  21.333  0.00  0.00    +0.000 C 
BRANCH  19  20
ATOM     20  N   UNL     1       0.700   9.028  20.770  0.00  0.00    +0.000 N 
ATOM     21  C   UNL     1       0.925   9.431  19.478  0.00  0.00    +0.000 A 
ATOM     22  C   UNL     1       0.286  10.631  19.290  0.00  0.00    +0.000 A 
ATOM     23  C   UNL     1      -0.350  10.980  20.510  0.00  0.00    +0.000 A 
ATOM     24  C   UNL     1      -1.130  12.083  20.909  0.00  0.00    +0.000 A 
ATOM     25  C   UNL     1      -1.621  12.148  22.215  0.00  0.00    +0.000 A 
ATOM     26  C   UNL     1      -1.339  11.129  23.121  0.00  0.00    +0.000 A 
ATOM     27  C   UNL     1      -0.564  10.020  22.751  0.00  0.00    +0.000 A 
ATOM     28  C   UNL     1      -0.079   9.963  21.436  0.00  0.00    +0.000 A 
ENDBRANCH  19  20
ENDBRANCH  18  19
ENDBRANCH   3  18
TORSDOF 7
ENDMDL
MODEL 5
REMARK VINA RESULT:      -7.3      4.321      7.916
REMARK  Name = 
REMARK  9 active torsions:
REMARK  status: ('A' for Active; 'I' for Inactive)
REMARK    1  A    between atoms: C_1  and  C_2
REMARK    2  A    between atoms: C_4  and  C_5
REMARK    3  A    between atoms: N_8  and  C_9
REMARK    4  A    between atoms: C_9  and  C_10
REMARK    5  A    between atoms: C_10  and  C_11
REMARK    6  A    between atoms: C_11  and  C_12
REMARK    7  A    between atoms: N_14  and  C_15
REMARK    8  A    between atoms: C_15  and  C_16
REMARK    9  A    between atoms: C_16  and  N_17
REMARK                            x       y       z     vdW  Elec       q    Type
REMARK                         _______ _______ _______ _____ _____    ______ ____
ROOT
ATOM      1  C   UNL     1       6.902   5.282  18.231  0.00  0.00    +0.000 C 
ATOM      2  O   UNL     1       6.619   4.423  19.058  0.00  0.00    +0.000 OA
ATOM      3  N   UNL     1       6.442   5.240  16.936  0.00  0.00    +0.000 N 
ATOM      4  H   UNL     1       6.809   5.902  16.260  0.00  0.00    +0.000 HD
ENDROOT
BRANCH   1   5
ATOM      5  C   UNL     1       7.763   6.482  18.565  0.00  0.00    +0.000 C 
BRANCH   5   6
ATOM      6  C   UNL     1       7.481   7.643  17.604  0.00  0.00    +0.000 C 
BRANCH   6   7
ATOM      7  C   UNL     1       8.588   8.701  17.677  0.00  0.00    +0.000 C 
BRANCH   7  15
ATOM      8  C   UNL     1       9.755  12.781  21.993  0.00  0.00    +0.000 C 
ATOM      9  C   UNL     1       9.750  12.254  20.591  0.00  0.00    +0.000 A 
ATOM     10  C   UNL     1      10.314  12.977  19.560  0.00  0.00    +0.000 A 
ATOM     11  C   UNL     1      10.273  12.395  18.313  0.00  0.00    +0.000 A 
ATOM     12  C   UNL     1      10.847  13.070  17.107  0.00  0.00    +0.000 C 
ATOM     13  N   UNL     1       9.724  11.187  18.105  0.00  0.00    +0.000 NA
ATOM     14  C   UNL     1       9.203  10.545  19.158  0.00  0.00    +0.000 A 
ATOM     15  N   UNL     1       8.678   9.295  18.986  0.00  0.00    +0.000 N 
ATOM     16  N   UNL     1       9.183  11.044  20.400  0.00  0.00    +0.000 NA
ATOM     17  H   UNL     1       8.152   8.937  19.767  0.00  0.00    +0.000 HD
ENDBRANCH   7  15
ENDBRANCH   6   7
ENDBRANCH   5   6
ENDBRANCH   1   5
BRANCH   3  18
ATOM     18  C   UNL     1       5.736   4.062  16.446  0.00  0.00    +0.000 C 
BRANCH  18  19
ATOM     19  C   UNL     1       4.217   4.175  16.573  0.00  0.00    +0.000 C 
BRANCH  19  20
ATOM     20  N   UNL     1       3.678   3.341  17.635  0.00  0.00    +0.000 N 
ATOM     21  C   UNL     1       3.806   1.975  17.649  0.00  0.00    +0.000 A 
ATOM     22  C   UNL     1       3.147   1.499  18.756  0.00  0.00    +0.000 A 
ATOM     23  C   UNL     1       2.592   2.611  19.442  0.00  0.00    +0.000 A 
ATOM     24  C   UNL     1       1.819   2.733  20.614  0.00  0.00    +0.000 A 
ATOM     25  C   UNL     1       1.405   3.996  21.042  0.00  0.00    +0.000 A 
ATOM     26  C   UNL     1       1.751   5.131  20.314  0.00  0.00    +0.000 A 
ATOM     27  C   UNL     1       2.518   5.039  19.143  0.00  0.00    +0.000 A 
ATOM     28  C   UNL     1       2.932   3.766  18.724  0.00  0.00    +0.000 A 
ENDBRANCH  19  20
ENDBRANCH  18  19
ENDBRANCH   3  18
TORSDOF 7
ENDMDL
MODEL 6
REMARK VINA RESULT:      -7.3      4.582      6.731
REMARK  Name = 
REMARK  9 active torsions:
REMARK  status: ('A' for Active; 'I' for Inactive)
REMARK    1  A    between atoms: C_1  and  C_2
REMARK    2  A    between atoms: C_4  and  C_5
REMARK    3  A    between atoms: N_8  and  C_9
REMARK    4  A    between atoms: C_9  and  C_10
REMARK    5  A    between atoms: C_10  and  C_11
REMARK    6  A    between atoms: C_11  and  C_12
REMARK    7  A    between atoms: N_14  and  C_15
REMARK    8  A    between atoms: C_15  and  C_16
REMARK    9  A    between atoms: C_16  and  N_17
REMARK                            x       y       z     vdW  Elec       q    Type
REMARK                         _______ _______ _______ _____ _____    ______ ____
ROOT
ATOM      1  C   UNL     1       7.056   6.708  17.378  0.00  0.00    +0.000 C 
ATOM      2  O   UNL     1       6.590   6.384  18.465  0.00  0.00    +0.000 OA
ATOM      3  N   UNL     1       7.922   7.766  17.231  0.00  0.00    +0.000 N 
ATOM      4  H   UNL     1       8.175   8.071  16.298  0.00  0.00    +0.000 HD
ENDROOT
BRANCH   1   5
ATOM      5  C   UNL     1       6.740   5.958  16.101  0.00  0.00    +0.000 C 
BRANCH   5   6
ATOM      6  C   UNL     1       6.793   4.444  16.328  0.00  0.00    +0.000 C 
BRANCH   6   7
ATOM      7  C   UNL     1       5.391   3.826  16.260  0.00  0.00    +0.000 C 
BRANCH   7  15
ATOM      8  C   UNL     1       2.540   2.809  21.502  0.00  0.00    +0.000 C 
ATOM      9  C   UNL     1       2.864   3.585  20.262  0.00  0.00    +0.000 A 
ATOM     10  C   UNL     1       2.280   4.812  20.022  0.00  0.00    +0.000 A 
ATOM     11  C   UNL     1       2.658   5.452  18.863  0.00  0.00    +0.000 A 
ATOM     12  C   UNL     1       2.102   6.787  18.480  0.00  0.00    +0.000 C 
ATOM     13  N   UNL     1       3.553   4.922  18.013  0.00  0.00    +0.000 NA
ATOM     14  C   UNL     1       4.080   3.729  18.320  0.00  0.00    +0.000 A 
ATOM     15  N   UNL     1       5.026   3.186  17.497  0.00  0.00    +0.000 N 
ATOM     16  N   UNL     1       3.755   3.030  19.414  0.00  0.00    +0.000 NA
ATOM     17  H   UNL     1       5.258   2.223  17.684  0.00  0.00    +0.000 HD
ENDBRANCH   7  15
ENDBRANCH   6   7
ENDBRANCH   5   6
ENDBRANCH   1   5
BRANCH   3  18
ATOM     18  C   UNL     1       8.182   8.661  18.352  0.00  0.00    +0.000 C 
BRANCH  18  19
ATOM     19  C   UNL     1       8.416  10.110  17.922  0.00  0.00    +0.000 C 
BRANCH  19  20
ATOM     20  N   UNL     1       9.272  10.837  18.846  0.00  0.00    +0.000 N 
ATOM     21  C   UNL     1       9.168  10.723  20.209  0.00  0.00    +0.000 A 
ATOM     22  C   UNL     1      10.082  11.575  20.778  0.00  0.00    +0.000 A 
ATOM     23  C   UNL     1      10.768  12.239  19.727  0.00  0.00    +0.000 A 
ATOM     24  C   UNL     1      11.788  13.211  19.705  0.00  0.00    +0.000 A 
ATOM     25  C   UNL     1      12.263  13.688  18.481  0.00  0.00    +0.000 A 
ATOM     26  C   UNL     1      11.730  13.210  17.287  0.00  0.00    +0.000 A 
ATOM     27  C   UNL     1      10.714  12.243  17.281  0.00  0.00    +0.000 A 
ATOM     28  C   UNL     1      10.247  11.767  18.514  0.00  0.00    +0.000 A 
ENDBRANCH  19  20
ENDBRANCH  18  19
ENDBRANCH   3  18
TORSDOF 7
ENDMDL
MODEL 7
REMARK VINA RESULT:      -7.3      2.248      4.338
REMARK  Name = 
REMARK  9 active torsions:
REMARK  status: ('A' for Active; 'I' for Inactive)
REMARK    1  A    between atoms: C_1  and  C_2
REMARK    2  A    between atoms: C_4  and  C_5
REMARK    3  A    between atoms: N_8  and  C_9
REMARK    4  A    between atoms: C_9  and  C_10
REMARK    5  A    between atoms: C_10  and  C_11
REMARK    6  A    between atoms: C_11  and  C_12
REMARK    7  A    between atoms: N_14  and  C_15
REMARK    8  A    between atoms: C_15  and  C_16
REMARK    9  A    between atoms: C_16  and  N_17
REMARK                            x       y       z     vdW  Elec       q    Type
REMARK                         _______ _______ _______ _____ _____    ______ ____
ROOT
ATOM      1  C   UNL     1       2.100   5.624  19.197  0.00  0.00    +0.000 C 
ATOM      2  O   UNL     1       1.874   5.774  20.392  0.00  0.00    +0.000 OA
ATOM      3  N   UNL     1       2.363   6.679  18.356  0.00  0.00    +0.000 N 
ATOM      4  H   UNL     1       2.415   6.514  17.357  0.00  0.00    +0.000 HD
ENDROOT
BRANCH   1   5
ATOM      5  C   UNL     1       2.137   4.260  18.540  0.00  0.00    +0.000 C 
BRANCH   5   6
ATOM      6  C   UNL     1       2.673   3.200  19.509  0.00  0.00    +0.000 C 
BRANCH   6   7
ATOM      7  C   UNL     1       4.101   2.785  19.137  0.00  0.00    +0.000 C 
BRANCH   7  15
ATOM      8  C   UNL     1       8.073   7.275  18.304  0.00  0.00    +0.000 C 
ATOM      9  C   UNL     1       7.126   6.203  17.861  0.00  0.00    +0.000 A 
ATOM     10  C   UNL     1       6.944   5.928  16.521  0.00  0.00    +0.000 A 
ATOM     11  C   UNL     1       6.065   4.911  16.221  0.00  0.00    +0.000 A 
ATOM     12  C   UNL     1       5.774   4.511  14.809  0.00  0.00    +0.000 C 
ATOM     13  N   UNL     1       5.425   4.215  17.174  0.00  0.00    +0.000 NA
ATOM     14  C   UNL     1       5.660   4.537  18.452  0.00  0.00    +0.000 A 
ATOM     15  N   UNL     1       5.057   3.817  19.444  0.00  0.00    +0.000 N 
ATOM     16  N   UNL     1       6.482   5.522  18.833  0.00  0.00    +0.000 NA
ATOM     17  H   UNL     1       5.134   4.209  20.370  0.00  0.00    +0.000 HD
ENDBRANCH   7  15
ENDBRANCH   6   7
ENDBRANCH   5   6
ENDBRANCH   1   5
BRANCH   3  18
ATOM     18  C   UNL     1       2.204   8.050  18.830  0.00  0.00    +0.000 C 
BRANCH  18  19
ATOM     19  C   UNL     1       1.432   8.938  17.853  0.00  0.00    +0.000 C 
BRANCH  19  20
ATOM     20  N   UNL     1       0.607   9.927  18.526  0.00  0.00    +0.000 N 
ATOM     21  C   UNL     1       1.026  10.622  19.632  0.00  0.00    +0.000 A 
ATOM     22  C   UNL     1      -0.005  11.430  20.042  0.00  0.00    +0.000 A 
ATOM     23  C   UNL     1      -1.098  11.221  19.159  0.00  0.00    +0.000 A 
ATOM     24  C   UNL     1      -2.399  11.757  19.092  0.00  0.00    +0.000 A 
ATOM     25  C   UNL     1      -3.270  11.336  18.084  0.00  0.00    +0.000 A 
ATOM     26  C   UNL     1      -2.857  10.388  17.152  0.00  0.00    +0.000 A 
ATOM     27  C   UNL     1      -1.568   9.837  17.197  0.00  0.00    +0.000 A 
ATOM     28  C   UNL     1      -0.700  10.269  18.210  0.00  0.00    +0.000 A 
ENDBRANCH  19  20
ENDBRANCH  18  19
ENDBRANCH   3  18
TORSDOF 7
ENDMDL
MODEL 8
REMARK VINA RESULT:      -7.2      2.134      4.442
REMARK  Name = 
REMARK  9 active torsions:
REMARK  status: ('A' for Active; 'I' for Inactive)
REMARK    1  A    between atoms: C_1  and  C_2
REMARK    2  A    between atoms: C_4  and  C_5
REMARK    3  A    between atoms: N_8  and  C_9
REMARK    4  A    between atoms: C_9  and  C_10
REMARK    5  A    between atoms: C_10  and  C_11
REMARK    6  A    between atoms: C_11  and  C_12
REMARK    7  A    between atoms: N_14  and  C_15
REMARK    8  A    between atoms: C_15  and  C_16
REMARK    9  A    between atoms: C_16  and  N_17
REMARK                            x       y       z     vdW  Elec       q    Type
REMARK                         _______ _______ _______ _____ _____    ______ ____
ROOT
ATOM      1  C   UNL     1       1.656   4.457  20.779  0.00  0.00    +0.000 C 
ATOM      2  O   UNL     1       0.719   4.344  19.996  0.00  0.00    +0.000 OA
ATOM      3  N   UNL     1       2.168   5.678  21.148  0.00  0.00    +0.000 N 
ATOM      4  H   UNL     1       3.022   5.712  21.694  0.00  0.00    +0.000 HD
ENDROOT
BRANCH   1   5
ATOM      5  C   UNL     1       2.320   3.262  21.431  0.00  0.00    +0.000 C 
BRANCH   5   6
ATOM      6  C   UNL     1       3.312   2.596  20.472  0.00  0.00    +0.000 C 
BRANCH   6   7
ATOM      7  C   UNL     1       4.169   3.642  19.749  0.00  0.00    +0.000 C 
BRANCH   7  15
ATOM      8  C   UNL     1       6.100   3.963  14.022  0.00  0.00    +0.000 C 
ATOM      9  C   UNL     1       6.083   4.343  15.470  0.00  0.00    +0.000 A 
ATOM     10  C   UNL     1       6.905   5.342  15.950  0.00  0.00    +0.000 A 
ATOM     11  C   UNL     1       6.799   5.628  17.293  0.00  0.00    +0.000 A 
ATOM     12  C   UNL     1       7.631   6.686  17.944  0.00  0.00    +0.000 C 
ATOM     13  N   UNL     1       5.938   4.980  18.095  0.00  0.00    +0.000 NA
ATOM     14  C   UNL     1       5.169   4.027  17.553  0.00  0.00    +0.000 A 
ATOM     15  N   UNL     1       4.252   3.383  18.335  0.00  0.00    +0.000 N 
ATOM     16  N   UNL     1       5.220   3.673  16.263  0.00  0.00    +0.000 NA
ATOM     17  H   UNL     1       3.828   2.568  17.920  0.00  0.00    +0.000 HD
ENDBRANCH   7  15
ENDBRANCH   6   7
ENDBRANCH   5   6
ENDBRANCH   1   5
BRANCH   3  18
ATOM     18  C   UNL     1       1.722   6.893  20.475  0.00  0.00    +0.000 C 
BRANCH  18  19
ATOM     19  C   UNL     1       1.483   8.059  21.435  0.00  0.00    +0.000 C 
BRANCH  19  20
ATOM     20  N   UNL     1       0.737   9.146  20.822  0.00  0.00    +0.000 N 
ATOM     21  C   UNL     1       0.841   9.468  19.493  0.00  0.00    +0.000 A 
ATOM     22  C   UNL     1       0.048  10.563  19.257  0.00  0.00    +0.000 A 
ATOM     23  C   UNL     1      -0.562  10.930  20.487  0.00  0.00    +0.000 A 
ATOM     24  C   UNL     1      -1.451  11.959  20.852  0.00  0.00    +0.000 A 
ATOM     25  C   UNL     1      -1.877  12.068  22.178  0.00  0.00    +0.000 A 
ATOM     26  C   UNL     1      -1.422  11.167  23.136  0.00  0.00    +0.000 A 
ATOM     27  C   UNL     1      -0.535  10.133  22.800  0.00  0.00    +0.000 A 
ATOM     28  C   UNL     1      -0.117  10.030  21.465  0.00  0.00    +0.000 A 
ENDBRANCH  19  20
ENDBRANCH  18  19
ENDBRANCH   3  18
TORSDOF 7
ENDMDL
MODEL 9
REMARK VINA RESULT:      -7.2      2.092      4.403
REMARK  Name = 
REMARK  9 active torsions:
REMARK  status: ('A' for Active; 'I' for Inactive)
REMARK    1  A    between atoms: C_1  and  C_2
REMARK    2  A    between atoms: C_4  and  C_5
REMARK    3  A    between atoms: N_8  and  C_9
REMARK    4  A    between atoms: C_9  and  C_10
REMARK    5  A    between atoms: C_10  and  C_11
REMARK    6  A    between atoms: C_11  and  C_12
REMARK    7  A    between atoms: N_14  and  C_15
REMARK    8  A    between atoms: C_15  and  C_16
REMARK    9  A    between atoms: C_16  and  N_17
REMARK                            x       y       z     vdW  Elec       q    Type
REMARK                         _______ _______ _______ _____ _____    ______ ____
ROOT
ATOM      1  C   UNL     1       1.382   3.783  19.745  0.00  0.00    +0.000 C 
ATOM      2  O   UNL     1       1.331   3.388  20.904  0.00  0.00    +0.000 OA
ATOM      3  N   UNL     1       1.662   5.089  19.420  0.00  0.00    +0.000 N 
ATOM      4  H   UNL     1       1.564   5.391  18.457  0.00  0.00    +0.000 HD
ENDROOT
BRANCH   1   5
ATOM      5  C   UNL     1       1.166   2.863  18.561  0.00  0.00    +0.000 C 
BRANCH   5   6
ATOM      6  C   UNL     1       2.348   2.936  17.588  0.00  0.00    +0.000 C 
BRANCH   6   7
ATOM      7  C   UNL     1       3.593   2.265  18.180  0.00  0.00    +0.000 C 
BRANCH   7  15
ATOM      8  C   UNL     1       7.783   6.630  18.332  0.00  0.00    +0.000 C 
ATOM      9  C   UNL     1       6.885   5.636  17.663  0.00  0.00    +0.000 A 
ATOM     10  C   UNL     1       6.907   5.469  16.294  0.00  0.00    +0.000 A 
ATOM     11  C   UNL     1       6.055   4.517  15.781  0.00  0.00    +0.000 A 
ATOM     12  C   UNL     1       5.977   4.235  14.314  0.00  0.00    +0.000 C 
ATOM     13  N   UNL     1       5.252   3.779  16.565  0.00  0.00    +0.000 NA
ATOM     14  C   UNL     1       5.293   3.996  17.886  0.00  0.00    +0.000 A 
ATOM     15  N   UNL     1       4.520   3.230  18.712  0.00  0.00    +0.000 N 
ATOM     16  N   UNL     1       6.076   4.913  18.467  0.00  0.00    +0.000 NA
ATOM     17  H   UNL     1       4.463   3.548  19.667  0.00  0.00    +0.000 HD
ENDBRANCH   7  15
ENDBRANCH   6   7
ENDBRANCH   5   6
ENDBRANCH   1   5
BRANCH   3  18
ATOM     18  C   UNL     1       1.734   6.104  20.465  0.00  0.00    +0.000 C 
BRANCH  18  19
ATOM     19  C   UNL     1       2.069   7.497  19.928  0.00  0.00    +0.000 C 
BRANCH  19  20
ATOM     20  N   UNL     1       1.328   8.550  20.602  0.00  0.00    +0.000 N 
ATOM     21  C   UNL     1       1.217   8.632  21.967  0.00  0.00    +0.000 A 
ATOM     22  C   UNL     1       0.416   9.706  22.265  0.00  0.00    +0.000 A 
ATOM     23  C   UNL     1       0.016  10.303  21.040  0.00  0.00    +0.000 A 
ATOM     24  C   UNL     1      -0.798  11.408  20.728  0.00  0.00    +0.000 A 
ATOM     25  C   UNL     1      -1.016  11.752  19.392  0.00  0.00    +0.000 A 
ATOM     26  C   UNL     1      -0.435  11.004  18.372  0.00  0.00    +0.000 A 
ATOM     27  C   UNL     1       0.380   9.898  18.655  0.00  0.00    +0.000 A 
ATOM     28  C   UNL     1       0.596   9.563  20.000  0.00  0.00    +0.000 A 
ENDBRANCH  19  20
ENDBRANCH  18  19
ENDBRANCH   3  18
TORSDOF 7
ENDMDL
