MODEL 1
REMARK VINA RESULT:      -5.9      0.000      0.000
REMARK  Name = 
REMARK  4 active torsions:
REMARK  status: ('A' for Active; 'I' for Inactive)
REMARK    1  A    between atoms: C_1  and  O_2
REMARK    2  A    between atoms: O_2  and  C_3
REMARK    3  A    between atoms: C_8  and  C_9
REMARK    4  A    between atoms: N_11  and  O_12
REMARK                            x       y       z     vdW  Elec       q    Type
REMARK                         _______ _______ _______ _____ _____    ______ ____
ROOT
ATOM      1  C   UNL     1       5.615   4.616  17.149  0.00  0.00    +0.000 A 
ATOM      2  C   UNL     1       5.081   4.113  15.960  0.00  0.00    +0.000 A 
ATOM      3  C   UNL     1       5.759   4.291  14.754  0.00  0.00    +0.000 A 
ATOM      4  C   UNL     1       6.963   4.973  14.766  0.00  0.00    +0.000 A 
ATOM      5  N   UNL     1       7.521   5.480  15.883  0.00  0.00    +0.000 NA
ATOM      6  C   UNL     1       6.831   5.305  17.058  0.00  0.00    +0.000 A 
ENDROOT
BRANCH   6   7
ATOM      7  C   UNL     1       7.509   5.902  18.263  0.00  0.00    +0.000 C 
ATOM      8  O   UNL     1       7.921   7.055  18.347  0.00  0.00    +0.000 OA
ATOM      9  N   UNL     1       7.622   5.031  19.324  0.00  0.00    +0.000 N 
ATOM     10  H   UNL     1       7.163   4.125  19.328  0.00  0.00    +0.000 HD
BRANCH   9  11
ATOM     11  O   UNL     1       8.135   5.551  20.532  0.00  0.00    +0.000 OA
ATOM     12  H   UNL     1       7.383   5.401  21.147  0.00  0.00    +0.000 HD
ENDBRANCH   9  11
ENDBRANCH   6   7
BRANCH   1  14
ATOM     13  C   UNL     1       3.762   3.800  18.394  0.00  0.00    +0.000 C 
ATOM     14  O   UNL     1       4.993   4.511  18.358  0.00  0.00    +0.000 OA
ENDBRANCH   1  14
TORSDOF 3
ENDMDL
MODEL 2
REMARK VINA RESULT:      -5.5      1.450      1.453
REMARK  Name = 
REMARK  4 active torsions:
REMARK  status: ('A' for Active; 'I' for Inactive)
REMARK    1  A    between atoms: C_1  and  O_2
REMARK    2  A    between atoms: O_2  and  C_3
REMARK    3  A    between atoms: C_8  and  C_9
REMARK    4  A    between atoms: N_11  and  O_12
REMARK                            x       y       z     vdW  Elec       q    Type
REMARK                         _______ _______ _______ _____ _____    ______ ____
ROOT
ATOM      1  C   UNL     1       5.710   6.204  16.642  0.00  0.00    +0.000 A 
ATOM      2  C   UNL     1       5.209   5.754  15.418  0.00  0.00    +0.000 A 
ATOM      3  C   UNL     1       5.925   4.826  14.663  0.00  0.00    +0.000 A 
ATOM      4  C   UNL     1       7.135   4.366  15.153  0.00  0.00    +0.000 A 
ATOM      5  N   UNL     1       7.666   4.770  16.325  0.00  0.00    +0.000 NA
ATOM      6  C   UNL     1       6.949   5.694  17.047  0.00  0.00    +0.000 A 
ENDROOT
BRANCH   6   7
ATOM      7  C   UNL     1       7.604   6.102  18.341  0.00  0.00    +0.000 C 
ATOM      8  O   UNL     1       8.176   7.169  18.541  0.00  0.00    +0.000 OA
ATOM      9  N   UNL     1       7.493   5.161  19.340  0.00  0.00    +0.000 N 
ATOM     10  H   UNL     1       6.904   4.339  19.242  0.00  0.00    +0.000 HD
BRANCH   9  11
ATOM     11  O   UNL     1       7.972   5.519  20.618  0.00  0.00    +0.000 OA
ATOM     12  H   UNL     1       7.491   6.360  20.782  0.00  0.00    +0.000 HD
ENDBRANCH   9  11
ENDBRANCH   6   7
BRANCH   1  14
ATOM     13  C   UNL     1       3.738   6.866  17.792  0.00  0.00    +0.000 C 
ATOM     14  O   UNL     1       5.083   7.134  17.416  0.00  0.00    +0.000 OA
ENDBRANCH   1  14
TORSDOF 3
ENDMDL
MODEL 3
REMARK VINA RESULT:      -5.5      2.902      4.842
REMARK  Name = 
REMARK  4 active torsions:
REMARK  status: ('A' for Active; 'I' for Inactive)
REMARK    1  A    between atoms: C_1  and  O_2
REMARK    2  A    between atoms: O_2  and  C_3
REMARK    3  A    between atoms: C_8  and  C_9
REMARK    4  A    between atoms: N_11  and  O_12
REMARK                            x       y       z     vdW  Elec       q    Type
REMARK                         _______ _______ _______ _____ _____    ______ ____
ROOT
ATOM      1  C   UNL     1       2.665   4.557  19.521  0.00  0.00    +0.000 A 
ATOM      2  C   UNL     1       1.435   4.255  20.110  0.00  0.00    +0.000 A 
ATOM      3  C   UNL     1       0.829   3.020  19.877  0.00  0.00    +0.000 A 
ATOM      4  C   UNL     1       1.472   2.112  19.055  0.00  0.00    +0.000 A 
ATOM      5  N   UNL     1       2.658   2.355  18.460  0.00  0.00    +0.000 NA
ATOM      6  C   UNL     1       3.231   3.581  18.693  0.00  0.00    +0.000 A 
ENDROOT
BRANCH   6   7
ATOM      7  C   UNL     1       4.549   3.785  17.993  0.00  0.00    +0.000 C 
ATOM      8  O   UNL     1       4.695   3.936  16.784  0.00  0.00    +0.000 OA
ATOM      9  N   UNL     1       5.630   3.815  18.845  0.00  0.00    +0.000 N 
ATOM     10  H   UNL     1       5.520   3.836  19.855  0.00  0.00    +0.000 HD
BRANCH   9  11
ATOM     11  O   UNL     1       6.887   4.125  18.282  0.00  0.00    +0.000 OA
ATOM     12  H   UNL     1       6.963   3.442  17.579  0.00  0.00    +0.000 HD
ENDBRANCH   9  11
ENDBRANCH   6   7
BRANCH   1  14
ATOM     13  C   UNL     1       2.518   6.930  19.497  0.00  0.00    +0.000 C 
ATOM     14  O   UNL     1       3.299   5.755  19.676  0.00  0.00    +0.000 OA
ENDBRANCH   1  14
TORSDOF 3
ENDMDL
MODEL 4
REMARK VINA RESULT:      -5.5      3.317      5.093
REMARK  Name = 
REMARK  4 active torsions:
REMARK  status: ('A' for Active; 'I' for Inactive)
REMARK    1  A    between atoms: C_1  and  O_2
REMARK    2  A    between atoms: O_2  and  C_3
REMARK    3  A    between atoms: C_8  and  C_9
REMARK    4  A    between atoms: N_11  and  O_12
REMARK                            x       y       z     vdW  Elec       q    Type
REMARK                         _______ _______ _______ _____ _____    ______ ____
ROOT
ATOM      1  C   UNL     1       3.577   4.269  19.007  0.00  0.00    +0.000 A 
ATOM      2  C   UNL     1       2.844   4.836  17.962  0.00  0.00    +0.000 A 
ATOM      3  C   UNL     1       1.607   4.303  17.602  0.00  0.00    +0.000 A 
ATOM      4  C   UNL     1       1.129   3.207  18.299  0.00  0.00    +0.000 A 
ATOM      5  N   UNL     1       1.798   2.620  19.313  0.00  0.00    +0.000 NA
ATOM      6  C   UNL     1       3.019   3.154  19.643  0.00  0.00    +0.000 A 
ENDROOT
BRANCH   6   7
ATOM      7  C   UNL     1       3.711   2.445  20.779  0.00  0.00    +0.000 C 
ATOM      8  O   UNL     1       3.237   2.264  21.897  0.00  0.00    +0.000 OA
ATOM      9  N   UNL     1       4.963   1.971  20.456  0.00  0.00    +0.000 N 
ATOM     10  H   UNL     1       5.313   1.982  19.502  0.00  0.00    +0.000 HD
BRANCH   9  11
ATOM     11  O   UNL     1       5.625   1.188  21.426  0.00  0.00    +0.000 OA
ATOM     12  H   UNL     1       5.460   1.705  22.245  0.00  0.00    +0.000 HD
ENDBRANCH   9  11
ENDBRANCH   6   7
BRANCH   1  14
ATOM     13  C   UNL     1       5.790   4.867  18.375  0.00  0.00    +0.000 C 
ATOM     14  O   UNL     1       4.808   4.714  19.392  0.00  0.00    +0.000 OA
ENDBRANCH   1  14
TORSDOF 3
ENDMDL
MODEL 5
REMARK VINA RESULT:      -5.5      2.224      3.677
REMARK  Name = 
REMARK  4 active torsions:
REMARK  status: ('A' for Active; 'I' for Inactive)
REMARK    1  A    between atoms: C_1  and  O_2
REMARK    2  A    between atoms: O_2  and  C_3
REMARK    3  A    between atoms: C_8  and  C_9
REMARK    4  A    between atoms: N_11  and  O_12
REMARK                            x       y       z     vdW  Elec       q    Type
REMARK                         _______ _______ _______ _____ _____    ______ ____
ROOT
ATOM      1  C   UNL     1       4.148   5.808  18.032  0.00  0.00    +0.000 A 
ATOM      2  C   UNL     1       2.754   5.717  18.001  0.00  0.00    +0.000 A 
ATOM      3  C   UNL     1       2.101   4.697  18.692  0.00  0.00    +0.000 A 
ATOM      4  C   UNL     1       2.862   3.785  19.401  0.00  0.00    +0.000 A 
ATOM      5  N   UNL     1       4.209   3.825  19.461  0.00  0.00    +0.000 NA
ATOM      6  C   UNL     1       4.832   4.830  18.764  0.00  0.00    +0.000 A 
ENDROOT
BRANCH   6   7
ATOM      7  C   UNL     1       6.335   4.810  18.871  0.00  0.00    +0.000 C 
ATOM      8  O   UNL     1       6.985   5.238  19.820  0.00  0.00    +0.000 OA
ATOM      9  N   UNL     1       6.960   4.231  17.789  0.00  0.00    +0.000 N 
ATOM     10  H   UNL     1       6.441   3.744  17.064  0.00  0.00    +0.000 HD
BRANCH   9  11
ATOM     11  O   UNL     1       8.359   4.061  17.867  0.00  0.00    +0.000 OA
ATOM     12  H   UNL     1       8.658   4.493  17.037  0.00  0.00    +0.000 HD
ENDBRANCH   9  11
ENDBRANCH   6   7
BRANCH   1  14
ATOM     13  C   UNL     1       5.042   6.552  15.958  0.00  0.00    +0.000 C 
ATOM     14  O   UNL     1       4.856   6.756  17.353  0.00  0.00    +0.000 OA
ENDBRANCH   1  14
TORSDOF 3
ENDMDL
MODEL 6
REMARK VINA RESULT:      -5.5      2.401      3.262
REMARK  Name = 
REMARK  4 active torsions:
REMARK  status: ('A' for Active; 'I' for Inactive)
REMARK    1  A    between atoms: C_1  and  O_2
REMARK    2  A    between atoms: O_2  and  C_3
REMARK    3  A    between atoms: C_8  and  C_9
REMARK    4  A    between atoms: N_11  and  O_12
REMARK                            x       y       z     vdW  Elec       q    Type
REMARK                         _______ _______ _______ _____ _____    ______ ____
ROOT
ATOM      1  C   UNL     1       3.851   3.965  18.585  0.00  0.00    +0.000 A 
ATOM      2  C   UNL     1       2.494   4.236  18.392  0.00  0.00    +0.000 A 
ATOM      3  C   UNL     1       2.072   5.532  18.098  0.00  0.00    +0.000 A 
ATOM      4  C   UNL     1       3.023   6.533  18.004  0.00  0.00    +0.000 A 
ATOM      5  N   UNL     1       4.343   6.326  18.184  0.00  0.00    +0.000 NA
ATOM      6  C   UNL     1       4.736   5.045  18.485  0.00  0.00    +0.000 A 
ENDROOT
BRANCH   6   7
ATOM      7  C   UNL     1       6.222   4.888  18.678  0.00  0.00    +0.000 C 
ATOM      8  O   UNL     1       6.843   5.203  19.689  0.00  0.00    +0.000 OA
ATOM      9  N   UNL     1       6.864   4.320  17.601  0.00  0.00    +0.000 N 
ATOM     10  H   UNL     1       6.353   3.922  16.818  0.00  0.00    +0.000 HD
BRANCH   9  11
ATOM     11  O   UNL     1       8.236   4.026  17.750  0.00  0.00    +0.000 OA
ATOM     12  H   UNL     1       8.531   4.750  18.346  0.00  0.00    +0.000 HD
ENDBRANCH   9  11
ENDBRANCH   6   7
BRANCH   1  14
ATOM     13  C   UNL     1       3.579   1.605  18.476  0.00  0.00    +0.000 C 
ATOM     14  O   UNL     1       4.333   2.730  18.909  0.00  0.00    +0.000 OA
ENDBRANCH   1  14
TORSDOF 3
ENDMDL
MODEL 7
REMARK VINA RESULT:      -5.4      2.877      4.514
REMARK  Name = 
REMARK  4 active torsions:
REMARK  status: ('A' for Active; 'I' for Inactive)
REMARK    1  A    between atoms: C_1  and  O_2
REMARK    2  A    between atoms: O_2  and  C_3
REMARK    3  A    between atoms: C_8  and  C_9
REMARK    4  A    between atoms: N_11  and  O_12
REMARK                            x       y       z     vdW  Elec       q    Type
REMARK                         _______ _______ _______ _____ _____    ______ ____
ROOT
ATOM      1  C   UNL     1       4.975   4.708  18.408  0.00  0.00    +0.000 A 
ATOM      2  C   UNL     1       4.650   6.017  18.042  0.00  0.00    +0.000 A 
ATOM      3  C   UNL     1       3.316   6.401  17.917  0.00  0.00    +0.000 A 
ATOM      4  C   UNL     1       2.330   5.461  18.164  0.00  0.00    +0.000 A 
ATOM      5  N   UNL     1       2.589   4.186  18.517  0.00  0.00    +0.000 NA
ATOM      6  C   UNL     1       3.910   3.825  18.622  0.00  0.00    +0.000 A 
ENDROOT
BRANCH   6   7
ATOM      7  C   UNL     1       4.124   2.387  19.014  0.00  0.00    +0.000 C 
ATOM      8  O   UNL     1       3.564   1.421  18.505  0.00  0.00    +0.000 OA
ATOM      9  N   UNL     1       5.052   2.218  20.017  0.00  0.00    +0.000 N 
ATOM     10  H   UNL     1       5.630   2.984  20.352  0.00  0.00    +0.000 HD
BRANCH   9  11
ATOM     11  O   UNL     1       5.400   0.893  20.357  0.00  0.00    +0.000 OA
ATOM     12  H   UNL     1       6.167   1.036  20.955  0.00  0.00    +0.000 HD
ENDBRANCH   9  11
ENDBRANCH   6   7
BRANCH   1  14
ATOM     13  C   UNL     1       7.217   4.802  17.622  0.00  0.00    +0.000 C 
ATOM     14  O   UNL     1       6.256   4.253  18.516  0.00  0.00    +0.000 OA
ENDBRANCH   1  14
TORSDOF 3
ENDMDL
MODEL 8
REMARK VINA RESULT:      -5.4      2.609      3.879
REMARK  Name = 
REMARK  4 active torsions:
REMARK  status: ('A' for Active; 'I' for Inactive)
REMARK    1  A    between atoms: C_1  and  O_2
REMARK    2  A    between atoms: O_2  and  C_3
REMARK    3  A    between atoms: C_8  and  C_9
REMARK    4  A    between atoms: N_11  and  O_12
REMARK                            x       y       z     vdW  Elec       q    Type
REMARK                         _______ _______ _______ _____ _____    ______ ____
ROOT
ATOM      1  C   UNL     1       3.497   4.891  17.856  0.00  0.00    +0.000 A 
ATOM      2  C   UNL     1       2.154   4.509  17.807  0.00  0.00    +0.000 A 
ATOM      3  C   UNL     1       1.699   3.441  18.580  0.00  0.00    +0.000 A 
ATOM      4  C   UNL     1       2.604   2.775  19.388  0.00  0.00    +0.000 A 
ATOM      5  N   UNL     1       3.910   3.101  19.470  0.00  0.00    +0.000 NA
ATOM      6  C   UNL     1       4.339   4.148  18.691  0.00  0.00    +0.000 A 
ENDROOT
BRANCH   6   7
ATOM      7  C   UNL     1       5.809   4.452  18.829  0.00  0.00    +0.000 C 
ATOM      8  O   UNL     1       6.327   5.038  19.774  0.00  0.00    +0.000 OA
ATOM      9  N   UNL     1       6.571   3.986  17.781  0.00  0.00    +0.000 N 
ATOM     10  H   UNL     1       6.187   3.377  17.064  0.00  0.00    +0.000 HD
BRANCH   9  11
ATOM     11  O   UNL     1       7.972   4.122  17.894  0.00  0.00    +0.000 OA
ATOM     12  H   UNL     1       8.051   4.756  18.640  0.00  0.00    +0.000 HD
ENDBRANCH   9  11
ENDBRANCH   6   7
BRANCH   1  14
ATOM     13  C   UNL     1       3.773   7.231  17.542  0.00  0.00    +0.000 C 
ATOM     14  O   UNL     1       4.020   5.902  17.104  0.00  0.00    +0.000 OA
ENDBRANCH   1  14
TORSDOF 3
ENDMDL
MODEL 9
REMARK VINA RESULT:      -5.4      2.256      3.973
REMARK  Name = 
REMARK  4 active torsions:
REMARK  status: ('A' for Active; 'I' for Inactive)
REMARK    1  A    between atoms: C_1  and  O_2
REMARK    2  A    between atoms: O_2  and  C_3
REMARK    3  A    between atoms: C_8  and  C_9
REMARK    4  A    between atoms: N_11  and  O_12
REMARK                            x       y       z     vdW  Elec       q    Type
REMARK                         _______ _______ _______ _____ _____    ______ ____
ROOT
ATOM      1  C   UNL     1       6.082   4.623  18.212  0.00  0.00    +0.000 A 
ATOM      2  C   UNL     1       5.186   4.672  19.283  0.00  0.00    +0.000 A 
ATOM      3  C   UNL     1       3.812   4.609  19.053  0.00  0.00    +0.000 A 
ATOM      4  C   UNL     1       3.363   4.498  17.749  0.00  0.00    +0.000 A 
ATOM      5  N   UNL     1       4.183   4.448  16.681  0.00  0.00    +0.000 NA
ATOM      6  C   UNL     1       5.532   4.524  16.928  0.00  0.00    +0.000 A 
ENDROOT
BRANCH   6   7
ATOM      7  C   UNL     1       6.387   4.469  15.689  0.00  0.00    +0.000 C 
ATOM      8  O   UNL     1       6.332   3.599  14.826  0.00  0.00    +0.000 OA
ATOM      9  N   UNL     1       7.262   5.526  15.572  0.00  0.00    +0.000 N 
ATOM     10  H   UNL     1       7.225   6.328  16.195  0.00  0.00    +0.000 HD
BRANCH   9  11
ATOM     11  O   UNL     1       8.011   5.614  14.379  0.00  0.00    +0.000 OA
ATOM     12  H   UNL     1       8.930   5.652  14.723  0.00  0.00    +0.000 HD
ENDBRANCH   9  11
ENDBRANCH   6   7
BRANCH   1  14
ATOM     13  C   UNL     1       7.932   5.791  19.141  0.00  0.00    +0.000 C 
ATOM     14  O   UNL     1       7.435   4.714  18.357  0.00  0.00    +0.000 OA
ENDBRANCH   1  14
TORSDOF 3
ENDMDL
