MODEL 1
REMARK VINA RESULT:      -7.2      0.000      0.000
REMARK  Name = 
REMARK  3 active torsions:
REMARK  status: ('A' for Active; 'I' for Inactive)
REMARK    1  A    between atoms: O_1  and  C_2
REMARK    2  A    between atoms: C_5  and  C_6
REMARK    3  A    between atoms: C_6  and  N_7
REMARK                            x       y       z     vdW  Elec       q    Type
REMARK                         _______ _______ _______ _____ _____    ______ ____
ROOT
ATOM      1  C   UNL     1       6.900   5.756  18.147  0.00  0.00    +0.000 A 
ATOM      2  C   UNL     1       6.174   5.407  19.283  0.00  0.00    +0.000 A 
ATOM      3  C   UNL     1       5.121   4.510  19.172  0.00  0.00    +0.000 A 
ATOM      4  C   UNL     1       4.789   3.948  17.927  0.00  0.00    +0.000 A 
ATOM      5  C   UNL     1       5.559   4.286  16.774  0.00  0.00    +0.000 A 
ATOM      6  C   UNL     1       5.324   3.742  15.492  0.00  0.00    +0.000 A 
ATOM      7  C   UNL     1       6.094   4.124  14.399  0.00  0.00    +0.000 A 
ATOM      8  C   UNL     1       7.093   5.046  14.608  0.00  0.00    +0.000 A 
ATOM      9  N   UNL     1       7.365   5.586  15.811  0.00  0.00    +0.000 NA
ATOM     10  C   UNL     1       6.624   5.217  16.882  0.00  0.00    +0.000 A 
ENDROOT
BRANCH   1  11
ATOM     11  O   UNL     1       7.927   6.664  18.275  0.00  0.00    +0.000 OA
ATOM     12  H   UNL     1       7.826   7.366  17.615  0.00  0.00    +0.000 HD
ENDBRANCH   1  11
BRANCH   4  13
ATOM     13  C   UNL     1       3.610   2.996  17.874  0.00  0.00    +0.000 C 
BRANCH  13  14
ATOM     14  N   UNL     1       2.656   3.237  18.949  0.00  0.00    +0.000 N 
ATOM     15  C   UNL     1       1.671   4.186  18.976  0.00  0.00    +0.000 A 
ATOM     16  C   UNL     1       0.998   4.007  20.161  0.00  0.00    +0.000 A 
ATOM     17  C   UNL     1       1.626   2.900  20.762  0.00  0.00    +0.000 A 
ATOM     18  N   UNL     1       2.625   2.414  20.020  0.00  0.00    +0.000 NA
ENDBRANCH  13  14
ENDBRANCH   4  13
TORSDOF 3
ENDMDL
MODEL 2
REMARK VINA RESULT:      -7.1      1.213      1.329
REMARK  Name = 
REMARK  3 active torsions:
REMARK  status: ('A' for Active; 'I' for Inactive)
REMARK    1  A    between atoms: O_1  and  C_2
REMARK    2  A    between atoms: C_5  and  C_6
REMARK    3  A    between atoms: C_6  and  N_7
REMARK                            x       y       z     vdW  Elec       q    Type
REMARK                         _______ _______ _______ _____ _____    ______ ____
ROOT
ATOM      1  C   UNL     1       6.944   5.044  18.474  0.00  0.00    +0.000 A 
ATOM      2  C   UNL     1       6.053   5.241  19.527  0.00  0.00    +0.000 A 
ATOM      3  C   UNL     1       4.691   5.290  19.269  0.00  0.00    +0.000 A 
ATOM      4  C   UNL     1       4.205   5.134  17.959  0.00  0.00    +0.000 A 
ATOM      5  C   UNL     1       5.123   4.899  16.892  0.00  0.00    +0.000 A 
ATOM      6  C   UNL     1       4.725   4.692  15.552  0.00  0.00    +0.000 A 
ATOM      7  C   UNL     1       5.665   4.488  14.549  0.00  0.00    +0.000 A 
ATOM      8  C   UNL     1       6.994   4.491  14.903  0.00  0.00    +0.000 A 
ATOM      9  N   UNL     1       7.425   4.672  16.165  0.00  0.00    +0.000 NA
ATOM     10  C   UNL     1       6.518   4.867  17.150  0.00  0.00    +0.000 A 
ENDROOT
BRANCH   1  11
ATOM     11  O   UNL     1       8.293   5.020  18.749  0.00  0.00    +0.000 OA
ATOM     12  H   UNL     1       8.721   4.330  18.221  0.00  0.00    +0.000 HD
ENDBRANCH   1  11
BRANCH   4  13
ATOM     13  C   UNL     1       2.707   5.226  17.746  0.00  0.00    +0.000 C 
BRANCH  13  14
ATOM     14  N   UNL     1       1.983   4.172  18.444  0.00  0.00    +0.000 N 
ATOM     15  C   UNL     1       1.435   4.241  19.696  0.00  0.00    +0.000 A 
ATOM     16  C   UNL     1       0.819   3.032  19.913  0.00  0.00    +0.000 A 
ATOM     17  C   UNL     1       1.016   2.314  18.719  0.00  0.00    +0.000 A 
ATOM     18  N   UNL     1       1.709   3.009  17.813  0.00  0.00    +0.000 NA
ENDBRANCH  13  14
ENDBRANCH   4  13
TORSDOF 3
ENDMDL
MODEL 3
REMARK VINA RESULT:      -6.9      2.039      5.205
REMARK  Name = 
REMARK  3 active torsions:
REMARK  status: ('A' for Active; 'I' for Inactive)
REMARK    1  A    between atoms: O_1  and  C_2
REMARK    2  A    between atoms: C_5  and  C_6
REMARK    3  A    between atoms: C_6  and  N_7
REMARK                            x       y       z     vdW  Elec       q    Type
REMARK                         _______ _______ _______ _____ _____    ______ ____
ROOT
ATOM      1  C   UNL     1       7.140   5.556  19.231  0.00  0.00    +0.000 A 
ATOM      2  C   UNL     1       7.679   6.495  18.354  0.00  0.00    +0.000 A 
ATOM      3  C   UNL     1       7.108   6.664  17.101  0.00  0.00    +0.000 A 
ATOM      4  C   UNL     1       5.991   5.904  16.715  0.00  0.00    +0.000 A 
ATOM      5  C   UNL     1       5.425   4.968  17.632  0.00  0.00    +0.000 A 
ATOM      6  C   UNL     1       4.281   4.190  17.347  0.00  0.00    +0.000 A 
ATOM      7  C   UNL     1       3.786   3.279  18.272  0.00  0.00    +0.000 A 
ATOM      8  C   UNL     1       4.445   3.161  19.474  0.00  0.00    +0.000 A 
ATOM      9  N   UNL     1       5.531   3.886  19.799  0.00  0.00    +0.000 NA
ATOM     10  C   UNL     1       6.018   4.780  18.907  0.00  0.00    +0.000 A 
ENDROOT
BRANCH   1  11
ATOM     11  O   UNL     1       7.734   5.388  20.461  0.00  0.00    +0.000 OA
ATOM     12  H   UNL     1       7.596   6.180  21.002  0.00  0.00    +0.000 HD
ENDBRANCH   1  11
BRANCH   4  13
ATOM     13  C   UNL     1       5.436   6.122  15.320  0.00  0.00    +0.000 C 
BRANCH  13  14
ATOM     14  N   UNL     1       5.988   5.185  14.352  0.00  0.00    +0.000 N 
ATOM     15  C   UNL     1       5.371   4.080  13.833  0.00  0.00    +0.000 A 
ATOM     16  C   UNL     1       6.254   3.535  12.932  0.00  0.00    +0.000 A 
ATOM     17  C   UNL     1       7.359   4.405  12.947  0.00  0.00    +0.000 A 
ATOM     18  N   UNL     1       7.197   5.423  13.796  0.00  0.00    +0.000 NA
ENDBRANCH  13  14
ENDBRANCH   4  13
TORSDOF 3
ENDMDL
MODEL 4
REMARK VINA RESULT:      -6.8      2.609      5.907
REMARK  Name = 
REMARK  3 active torsions:
REMARK  status: ('A' for Active; 'I' for Inactive)
REMARK    1  A    between atoms: O_1  and  C_2
REMARK    2  A    between atoms: C_5  and  C_6
REMARK    3  A    between atoms: C_6  and  N_7
REMARK                            x       y       z     vdW  Elec       q    Type
REMARK                         _______ _______ _______ _____ _____    ______ ____
ROOT
ATOM      1  C   UNL     1       2.795   2.602  18.434  0.00  0.00    +0.000 A 
ATOM      2  C   UNL     1       3.673   2.552  17.353  0.00  0.00    +0.000 A 
ATOM      3  C   UNL     1       4.261   3.723  16.898  0.00  0.00    +0.000 A 
ATOM      4  C   UNL     1       3.985   4.952  17.521  0.00  0.00    +0.000 A 
ATOM      5  C   UNL     1       3.110   4.988  18.648  0.00  0.00    +0.000 A 
ATOM      6  C   UNL     1       2.805   6.170  19.362  0.00  0.00    +0.000 A 
ATOM      7  C   UNL     1       1.929   6.149  20.441  0.00  0.00    +0.000 A 
ATOM      8  C   UNL     1       1.372   4.941  20.792  0.00  0.00    +0.000 A 
ATOM      9  N   UNL     1       1.638   3.787  20.154  0.00  0.00    +0.000 NA
ATOM     10  C   UNL     1       2.493   3.795  19.104  0.00  0.00    +0.000 A 
ENDROOT
BRANCH   1  11
ATOM     11  O   UNL     1       2.205   1.432  18.857  0.00  0.00    +0.000 OA
ATOM     12  H   UNL     1       2.169   0.801  18.123  0.00  0.00    +0.000 HD
ENDBRANCH   1  11
BRANCH   4  13
ATOM     13  C   UNL     1       4.642   6.195  16.953  0.00  0.00    +0.000 C 
BRANCH  13  14
ATOM     14  N   UNL     1       5.957   6.438  17.530  0.00  0.00    +0.000 N 
ATOM     15  C   UNL     1       6.614   5.654  18.439  0.00  0.00    +0.000 A 
ATOM     16  C   UNL     1       7.832   6.253  18.653  0.00  0.00    +0.000 A 
ATOM     17  C   UNL     1       7.833   7.371  17.798  0.00  0.00    +0.000 A 
ATOM     18  N   UNL     1       6.702   7.479  17.097  0.00  0.00    +0.000 NA
ENDBRANCH  13  14
ENDBRANCH   4  13
TORSDOF 3
ENDMDL
MODEL 5
REMARK VINA RESULT:      -6.8      2.200      5.555
REMARK  Name = 
REMARK  3 active torsions:
REMARK  status: ('A' for Active; 'I' for Inactive)
REMARK    1  A    between atoms: O_1  and  C_2
REMARK    2  A    between atoms: C_5  and  C_6
REMARK    3  A    between atoms: C_6  and  N_7
REMARK                            x       y       z     vdW  Elec       q    Type
REMARK                         _______ _______ _______ _____ _____    ______ ____
ROOT
ATOM      1  C   UNL     1       3.009   6.531  17.946  0.00  0.00    +0.000 A 
ATOM      2  C   UNL     1       4.161   7.223  17.576  0.00  0.00    +0.000 A 
ATOM      3  C   UNL     1       5.283   6.515  17.172  0.00  0.00    +0.000 A 
ATOM      4  C   UNL     1       5.264   5.110  17.126  0.00  0.00    +0.000 A 
ATOM      5  C   UNL     1       4.070   4.411  17.474  0.00  0.00    +0.000 A 
ATOM      6  C   UNL     1       3.945   3.004  17.420  0.00  0.00    +0.000 A 
ATOM      7  C   UNL     1       2.763   2.375  17.791  0.00  0.00    +0.000 A 
ATOM      8  C   UNL     1       1.718   3.166  18.211  0.00  0.00    +0.000 A 
ATOM      9  N   UNL     1       1.782   4.509  18.269  0.00  0.00    +0.000 NA
ATOM     10  C   UNL     1       2.927   5.132  17.906  0.00  0.00    +0.000 A 
ENDROOT
BRANCH   1  11
ATOM     11  O   UNL     1       1.914   7.251  18.365  0.00  0.00    +0.000 OA
ATOM     12  H   UNL     1       1.728   7.052  19.294  0.00  0.00    +0.000 HD
ENDBRANCH   1  11
BRANCH   4  13
ATOM     13  C   UNL     1       6.535   4.401  16.700  0.00  0.00    +0.000 C 
BRANCH  13  14
ATOM     14  N   UNL     1       6.720   4.416  15.256  0.00  0.00    +0.000 N 
ATOM     15  C   UNL     1       5.997   3.718  14.327  0.00  0.00    +0.000 A 
ATOM     16  C   UNL     1       6.497   4.080  13.100  0.00  0.00    +0.000 A 
ATOM     17  C   UNL     1       7.493   5.031  13.389  0.00  0.00    +0.000 A 
ATOM     18  N   UNL     1       7.622   5.254  14.699  0.00  0.00    +0.000 NA
ENDBRANCH  13  14
ENDBRANCH   4  13
TORSDOF 3
ENDMDL
MODEL 6
REMARK VINA RESULT:      -6.7      2.432      5.611
REMARK  Name = 
REMARK  3 active torsions:
REMARK  status: ('A' for Active; 'I' for Inactive)
REMARK    1  A    between atoms: O_1  and  C_2
REMARK    2  A    between atoms: C_5  and  C_6
REMARK    3  A    between atoms: C_6  and  N_7
REMARK                            x       y       z     vdW  Elec       q    Type
REMARK                         _______ _______ _______ _____ _____    ______ ____
ROOT
ATOM      1  C   UNL     1       2.287   6.389  19.868  0.00  0.00    +0.000 A 
ATOM      2  C   UNL     1       2.859   6.987  18.747  0.00  0.00    +0.000 A 
ATOM      3  C   UNL     1       3.329   6.191  17.713  0.00  0.00    +0.000 A 
ATOM      4  C   UNL     1       3.227   4.791  17.785  0.00  0.00    +0.000 A 
ATOM      5  C   UNL     1       2.610   4.188  18.922  0.00  0.00    +0.000 A 
ATOM      6  C   UNL     1       2.427   2.794  19.063  0.00  0.00    +0.000 A 
ATOM      7  C   UNL     1       1.838   2.261  20.204  0.00  0.00    +0.000 A 
ATOM      8  C   UNL     1       1.436   3.134  21.188  0.00  0.00    +0.000 A 
ATOM      9  N   UNL     1       1.576   4.469  21.097  0.00  0.00    +0.000 NA
ATOM     10  C   UNL     1       2.145   4.999  19.989  0.00  0.00    +0.000 A 
ENDROOT
BRANCH   1  11
ATOM     11  O   UNL     1       1.847   7.196  20.892  0.00  0.00    +0.000 OA
ATOM     12  H   UNL     1       0.885   7.303  20.833  0.00  0.00    +0.000 HD
ENDBRANCH   1  11
BRANCH   4  13
ATOM     13  C   UNL     1       3.786   3.982  16.631  0.00  0.00    +0.000 C 
BRANCH  13  14
ATOM     14  N   UNL     1       5.197   4.256  16.395  0.00  0.00    +0.000 N 
ATOM     15  C   UNL     1       5.782   4.592  15.205  0.00  0.00    +0.000 A 
ATOM     16  C   UNL     1       7.113   4.799  15.476  0.00  0.00    +0.000 A 
ATOM     17  C   UNL     1       7.227   4.603  16.864  0.00  0.00    +0.000 A 
ATOM     18  N   UNL     1       6.061   4.290  17.434  0.00  0.00    +0.000 NA
ENDBRANCH  13  14
ENDBRANCH   4  13
TORSDOF 3
ENDMDL
MODEL 7
REMARK VINA RESULT:      -6.7      2.539      5.546
REMARK  Name = 
REMARK  3 active torsions:
REMARK  status: ('A' for Active; 'I' for Inactive)
REMARK    1  A    between atoms: O_1  and  C_2
REMARK    2  A    between atoms: C_5  and  C_6
REMARK    3  A    between atoms: C_6  and  N_7
REMARK                            x       y       z     vdW  Elec       q    Type
REMARK                         _______ _______ _______ _____ _____    ______ ____
ROOT
ATOM      1  C   UNL     1       1.968   5.276  19.738  0.00  0.00    +0.000 A 
ATOM      2  C   UNL     1       2.377   6.566  19.404  0.00  0.00    +0.000 A 
ATOM      3  C   UNL     1       3.359   6.743  18.440  0.00  0.00    +0.000 A 
ATOM      4  C   UNL     1       3.937   5.636  17.796  0.00  0.00    +0.000 A 
ATOM      5  C   UNL     1       3.489   4.320  18.120  0.00  0.00    +0.000 A 
ATOM      6  C   UNL     1       3.983   3.152  17.497  0.00  0.00    +0.000 A 
ATOM      7  C   UNL     1       3.524   1.894  17.867  0.00  0.00    +0.000 A 
ATOM      8  C   UNL     1       2.572   1.823  18.858  0.00  0.00    +0.000 A 
ATOM      9  N   UNL     1       2.061   2.905  19.475  0.00  0.00    +0.000 NA
ATOM     10  C   UNL     1       2.498   4.135  19.118  0.00  0.00    +0.000 A 
ENDROOT
BRANCH   1  11
ATOM     11  O   UNL     1       1.008   5.121  20.711  0.00  0.00    +0.000 OA
ATOM     12  H   UNL     1       0.729   5.990  21.036  0.00  0.00    +0.000 HD
ENDBRANCH   1  11
BRANCH   4  13
ATOM     13  C   UNL     1       5.024   5.903  16.773  0.00  0.00    +0.000 C 
BRANCH  13  14
ATOM     14  N   UNL     1       6.225   6.465  17.375  0.00  0.00    +0.000 N 
ATOM     15  C   UNL     1       7.033   5.871  18.306  0.00  0.00    +0.000 A 
ATOM     16  C   UNL     1       8.061   6.753  18.541  0.00  0.00    +0.000 A 
ATOM     17  C   UNL     1       7.806   7.834  17.676  0.00  0.00    +0.000 A 
ATOM     18  N   UNL     1       6.699   7.657  16.950  0.00  0.00    +0.000 NA
ENDBRANCH  13  14
ENDBRANCH   4  13
TORSDOF 3
ENDMDL
MODEL 8
REMARK VINA RESULT:      -6.7      1.545      2.836
REMARK  Name = 
REMARK  3 active torsions:
REMARK  status: ('A' for Active; 'I' for Inactive)
REMARK    1  A    between atoms: O_1  and  C_2
REMARK    2  A    between atoms: C_5  and  C_6
REMARK    3  A    between atoms: C_6  and  N_7
REMARK                            x       y       z     vdW  Elec       q    Type
REMARK                         _______ _______ _______ _____ _____    ______ ____
ROOT
ATOM      1  C   UNL     1       5.742   5.203  15.780  0.00  0.00    +0.000 A 
ATOM      2  C   UNL     1       4.706   4.272  15.759  0.00  0.00    +0.000 A 
ATOM      3  C   UNL     1       4.320   3.654  16.940  0.00  0.00    +0.000 A 
ATOM      4  C   UNL     1       4.959   3.965  18.152  0.00  0.00    +0.000 A 
ATOM      5  C   UNL     1       5.997   4.944  18.169  0.00  0.00    +0.000 A 
ATOM      6  C   UNL     1       6.668   5.349  19.345  0.00  0.00    +0.000 A 
ATOM      7  C   UNL     1       7.687   6.293  19.299  0.00  0.00    +0.000 A 
ATOM      8  C   UNL     1       8.018   6.822  18.073  0.00  0.00    +0.000 A 
ATOM      9  N   UNL     1       7.403   6.479  16.926  0.00  0.00    +0.000 NA
ATOM     10  C   UNL     1       6.406   5.564  16.961  0.00  0.00    +0.000 A 
ENDROOT
BRANCH   1  11
ATOM     11  O   UNL     1       6.125   5.788  14.594  0.00  0.00    +0.000 OA
ATOM     12  H   UNL     1       7.092   5.832  14.548  0.00  0.00    +0.000 HD
ENDBRANCH   1  11
BRANCH   4  13
ATOM     13  C   UNL     1       4.503   3.231  19.399  0.00  0.00    +0.000 C 
BRANCH  13  14
ATOM     14  N   UNL     1       3.180   3.653  19.837  0.00  0.00    +0.000 N 
ATOM     15  C   UNL     1       2.076   2.862  19.997  0.00  0.00    +0.000 A 
ATOM     16  C   UNL     1       1.079   3.683  20.466  0.00  0.00    +0.000 A 
ATOM     17  C   UNL     1       1.690   4.944  20.595  0.00  0.00    +0.000 A 
ATOM     18  N   UNL     1       2.975   4.929  20.230  0.00  0.00    +0.000 NA
ENDBRANCH  13  14
ENDBRANCH   4  13
TORSDOF 3
ENDMDL
MODEL 9
REMARK VINA RESULT:      -6.7      1.254      1.380
REMARK  Name = 
REMARK  3 active torsions:
REMARK  status: ('A' for Active; 'I' for Inactive)
REMARK    1  A    between atoms: O_1  and  C_2
REMARK    2  A    between atoms: C_5  and  C_6
REMARK    3  A    between atoms: C_6  and  N_7
REMARK                            x       y       z     vdW  Elec       q    Type
REMARK                         _______ _______ _______ _____ _____    ______ ____
ROOT
ATOM      1  C   UNL     1       7.365   6.493  17.317  0.00  0.00    +0.000 A 
ATOM      2  C   UNL     1       7.080   6.419  18.679  0.00  0.00    +0.000 A 
ATOM      3  C   UNL     1       6.275   5.393  19.153  0.00  0.00    +0.000 A 
ATOM      4  C   UNL     1       5.752   4.429  18.275  0.00  0.00    +0.000 A 
ATOM      5  C   UNL     1       6.076   4.494  16.886  0.00  0.00    +0.000 A 
ATOM      6  C   UNL     1       5.630   3.548  15.936  0.00  0.00    +0.000 A 
ATOM      7  C   UNL     1       5.960   3.672  14.592  0.00  0.00    +0.000 A 
ATOM      8  C   UNL     1       6.736   4.744  14.217  0.00  0.00    +0.000 A 
ATOM      9  N   UNL     1       7.196   5.666  15.083  0.00  0.00    +0.000 NA
ATOM     10  C   UNL     1       6.885   5.551  16.396  0.00  0.00    +0.000 A 
ENDROOT
BRANCH   1  11
ATOM     11  O   UNL     1       8.148   7.530  16.864  0.00  0.00    +0.000 OA
ATOM     12  H   UNL     1       7.750   7.917  16.070  0.00  0.00    +0.000 HD
ENDBRANCH   1  11
BRANCH   4  13
ATOM     13  C   UNL     1       4.857   3.353  18.858  0.00  0.00    +0.000 C 
BRANCH  13  14
ATOM     14  N   UNL     1       3.451   3.580  18.556  0.00  0.00    +0.000 N 
ATOM     15  C   UNL     1       2.866   4.765  18.202  0.00  0.00    +0.000 A 
ATOM     16  C   UNL     1       1.541   4.486  17.972  0.00  0.00    +0.000 A 
ATOM     17  C   UNL     1       1.430   3.098  18.175  0.00  0.00    +0.000 A 
ATOM     18  N   UNL     1       2.593   2.536  18.513  0.00  0.00    +0.000 NA
ENDBRANCH  13  14
ENDBRANCH   4  13
TORSDOF 3
ENDMDL
