MODEL 1
REMARK VINA RESULT:      -7.6      0.000      0.000
REMARK  Name = 
REMARK  8 active torsions:
REMARK  status: ('A' for Active; 'I' for Inactive)
REMARK    1  A    between atoms: C_1  and  C_2
REMARK    2  A    between atoms: C_2  and  C_3
REMARK    3  A    between atoms: C_8  and  N_9
REMARK    4  A    between atoms: C_13  and  C_14
REMARK    5  A    between atoms: C_18  and  O_19
REMARK    6  A    between atoms: N_23  and  C_24
REMARK    7  A    between atoms: C_29  and  C_30
REMARK    8  A    between atoms: C_30  and  C_31
REMARK                            x       y       z     vdW  Elec       q    Type
REMARK                         _______ _______ _______ _____ _____    ______ ____
ROOT
ATOM      1  N   UNL     1      -1.799  10.906  18.637  0.00  0.00    +0.000 NA
ATOM      2  C   UNL     1      -0.969  11.712  19.231  0.00  0.00    +0.000 C 
ATOM      3  S   UNL     1      -1.317  13.338  19.838  0.00  0.00    +0.000 S 
ATOM      4  C   UNL     1       0.321  13.798  19.667  0.00  0.00    +0.000 C 
ATOM      5  C   UNL     1       0.792  15.037  19.452  0.00  0.00    +0.000 C 
ATOM      6  C   UNL     1       1.173  12.569  19.658  0.00  0.00    +0.000 C 
ATOM      7  O   UNL     1       2.396  12.621  19.696  0.00  0.00    +0.000 OA
ATOM      8  N   UNL     1       0.366  11.444  19.506  0.00  0.00    +0.000 N 
ENDROOT
BRANCH   1  14
ATOM      9  C   UNL     1      -3.569  11.215  16.945  0.00  0.00    +0.000 A 
ATOM     10  C   UNL     1      -4.919  11.525  16.666  0.00  0.00    +0.000 A 
ATOM     11  C   UNL     1      -5.773  11.998  17.658  0.00  0.00    +0.000 A 
ATOM     12  C   UNL     1      -5.276  12.237  18.928  0.00  0.00    +0.000 A 
ATOM     13  C   UNL     1      -3.943  11.948  19.207  0.00  0.00    +0.000 A 
ATOM     14  C   UNL     1      -3.100  11.324  18.266  0.00  0.00    +0.000 A 
BRANCH   9  16
ATOM     15  C   UNL     1      -3.441  10.213  14.622  0.00  0.00    +0.000 C 
ATOM     16  C   UNL     1      -2.685  10.843  15.776  0.00  0.00    +0.000 C 
ENDBRANCH   9  16
ENDBRANCH   1  14
BRANCH   5  17
ATOM     17  C   UNL     1      -0.022  16.258  19.336  0.00  0.00    +0.000 A 
ATOM     18  C   UNL     1      -0.328  16.784  18.075  0.00  0.00    +0.000 A 
ATOM     19  C   UNL     1      -1.128  17.926  17.956  0.00  0.00    +0.000 A 
ATOM     20  C   UNL     1      -1.625  18.560  19.094  0.00  0.00    +0.000 A 
ATOM     21  C   UNL     1      -1.313  18.042  20.347  0.00  0.00    +0.000 A 
ATOM     22  C   UNL     1      -0.517  16.902  20.479  0.00  0.00    +0.000 A 
BRANCH  21  23
ATOM     23  O   UNL     1      -1.778  18.631  21.490  0.00  0.00    +0.000 OA
ATOM     24  H   UNL     1      -1.877  19.583  21.325  0.00  0.00    +0.000 HD
ENDBRANCH  21  23
ENDBRANCH   5  17
BRANCH   8  25
ATOM     25  C   UNL     1       0.958  10.159  19.344  0.00  0.00    +0.000 A 
ATOM     26  C   UNL     1       1.367   9.769  18.054  0.00  0.00    +0.000 A 
ATOM     27  C   UNL     1       2.002   8.547  17.827  0.00  0.00    +0.000 A 
ATOM     28  C   UNL     1       2.239   7.687  18.888  0.00  0.00    +0.000 A 
ATOM     29  C   UNL     1       1.837   8.052  20.170  0.00  0.00    +0.000 A 
ATOM     30  C   UNL     1       1.178   9.278  20.431  0.00  0.00    +0.000 A 
BRANCH  30  31
ATOM     31  C   UNL     1       0.780   9.490  21.882  0.00  0.00    +0.000 C 
ATOM     32  C   UNL     1      -0.551   8.943  22.379  0.00  0.00    +0.000 C 
ENDBRANCH  30  31
ENDBRANCH   8  25
TORSDOF 6
ENDMDL
MODEL 2
REMARK VINA RESULT:      -7.4      0.831      1.199
REMARK  Name = 
REMARK  8 active torsions:
REMARK  status: ('A' for Active; 'I' for Inactive)
REMARK    1  A    between atoms: C_1  and  C_2
REMARK    2  A    between atoms: C_2  and  C_3
REMARK    3  A    between atoms: C_8  and  N_9
REMARK    4  A    between atoms: C_13  and  C_14
REMARK    5  A    between atoms: C_18  and  O_19
REMARK    6  A    between atoms: N_23  and  C_24
REMARK    7  A    between atoms: C_29  and  C_30
REMARK    8  A    between atoms: C_30  and  C_31
REMARK                            x       y       z     vdW  Elec       q    Type
REMARK                         _______ _______ _______ _____ _____    ______ ____
ROOT
ATOM      1  N   UNL     1      -1.799  10.929  18.738  0.00  0.00    +0.000 NA
ATOM      2  C   UNL     1      -0.953  11.706  19.349  0.00  0.00    +0.000 C 
ATOM      3  S   UNL     1      -1.275  13.318  20.006  0.00  0.00    +0.000 S 
ATOM      4  C   UNL     1       0.368  13.761  19.836  0.00  0.00    +0.000 C 
ATOM      5  C   UNL     1       0.854  14.999  19.654  0.00  0.00    +0.000 C 
ATOM      6  C   UNL     1       1.204  12.522  19.784  0.00  0.00    +0.000 C 
ATOM      7  O   UNL     1       2.427  12.556  19.815  0.00  0.00    +0.000 OA
ATOM      8  N   UNL     1       0.380  11.412  19.606  0.00  0.00    +0.000 N 
ENDROOT
BRANCH   1  14
ATOM      9  C   UNL     1      -3.571  11.326  17.068  0.00  0.00    +0.000 A 
ATOM     10  C   UNL     1      -4.919  11.661  16.807  0.00  0.00    +0.000 A 
ATOM     11  C   UNL     1      -5.765  12.100  17.821  0.00  0.00    +0.000 A 
ATOM     12  C   UNL     1      -5.261  12.281  19.098  0.00  0.00    +0.000 A 
ATOM     13  C   UNL     1      -3.930  11.966  19.360  0.00  0.00    +0.000 A 
ATOM     14  C   UNL     1      -3.097  11.375  18.390  0.00  0.00    +0.000 A 
BRANCH   9  16
ATOM     15  C   UNL     1      -3.299   9.958  14.953  0.00  0.00    +0.000 C 
ATOM     16  C   UNL     1      -2.695  10.995  15.881  0.00  0.00    +0.000 C 
ENDBRANCH   9  16
ENDBRANCH   1  14
BRANCH   5  17
ATOM     17  C   UNL     1       0.055  16.234  19.580  0.00  0.00    +0.000 A 
ATOM     18  C   UNL     1      -0.464  16.808  20.748  0.00  0.00    +0.000 A 
ATOM     19  C   UNL     1      -1.197  17.999  20.688  0.00  0.00    +0.000 A 
ATOM     20  C   UNL     1      -1.426  18.625  19.463  0.00  0.00    +0.000 A 
ATOM     21  C   UNL     1      -0.917  18.049  18.304  0.00  0.00    +0.000 A 
ATOM     22  C   UNL     1      -0.184  16.862  18.350  0.00  0.00    +0.000 A 
BRANCH  21  23
ATOM     23  O   UNL     1      -1.118  18.628  17.082  0.00  0.00    +0.000 OA
ATOM     24  H   UNL     1      -0.576  18.157  16.427  0.00  0.00    +0.000 HD
ENDBRANCH  21  23
ENDBRANCH   5  17
BRANCH   8  25
ATOM     25  C   UNL     1       0.954  10.125  19.402  0.00  0.00    +0.000 A 
ATOM     26  C   UNL     1       1.296   9.746  18.089  0.00  0.00    +0.000 A 
ATOM     27  C   UNL     1       1.909   8.522  17.819  0.00  0.00    +0.000 A 
ATOM     28  C   UNL     1       2.191   7.649  18.857  0.00  0.00    +0.000 A 
ATOM     29  C   UNL     1       1.855   8.003  20.162  0.00  0.00    +0.000 A 
ATOM     30  C   UNL     1       1.220   9.231  20.467  0.00  0.00    +0.000 A 
BRANCH  30  31
ATOM     31  C   UNL     1       0.895   9.430  21.938  0.00  0.00    +0.000 C 
ATOM     32  C   UNL     1      -0.554   9.361  22.400  0.00  0.00    +0.000 C 
ENDBRANCH  30  31
ENDBRANCH   8  25
TORSDOF 6
ENDMDL
MODEL 3
REMARK VINA RESULT:      -7.3      2.943      7.293
REMARK  Name = 
REMARK  8 active torsions:
REMARK  status: ('A' for Active; 'I' for Inactive)
REMARK    1  A    between atoms: C_1  and  C_2
REMARK    2  A    between atoms: C_2  and  C_3
REMARK    3  A    between atoms: C_8  and  N_9
REMARK    4  A    between atoms: C_13  and  C_14
REMARK    5  A    between atoms: C_18  and  O_19
REMARK    6  A    between atoms: N_23  and  C_24
REMARK    7  A    between atoms: C_29  and  C_30
REMARK    8  A    between atoms: C_30  and  C_31
REMARK                            x       y       z     vdW  Elec       q    Type
REMARK                         _______ _______ _______ _____ _____    ______ ____
ROOT
ATOM      1  N   UNL     1      -2.187  11.458  19.679  0.00  0.00    +0.000 NA
ATOM      2  C   UNL     1      -1.092  11.065  20.261  0.00  0.00    +0.000 C 
ATOM      3  S   UNL     1       0.213  10.112  19.538  0.00  0.00    +0.000 S 
ATOM      4  C   UNL     1       0.666   9.494  21.068  0.00  0.00    +0.000 C 
ATOM      5  C   UNL     1       1.263   8.318  21.317  0.00  0.00    +0.000 C 
ATOM      6  C   UNL     1       0.167  10.418  22.133  0.00  0.00    +0.000 C 
ATOM      7  O   UNL     1       0.482  10.290  23.309  0.00  0.00    +0.000 OA
ATOM      8  N   UNL     1      -0.736  11.323  21.580  0.00  0.00    +0.000 N 
ENDROOT
BRANCH   1  14
ATOM      9  C   UNL     1      -3.753  11.368  17.774  0.00  0.00    +0.000 A 
ATOM     10  C   UNL     1      -3.981  11.011  16.426  0.00  0.00    +0.000 A 
ATOM     11  C   UNL     1      -3.050  10.268  15.707  0.00  0.00    +0.000 A 
ATOM     12  C   UNL     1      -1.908   9.807  16.341  0.00  0.00    +0.000 A 
ATOM     13  C   UNL     1      -1.684  10.142  17.674  0.00  0.00    +0.000 A 
ATOM     14  C   UNL     1      -2.531  11.020  18.377  0.00  0.00    +0.000 A 
BRANCH   9  16
ATOM     15  C   UNL     1      -6.052  11.138  18.812  0.00  0.00    +0.000 C 
ATOM     16  C   UNL     1      -4.880  12.053  18.512  0.00  0.00    +0.000 C 
ENDBRANCH   9  16
ENDBRANCH   1  14
BRANCH   5  17
ATOM     17  C   UNL     1       1.664   7.326  20.306  0.00  0.00    +0.000 A 
ATOM     18  C   UNL     1       2.236   7.743  19.097  0.00  0.00    +0.000 A 
ATOM     19  C   UNL     1       2.648   6.803  18.145  0.00  0.00    +0.000 A 
ATOM     20  C   UNL     1       2.486   5.439  18.385  0.00  0.00    +0.000 A 
ATOM     21  C   UNL     1       1.909   5.027  19.582  0.00  0.00    +0.000 A 
ATOM     22  C   UNL     1       1.495   5.954  20.540  0.00  0.00    +0.000 A 
BRANCH  21  23
ATOM     23  O   UNL     1       1.731   3.700  19.859  0.00  0.00    +0.000 OA
ATOM     24  H   UNL     1       1.544   3.608  20.808  0.00  0.00    +0.000 HD
ENDBRANCH  21  23
ENDBRANCH   5  17
BRANCH   8  25
ATOM     25  C   UNL     1      -1.443  12.228  22.420  0.00  0.00    +0.000 A 
ATOM     26  C   UNL     1      -2.626  11.780  23.041  0.00  0.00    +0.000 A 
ATOM     27  C   UNL     1      -3.343  12.594  23.919  0.00  0.00    +0.000 A 
ATOM     28  C   UNL     1      -2.894  13.876  24.193  0.00  0.00    +0.000 A 
ATOM     29  C   UNL     1      -1.729  14.340  23.585  0.00  0.00    +0.000 A 
ATOM     30  C   UNL     1      -0.987  13.544  22.679  0.00  0.00    +0.000 A 
BRANCH  30  31
ATOM     31  C   UNL     1       0.233  14.228  22.084  0.00  0.00    +0.000 C 
ATOM     32  C   UNL     1       0.177  14.743  20.653  0.00  0.00    +0.000 C 
ENDBRANCH  30  31
ENDBRANCH   8  25
TORSDOF 6
ENDMDL
MODEL 4
REMARK VINA RESULT:      -7.1      5.142      9.016
REMARK  Name = 
REMARK  8 active torsions:
REMARK  status: ('A' for Active; 'I' for Inactive)
REMARK    1  A    between atoms: C_1  and  C_2
REMARK    2  A    between atoms: C_2  and  C_3
REMARK    3  A    between atoms: C_8  and  N_9
REMARK    4  A    between atoms: C_13  and  C_14
REMARK    5  A    between atoms: C_18  and  O_19
REMARK    6  A    between atoms: N_23  and  C_24
REMARK    7  A    between atoms: C_29  and  C_30
REMARK    8  A    between atoms: C_30  and  C_31
REMARK                            x       y       z     vdW  Elec       q    Type
REMARK                         _______ _______ _______ _____ _____    ______ ____
ROOT
ATOM      1  N   UNL     1       3.712   4.080  18.425  0.00  0.00    +0.000 NA
ATOM      2  C   UNL     1       3.809   5.365  18.253  0.00  0.00    +0.000 C 
ATOM      3  S   UNL     1       3.155   6.631  19.304  0.00  0.00    +0.000 S 
ATOM      4  C   UNL     1       3.065   7.730  17.997  0.00  0.00    +0.000 C 
ATOM      5  C   UNL     1       2.212   8.758  17.865  0.00  0.00    +0.000 C 
ATOM      6  C   UNL     1       4.012   7.290  16.926  0.00  0.00    +0.000 C 
ATOM      7  O   UNL     1       4.255   7.980  15.944  0.00  0.00    +0.000 OA
ATOM      8  N   UNL     1       4.453   5.997  17.196  0.00  0.00    +0.000 N 
ENDROOT
BRANCH   1  14
ATOM      9  C   UNL     1       3.440   2.684  20.442  0.00  0.00    +0.000 A 
ATOM     10  C   UNL     1       2.615   2.275  21.514  0.00  0.00    +0.000 A 
ATOM     11  C   UNL     1       1.273   2.637  21.573  0.00  0.00    +0.000 A 
ATOM     12  C   UNL     1       0.713   3.354  20.528  0.00  0.00    +0.000 A 
ATOM     13  C   UNL     1       1.517   3.748  19.462  0.00  0.00    +0.000 A 
ATOM     14  C   UNL     1       2.908   3.529  19.452  0.00  0.00    +0.000 A 
BRANCH   9  16
ATOM     15  C   UNL     1       5.109   1.060  21.439  0.00  0.00    +0.000 C 
ATOM     16  C   UNL     1       4.844   2.126  20.393  0.00  0.00    +0.000 C 
ENDBRANCH   9  16
ENDBRANCH   1  14
BRANCH   5  17
ATOM     17  C   UNL     1       1.184   9.152  18.843  0.00  0.00    +0.000 A 
ATOM     18  C   UNL     1       1.301   8.764  20.183  0.00  0.00    +0.000 A 
ATOM     19  C   UNL     1       0.344   9.163  21.124  0.00  0.00    +0.000 A 
ATOM     20  C   UNL     1      -0.742   9.946  20.736  0.00  0.00    +0.000 A 
ATOM     21  C   UNL     1      -0.862  10.322  19.402  0.00  0.00    +0.000 A 
ATOM     22  C   UNL     1       0.086   9.932  18.455  0.00  0.00    +0.000 A 
BRANCH  21  23
ATOM     23  O   UNL     1      -1.912  11.088  18.977  0.00  0.00    +0.000 OA
ATOM     24  H   UNL     1      -1.560  11.819  18.441  0.00  0.00    +0.000 HD
ENDBRANCH  21  23
ENDBRANCH   5  17
BRANCH   8  25
ATOM     25  C   UNL     1       5.270   5.311  16.253  0.00  0.00    +0.000 A 
ATOM     26  C   UNL     1       4.641   4.658  15.174  0.00  0.00    +0.000 A 
ATOM     27  C   UNL     1       5.380   4.011  14.182  0.00  0.00    +0.000 A 
ATOM     28  C   UNL     1       6.764   3.999  14.251  0.00  0.00    +0.000 A 
ATOM     29  C   UNL     1       7.404   4.634  15.313  0.00  0.00    +0.000 A 
ATOM     30  C   UNL     1       6.683   5.288  16.342  0.00  0.00    +0.000 A 
BRANCH  30  31
ATOM     31  C   UNL     1       7.546   5.891  17.437  0.00  0.00    +0.000 C 
ATOM     32  C   UNL     1       7.659   7.405  17.552  0.00  0.00    +0.000 C 
ENDBRANCH  30  31
ENDBRANCH   8  25
TORSDOF 6
ENDMDL
MODEL 5
REMARK VINA RESULT:      -7.1      7.401     10.168
REMARK  Name = 
REMARK  8 active torsions:
REMARK  status: ('A' for Active; 'I' for Inactive)
REMARK    1  A    between atoms: C_1  and  C_2
REMARK    2  A    between atoms: C_2  and  C_3
REMARK    3  A    between atoms: C_8  and  N_9
REMARK    4  A    between atoms: C_13  and  C_14
REMARK    5  A    between atoms: C_18  and  O_19
REMARK    6  A    between atoms: N_23  and  C_24
REMARK    7  A    between atoms: C_29  and  C_30
REMARK    8  A    between atoms: C_30  and  C_31
REMARK                            x       y       z     vdW  Elec       q    Type
REMARK                         _______ _______ _______ _____ _____    ______ ____
ROOT
ATOM      1  N   UNL     1       8.890  13.474  21.199  0.00  0.00    +0.000 NA
ATOM      2  C   UNL     1       8.114  14.195  20.443  0.00  0.00    +0.000 C 
ATOM      3  S   UNL     1       6.647  15.052  20.938  0.00  0.00    +0.000 S 
ATOM      4  C   UNL     1       6.011  14.967  19.352  0.00  0.00    +0.000 C 
ATOM      5  C   UNL     1       4.715  14.956  19.003  0.00  0.00    +0.000 C 
ATOM      6  C   UNL     1       7.136  14.765  18.388  0.00  0.00    +0.000 C 
ATOM      7  O   UNL     1       6.976  14.819  17.175  0.00  0.00    +0.000 OA
ATOM      8  N   UNL     1       8.294  14.431  19.086  0.00  0.00    +0.000 N 
ENDROOT
BRANCH   1  14
ATOM      9  C   UNL     1       8.776  14.070  23.591  0.00  0.00    +0.000 A 
ATOM     10  C   UNL     1       8.287  13.762  24.881  0.00  0.00    +0.000 A 
ATOM     11  C   UNL     1       7.640  12.558  25.141  0.00  0.00    +0.000 A 
ATOM     12  C   UNL     1       7.533  11.610  24.137  0.00  0.00    +0.000 A 
ATOM     13  C   UNL     1       8.025  11.901  22.867  0.00  0.00    +0.000 A 
ATOM     14  C   UNL     1       8.543  13.168  22.537  0.00  0.00    +0.000 A 
BRANCH   9  16
ATOM     15  C   UNL     1       8.792  16.600  23.713  0.00  0.00    +0.000 C 
ATOM     16  C   UNL     1       9.586  15.337  23.439  0.00  0.00    +0.000 C 
ENDBRANCH   9  16
ENDBRANCH   1  14
BRANCH   5  17
ATOM     17  C   UNL     1       3.574  15.033  19.930  0.00  0.00    +0.000 A 
ATOM     18  C   UNL     1       3.133  16.276  20.403  0.00  0.00    +0.000 A 
ATOM     19  C   UNL     1       2.029  16.358  21.260  0.00  0.00    +0.000 A 
ATOM     20  C   UNL     1       1.359  15.202  21.659  0.00  0.00    +0.000 A 
ATOM     21  C   UNL     1       1.805  13.969  21.196  0.00  0.00    +0.000 A 
ATOM     22  C   UNL     1       2.904  13.873  20.341  0.00  0.00    +0.000 A 
BRANCH  21  23
ATOM     23  O   UNL     1       1.179  12.810  21.563  0.00  0.00    +0.000 OA
ATOM     24  H   UNL     1       0.697  12.465  20.793  0.00  0.00    +0.000 HD
ENDBRANCH  21  23
ENDBRANCH   5  17
BRANCH   8  25
ATOM     25  C   UNL     1       9.475  14.068  18.376  0.00  0.00    +0.000 A 
ATOM     26  C   UNL     1      10.425  15.072  18.103  0.00  0.00    +0.000 A 
ATOM     27  C   UNL     1      11.628  14.781  17.459  0.00  0.00    +0.000 A 
ATOM     28  C   UNL     1      11.906  13.480  17.071  0.00  0.00    +0.000 A 
ATOM     29  C   UNL     1      10.977  12.475  17.328  0.00  0.00    +0.000 A 
ATOM     30  C   UNL     1       9.741  12.739  17.967  0.00  0.00    +0.000 A 
BRANCH  30  31
ATOM     31  C   UNL     1       8.838  11.528  18.129  0.00  0.00    +0.000 C 
ATOM     32  C   UNL     1       9.238  10.421  19.094  0.00  0.00    +0.000 C 
ENDBRANCH  30  31
ENDBRANCH   8  25
TORSDOF 6
ENDMDL
MODEL 6
REMARK VINA RESULT:      -7.0      5.173      8.955
REMARK  Name = 
REMARK  8 active torsions:
REMARK  status: ('A' for Active; 'I' for Inactive)
REMARK    1  A    between atoms: C_1  and  C_2
REMARK    2  A    between atoms: C_2  and  C_3
REMARK    3  A    between atoms: C_8  and  N_9
REMARK    4  A    between atoms: C_13  and  C_14
REMARK    5  A    between atoms: C_18  and  O_19
REMARK    6  A    between atoms: N_23  and  C_24
REMARK    7  A    between atoms: C_29  and  C_30
REMARK    8  A    between atoms: C_30  and  C_31
REMARK                            x       y       z     vdW  Elec       q    Type
REMARK                         _______ _______ _______ _____ _____    ______ ____
ROOT
ATOM      1  N   UNL     1       3.637   4.094  18.440  0.00  0.00    +0.000 NA
ATOM      2  C   UNL     1       3.764   5.376  18.260  0.00  0.00    +0.000 C 
ATOM      3  S   UNL     1       3.113   6.662  19.288  0.00  0.00    +0.000 S 
ATOM      4  C   UNL     1       3.074   7.753  17.970  0.00  0.00    +0.000 C 
ATOM      5  C   UNL     1       2.246   8.797  17.812  0.00  0.00    +0.000 C 
ATOM      6  C   UNL     1       4.036   7.286  16.924  0.00  0.00    +0.000 C 
ATOM      7  O   UNL     1       4.315   7.963  15.943  0.00  0.00    +0.000 OA
ATOM      8  N   UNL     1       4.445   5.986  17.214  0.00  0.00    +0.000 N 
ENDROOT
BRANCH   1  14
ATOM      9  C   UNL     1       3.301   2.762  20.490  0.00  0.00    +0.000 A 
ATOM     10  C   UNL     1       2.439   2.379  21.542  0.00  0.00    +0.000 A 
ATOM     11  C   UNL     1       1.091   2.726  21.536  0.00  0.00    +0.000 A 
ATOM     12  C   UNL     1       0.566   3.401  20.447  0.00  0.00    +0.000 A 
ATOM     13  C   UNL     1       1.406   3.770  19.400  0.00  0.00    +0.000 A 
ATOM     14  C   UNL     1       2.799   3.568  19.452  0.00  0.00    +0.000 A 
BRANCH   9  16
ATOM     15  C   UNL     1       4.871   0.911  19.765  0.00  0.00    +0.000 C 
ATOM     16  C   UNL     1       4.712   2.220  20.515  0.00  0.00    +0.000 C 
ENDBRANCH   9  16
ENDBRANCH   1  14
BRANCH   5  17
ATOM     17  C   UNL     1       1.204   9.220  18.763  0.00  0.00    +0.000 A 
ATOM     18  C   UNL     1       0.062   9.888  18.305  0.00  0.00    +0.000 A 
ATOM     19  C   UNL     1      -0.947  10.264  19.200  0.00  0.00    +0.000 A 
ATOM     20  C   UNL     1      -0.823   9.984  20.561  0.00  0.00    +0.000 A 
ATOM     21  C   UNL     1       0.317   9.329  21.014  0.00  0.00    +0.000 A 
ATOM     22  C   UNL     1       1.330   8.948  20.132  0.00  0.00    +0.000 A 
BRANCH  21  23
ATOM     23  O   UNL     1       0.481   9.036  22.340  0.00  0.00    +0.000 OA
ATOM     24  H   UNL     1      -0.136   8.323  22.575  0.00  0.00    +0.000 HD
ENDBRANCH  21  23
ENDBRANCH   5  17
BRANCH   8  25
ATOM     25  C   UNL     1       5.268   5.277  16.294  0.00  0.00    +0.000 A 
ATOM     26  C   UNL     1       4.665   4.715  15.152  0.00  0.00    +0.000 A 
ATOM     27  C   UNL     1       5.416   4.051  14.181  0.00  0.00    +0.000 A 
ATOM     28  C   UNL     1       6.789   3.932  14.334  0.00  0.00    +0.000 A 
ATOM     29  C   UNL     1       7.403   4.477  15.459  0.00  0.00    +0.000 A 
ATOM     30  C   UNL     1       6.667   5.144  16.469  0.00  0.00    +0.000 A 
BRANCH  30  31
ATOM     31  C   UNL     1       7.499   5.638  17.640  0.00  0.00    +0.000 C 
ATOM     32  C   UNL     1       7.703   7.134  17.834  0.00  0.00    +0.000 C 
ENDBRANCH  30  31
ENDBRANCH   8  25
TORSDOF 6
ENDMDL
MODEL 7
REMARK VINA RESULT:      -6.9      2.962      7.203
REMARK  Name = 
REMARK  8 active torsions:
REMARK  status: ('A' for Active; 'I' for Inactive)
REMARK    1  A    between atoms: C_1  and  C_2
REMARK    2  A    between atoms: C_2  and  C_3
REMARK    3  A    between atoms: C_8  and  N_9
REMARK    4  A    between atoms: C_13  and  C_14
REMARK    5  A    between atoms: C_18  and  O_19
REMARK    6  A    between atoms: N_23  and  C_24
REMARK    7  A    between atoms: C_29  and  C_30
REMARK    8  A    between atoms: C_30  and  C_31
REMARK                            x       y       z     vdW  Elec       q    Type
REMARK                         _______ _______ _______ _____ _____    ______ ____
ROOT
ATOM      1  N   UNL     1      -2.207  11.482  19.672  0.00  0.00    +0.000 NA
ATOM      2  C   UNL     1      -1.126  11.104  20.290  0.00  0.00    +0.000 C 
ATOM      3  S   UNL     1       0.203  10.148  19.618  0.00  0.00    +0.000 S 
ATOM      4  C   UNL     1       0.617   9.556  21.168  0.00  0.00    +0.000 C 
ATOM      5  C   UNL     1       1.214   8.388  21.452  0.00  0.00    +0.000 C 
ATOM      6  C   UNL     1       0.085  10.493  22.205  0.00  0.00    +0.000 C 
ATOM      7  O   UNL     1       0.367  10.385  23.391  0.00  0.00    +0.000 OA
ATOM      8  N   UNL     1      -0.808  11.384  21.613  0.00  0.00    +0.000 N 
ENDROOT
BRANCH   1  14
ATOM      9  C   UNL     1      -3.699  11.389  17.709  0.00  0.00    +0.000 A 
ATOM     10  C   UNL     1      -3.884  11.007  16.361  0.00  0.00    +0.000 A 
ATOM     11  C   UNL     1      -2.949  10.219  15.697  0.00  0.00    +0.000 A 
ATOM     12  C   UNL     1      -1.847   9.741  16.388  0.00  0.00    +0.000 A 
ATOM     13  C   UNL     1      -1.665  10.102  17.720  0.00  0.00    +0.000 A 
ATOM     14  C   UNL     1      -2.513  11.022  18.368  0.00  0.00    +0.000 A 
BRANCH   9  16
ATOM     15  C   UNL     1      -5.975  12.471  17.447  0.00  0.00    +0.000 C 
ATOM     16  C   UNL     1      -4.833  12.125  18.385  0.00  0.00    +0.000 C 
ENDBRANCH   9  16
ENDBRANCH   1  14
BRANCH   5  17
ATOM     17  C   UNL     1       1.648   7.382  20.467  0.00  0.00    +0.000 A 
ATOM     18  C   UNL     1       1.363   6.027  20.673  0.00  0.00    +0.000 A 
ATOM     19  C   UNL     1       1.744   5.069  19.725  0.00  0.00    +0.000 A 
ATOM     20  C   UNL     1       2.419   5.454  18.568  0.00  0.00    +0.000 A 
ATOM     21  C   UNL     1       2.710   6.799  18.370  0.00  0.00    +0.000 A 
ATOM     22  C   UNL     1       2.334   7.764  19.306  0.00  0.00    +0.000 A 
BRANCH  21  23
ATOM     23  O   UNL     1       3.371   7.221  17.250  0.00  0.00    +0.000 OA
ATOM     24  H   UNL     1       4.016   6.539  17.000  0.00  0.00    +0.000 HD
ENDBRANCH  21  23
ENDBRANCH   5  17
BRANCH   8  25
ATOM     25  C   UNL     1      -1.543  12.298  22.420  0.00  0.00    +0.000 A 
ATOM     26  C   UNL     1      -2.678  11.822  23.106  0.00  0.00    +0.000 A 
ATOM     27  C   UNL     1      -3.416  12.646  23.957  0.00  0.00    +0.000 A 
ATOM     28  C   UNL     1      -3.037  13.967  24.136  0.00  0.00    +0.000 A 
ATOM     29  C   UNL     1      -1.921  14.458  23.463  0.00  0.00    +0.000 A 
ATOM     30  C   UNL     1      -1.159  13.651  22.583  0.00  0.00    +0.000 A 
BRANCH  30  31
ATOM     31  C   UNL     1      -0.001  14.366  21.908  0.00  0.00    +0.000 C 
ATOM     32  C   UNL     1       0.566  15.631  22.538  0.00  0.00    +0.000 C 
ENDBRANCH  30  31
ENDBRANCH   8  25
TORSDOF 6
ENDMDL
MODEL 8
REMARK VINA RESULT:      -6.9      3.199      6.607
REMARK  Name = 
REMARK  8 active torsions:
REMARK  status: ('A' for Active; 'I' for Inactive)
REMARK    1  A    between atoms: C_1  and  C_2
REMARK    2  A    between atoms: C_2  and  C_3
REMARK    3  A    between atoms: C_8  and  N_9
REMARK    4  A    between atoms: C_13  and  C_14
REMARK    5  A    between atoms: C_18  and  O_19
REMARK    6  A    between atoms: N_23  and  C_24
REMARK    7  A    between atoms: C_29  and  C_30
REMARK    8  A    between atoms: C_30  and  C_31
REMARK                            x       y       z     vdW  Elec       q    Type
REMARK                         _______ _______ _______ _____ _____    ______ ____
ROOT
ATOM      1  N   UNL     1      -0.438  13.886  18.390  0.00  0.00    +0.000 NA
ATOM      2  C   UNL     1      -0.671  14.575  19.468  0.00  0.00    +0.000 C 
ATOM      3  S   UNL     1      -1.153  13.942  21.049  0.00  0.00    +0.000 S 
ATOM      4  C   UNL     1      -1.921  15.417  21.453  0.00  0.00    +0.000 C 
ATOM      5  C   UNL     1      -2.954  15.584  22.292  0.00  0.00    +0.000 C 
ATOM      6  C   UNL     1      -1.345  16.511  20.611  0.00  0.00    +0.000 C 
ATOM      7  O   UNL     1      -1.610  17.691  20.801  0.00  0.00    +0.000 OA
ATOM      8  N   UNL     1      -0.584  15.957  19.583  0.00  0.00    +0.000 N 
ENDROOT
BRANCH   1  14
ATOM      9  C   UNL     1       0.239  11.543  18.765  0.00  0.00    +0.000 A 
ATOM     10  C   UNL     1      -0.131  10.180  18.802  0.00  0.00    +0.000 A 
ATOM     11  C   UNL     1      -1.378   9.756  18.354  0.00  0.00    +0.000 A 
ATOM     12  C   UNL     1      -2.250  10.676  17.796  0.00  0.00    +0.000 A 
ATOM     13  C   UNL     1      -1.887  12.019  17.742  0.00  0.00    +0.000 A 
ATOM     14  C   UNL     1      -0.698  12.496  18.328  0.00  0.00    +0.000 A 
BRANCH   9  16
ATOM     15  C   UNL     1       2.570  12.101  17.943  0.00  0.00    +0.000 C 
ATOM     16  C   UNL     1       1.663  11.888  19.140  0.00  0.00    +0.000 C 
ENDBRANCH   9  16
ENDBRANCH   1  14
BRANCH   5  17
ATOM     17  C   UNL     1      -3.628  14.517  23.050  0.00  0.00    +0.000 A 
ATOM     18  C   UNL     1      -3.158  14.149  24.318  0.00  0.00    +0.000 A 
ATOM     19  C   UNL     1      -3.813  13.157  25.057  0.00  0.00    +0.000 A 
ATOM     20  C   UNL     1      -4.937  12.517  24.537  0.00  0.00    +0.000 A 
ATOM     21  C   UNL     1      -5.397  12.877  23.275  0.00  0.00    +0.000 A 
ATOM     22  C   UNL     1      -4.753  13.865  22.528  0.00  0.00    +0.000 A 
BRANCH  21  23
ATOM     23  O   UNL     1      -6.495  12.275  22.726  0.00  0.00    +0.000 OA
ATOM     24  H   UNL     1      -7.202  12.938  22.652  0.00  0.00    +0.000 HD
ENDBRANCH  21  23
ENDBRANCH   5  17
BRANCH   8  25
ATOM     25  C   UNL     1      -0.033  16.795  18.573  0.00  0.00    +0.000 A 
ATOM     26  C   UNL     1      -0.909  17.603  17.822  0.00  0.00    +0.000 A 
ATOM     27  C   UNL     1      -0.436  18.488  16.853  0.00  0.00    +0.000 A 
ATOM     28  C   UNL     1       0.925  18.582  16.611  0.00  0.00    +0.000 A 
ATOM     29  C   UNL     1       1.808  17.787  17.339  0.00  0.00    +0.000 A 
ATOM     30  C   UNL     1       1.358  16.870  18.320  0.00  0.00    +0.000 A 
BRANCH  30  31
ATOM     31  C   UNL     1       2.460  16.062  18.986  0.00  0.00    +0.000 C 
ATOM     32  C   UNL     1       3.660  15.615  18.163  0.00  0.00    +0.000 C 
ENDBRANCH  30  31
ENDBRANCH   8  25
TORSDOF 6
ENDMDL
MODEL 9
REMARK VINA RESULT:      -6.8      2.635      5.587
REMARK  Name = 
REMARK  8 active torsions:
REMARK  status: ('A' for Active; 'I' for Inactive)
REMARK    1  A    between atoms: C_1  and  C_2
REMARK    2  A    between atoms: C_2  and  C_3
REMARK    3  A    between atoms: C_8  and  N_9
REMARK    4  A    between atoms: C_13  and  C_14
REMARK    5  A    between atoms: C_18  and  O_19
REMARK    6  A    between atoms: N_23  and  C_24
REMARK    7  A    between atoms: C_29  and  C_30
REMARK    8  A    between atoms: C_30  and  C_31
REMARK                            x       y       z     vdW  Elec       q    Type
REMARK                         _______ _______ _______ _____ _____    ______ ____
ROOT
ATOM      1  N   UNL     1      -1.649  11.569  20.474  0.00  0.00    +0.000 NA
ATOM      2  C   UNL     1      -1.609  12.864  20.361  0.00  0.00    +0.000 C 
ATOM      3  S   UNL     1      -0.670  13.799  19.188  0.00  0.00    +0.000 S 
ATOM      4  C   UNL     1      -0.620  15.148  20.240  0.00  0.00    +0.000 C 
ATOM      5  C   UNL     1       0.328  16.097  20.290  0.00  0.00    +0.000 C 
ATOM      6  C   UNL     1      -1.749  15.045  21.216  0.00  0.00    +0.000 C 
ATOM      7  O   UNL     1      -2.034  15.954  21.984  0.00  0.00    +0.000 OA
ATOM      8  N   UNL     1      -2.306  13.770  21.151  0.00  0.00    +0.000 N 
ENDROOT
BRANCH   1  14
ATOM      9  C   UNL     1      -1.114  10.309  18.421  0.00  0.00    +0.000 A 
ATOM     10  C   UNL     1      -0.156   9.587  17.673  0.00  0.00    +0.000 A 
ATOM     11  C   UNL     1       1.073   9.232  18.222  0.00  0.00    +0.000 A 
ATOM     12  C   UNL     1       1.338   9.529  19.548  0.00  0.00    +0.000 A 
ATOM     13  C   UNL     1       0.394  10.227  20.295  0.00  0.00    +0.000 A 
ATOM     14  C   UNL     1      -0.789  10.733  19.721  0.00  0.00    +0.000 A 
BRANCH   9  16
ATOM     15  C   UNL     1      -2.604   9.901  16.413  0.00  0.00    +0.000 C 
ATOM     16  C   UNL     1      -2.470  10.525  17.789  0.00  0.00    +0.000 C 
ENDBRANCH   9  16
ENDBRANCH   1  14
BRANCH   5  17
ATOM     17  C   UNL     1       1.518  16.169  19.426  0.00  0.00    +0.000 A 
ATOM     18  C   UNL     1       1.498  16.952  18.264  0.00  0.00    +0.000 A 
ATOM     19  C   UNL     1       2.637  17.050  17.456  0.00  0.00    +0.000 A 
ATOM     20  C   UNL     1       3.803  16.364  17.793  0.00  0.00    +0.000 A 
ATOM     21  C   UNL     1       3.817  15.580  18.942  0.00  0.00    +0.000 A 
ATOM     22  C   UNL     1       2.689  15.474  19.757  0.00  0.00    +0.000 A 
BRANCH  21  23
ATOM     23  O   UNL     1       4.938  14.889  19.310  0.00  0.00    +0.000 OA
ATOM     24  H   UNL     1       5.717  15.417  19.068  0.00  0.00    +0.000 HD
ENDBRANCH  21  23
ENDBRANCH   5  17
BRANCH   8  25
ATOM     25  C   UNL     1      -3.320  13.387  22.075  0.00  0.00    +0.000 A 
ATOM     26  C   UNL     1      -2.940  13.088  23.398  0.00  0.00    +0.000 A 
ATOM     27  C   UNL     1      -3.884  12.757  24.372  0.00  0.00    +0.000 A 
ATOM     28  C   UNL     1      -5.229  12.716  24.041  0.00  0.00    +0.000 A 
ATOM     29  C   UNL     1      -5.624  13.003  22.736  0.00  0.00    +0.000 A 
ATOM     30  C   UNL     1      -4.690  13.329  21.723  0.00  0.00    +0.000 A 
BRANCH  30  31
ATOM     31  C   UNL     1      -5.299  13.574  20.352  0.00  0.00    +0.000 C 
ATOM     32  C   UNL     1      -5.295  12.454  19.321  0.00  0.00    +0.000 C 
ENDBRANCH  30  31
ENDBRANCH   8  25
TORSDOF 6
ENDMDL
