MODEL 1
REMARK VINA RESULT:      -7.8      0.000      0.000
REMARK  Name = 
REMARK  6 active torsions:
REMARK  status: ('A' for Active; 'I' for Inactive)
REMARK    1  A    between atoms: C_1  and  C_2
REMARK    2  A    between atoms: C_2  and  C_4
REMARK    3  A    between atoms: C_6  and  N_7
REMARK    4  A    between atoms: N_7  and  C_8
REMARK    5  A    between atoms: C_14  and  C_15
REMARK    6  A    between atoms: C_17  and  C_18
REMARK                            x       y       z     vdW  Elec       q    Type
REMARK                         _______ _______ _______ _____ _____    ______ ____
ROOT
ATOM      1  C   UNL     1       2.260   3.668  18.319  0.00  0.00    +0.000 A 
ATOM      2  S   UNL     1       3.376   2.635  17.483  0.00  0.00    +0.000 S 
ATOM      3  C   UNL     1       4.495   3.890  17.192  0.00  0.00    +0.000 A 
ATOM      4  C   UNL     1       3.853   5.093  17.417  0.00  0.00    +0.000 A 
ATOM      5  C   UNL     1       2.643   4.990  18.203  0.00  0.00    +0.000 A 
ENDROOT
BRANCH   5   6
ATOM      6  C   UNL     1       2.266   6.167  19.061  0.00  0.00    +0.000 A 
ATOM      7  C   UNL     1       2.561   6.153  20.418  0.00  0.00    +0.000 A 
ATOM      8  N   UNL     1       1.658   6.990  20.981  0.00  0.00    +0.000 N 
ATOM      9  C   UNL     1       1.566   8.061  20.141  0.00  0.00    +0.000 A 
ATOM     10  C   UNL     1       1.258   9.387  20.451  0.00  0.00    +0.000 A 
ATOM     11  C   UNL     1       1.231  10.284  19.399  0.00  0.00    +0.000 A 
ATOM     12  C   UNL     1       1.425   9.829  18.090  0.00  0.00    +0.000 A 
ATOM     13  C   UNL     1       1.699   8.465  17.802  0.00  0.00    +0.000 A 
ATOM     14  C   UNL     1       1.839   7.543  18.857  0.00  0.00    +0.000 A 
ATOM     15  H   UNL     1       0.981   6.759  21.697  0.00  0.00    +0.000 HD
ENDBRANCH   5   6
BRANCH   1  17
ATOM     16  C   UNL     1       1.251   2.854  20.523  0.00  0.00    +0.000 C 
ATOM     17  C   UNL     1       1.206   2.945  19.033  0.00  0.00    +0.000 C 
ATOM     18  O   UNL     1       0.253   2.392  18.452  0.00  0.00    +0.000 OA
ENDBRANCH   1  17
BRANCH   3  19
ATOM     19  N   UNL     1       5.771   3.666  16.726  0.00  0.00    +0.000 N 
ATOM     20  H   UNL     1       6.250   2.825  17.051  0.00  0.00    +0.000 HD
BRANCH  19  21
ATOM     21  C   UNL     1       6.242   3.960  15.414  0.00  0.00    +0.000 A 
ATOM     22  C   UNL     1       5.572   3.386  14.321  0.00  0.00    +0.000 A 
ATOM     23  C   UNL     1       5.946   3.676  13.007  0.00  0.00    +0.000 A 
ATOM     24  C   UNL     1       6.984   4.570  12.755  0.00  0.00    +0.000 A 
ATOM     25  C   UNL     1       7.647   5.166  13.825  0.00  0.00    +0.000 A 
ATOM     26  C   UNL     1       7.288   4.852  15.149  0.00  0.00    +0.000 A 
ENDBRANCH  19  21
ENDBRANCH   3  19
BRANCH   4  27
ATOM     27  C   UNL     1       4.459   6.326  16.968  0.00  0.00    +0.000 C 
ATOM     28  N   UNL     1       5.006   7.314  16.631  0.00  0.00    +0.000 NA
ENDBRANCH   4  27
TORSDOF 5
ENDMDL
MODEL 2
REMARK VINA RESULT:      -7.5      4.228      6.801
REMARK  Name = 
REMARK  6 active torsions:
REMARK  status: ('A' for Active; 'I' for Inactive)
REMARK    1  A    between atoms: C_1  and  C_2
REMARK    2  A    between atoms: C_2  and  C_4
REMARK    3  A    between atoms: C_6  and  N_7
REMARK    4  A    between atoms: N_7  and  C_8
REMARK    5  A    between atoms: C_14  and  C_15
REMARK    6  A    between atoms: C_17  and  C_18
REMARK                            x       y       z     vdW  Elec       q    Type
REMARK                         _______ _______ _______ _____ _____    ______ ____
ROOT
ATOM      1  C   UNL     1      -0.019  10.034  21.405  0.00  0.00    +0.000 A 
ATOM      2  S   UNL     1       0.419   8.408  21.828  0.00  0.00    +0.000 S 
ATOM      3  C   UNL     1       1.481   8.230  20.504  0.00  0.00    +0.000 A 
ATOM      4  C   UNL     1       1.215   9.247  19.606  0.00  0.00    +0.000 A 
ATOM      5  C   UNL     1       0.484  10.364  20.163  0.00  0.00    +0.000 A 
ENDROOT
BRANCH   5   6
ATOM      6  C   UNL     1       0.729  11.724  19.568  0.00  0.00    +0.000 A 
ATOM      7  C   UNL     1      -0.188  12.259  18.673  0.00  0.00    +0.000 A 
ATOM      8  N   UNL     1       0.524  13.132  17.922  0.00  0.00    +0.000 N 
ATOM      9  C   UNL     1       1.347  13.788  18.790  0.00  0.00    +0.000 A 
ATOM     10  C   UNL     1       1.853  15.085  18.699  0.00  0.00    +0.000 A 
ATOM     11  C   UNL     1       2.674  15.509  19.728  0.00  0.00    +0.000 A 
ATOM     12  C   UNL     1       3.025  14.620  20.750  0.00  0.00    +0.000 A 
ATOM     13  C   UNL     1       2.524  13.292  20.795  0.00  0.00    +0.000 A 
ATOM     14  C   UNL     1       1.602  12.860  19.823  0.00  0.00    +0.000 A 
ATOM     15  H   UNL     1       0.647  13.109  16.917  0.00  0.00    +0.000 HD
ENDBRANCH   5   6
BRANCH   1  17
ATOM     16  C   UNL     1      -1.605  11.914  22.106  0.00  0.00    +0.000 C 
ATOM     17  C   UNL     1      -0.748  10.743  22.459  0.00  0.00    +0.000 C 
ATOM     18  O   UNL     1      -0.694  10.412  23.658  0.00  0.00    +0.000 OA
ENDBRANCH   1  17
BRANCH   3  19
ATOM     19  N   UNL     1       2.358   7.177  20.382  0.00  0.00    +0.000 N 
ATOM     20  H   UNL     1       3.021   7.026  21.144  0.00  0.00    +0.000 HD
BRANCH  19  21
ATOM     21  C   UNL     1       2.063   5.911  19.799  0.00  0.00    +0.000 A 
ATOM     22  C   UNL     1       1.439   4.938  20.597  0.00  0.00    +0.000 A 
ATOM     23  C   UNL     1       1.072   3.696  20.074  0.00  0.00    +0.000 A 
ATOM     24  C   UNL     1       1.295   3.408  18.729  0.00  0.00    +0.000 A 
ATOM     25  C   UNL     1       1.894   4.368  17.916  0.00  0.00    +0.000 A 
ATOM     26  C   UNL     1       2.289   5.608  18.451  0.00  0.00    +0.000 A 
ENDBRANCH  19  21
ENDBRANCH   3  19
BRANCH   4  27
ATOM     27  C   UNL     1       1.751   9.180  18.266  0.00  0.00    +0.000 C 
ATOM     28  N   UNL     1       2.203   9.065  17.183  0.00  0.00    +0.000 NA
ENDBRANCH   4  27
TORSDOF 5
ENDMDL
MODEL 3
REMARK VINA RESULT:      -7.2      2.464      3.460
REMARK  Name = 
REMARK  6 active torsions:
REMARK  status: ('A' for Active; 'I' for Inactive)
REMARK    1  A    between atoms: C_1  and  C_2
REMARK    2  A    between atoms: C_2  and  C_4
REMARK    3  A    between atoms: C_6  and  N_7
REMARK    4  A    between atoms: N_7  and  C_8
REMARK    5  A    between atoms: C_14  and  C_15
REMARK    6  A    between atoms: C_17  and  C_18
REMARK                            x       y       z     vdW  Elec       q    Type
REMARK                         _______ _______ _______ _____ _____    ______ ____
ROOT
ATOM      1  C   UNL     1       6.306   5.099  18.253  0.00  0.00    +0.000 A 
ATOM      2  S   UNL     1       7.017   4.280  16.897  0.00  0.00    +0.000 S 
ATOM      3  C   UNL     1       5.510   3.911  16.186  0.00  0.00    +0.000 A 
ATOM      4  C   UNL     1       4.530   4.101  17.143  0.00  0.00    +0.000 A 
ATOM      5  C   UNL     1       4.937   4.919  18.265  0.00  0.00    +0.000 A 
ENDROOT
BRANCH   5   6
ATOM      6  C   UNL     1       3.878   5.736  18.953  0.00  0.00    +0.000 A 
ATOM      7  C   UNL     1       3.630   5.542  20.306  0.00  0.00    +0.000 A 
ATOM      8  N   UNL     1       2.349   5.942  20.487  0.00  0.00    +0.000 N 
ATOM      9  C   UNL     1       2.204   7.081  19.751  0.00  0.00    +0.000 A 
ATOM     10  C   UNL     1       1.356   8.165  19.981  0.00  0.00    +0.000 A 
ATOM     11  C   UNL     1       1.409   9.203  19.070  0.00  0.00    +0.000 A 
ATOM     12  C   UNL     1       2.225   9.096  17.938  0.00  0.00    +0.000 A 
ATOM     13  C   UNL     1       3.049   7.963  17.711  0.00  0.00    +0.000 A 
ATOM     14  C   UNL     1       3.102   6.934  18.671  0.00  0.00    +0.000 A 
ATOM     15  H   UNL     1       1.583   5.382  20.839  0.00  0.00    +0.000 HD
ENDBRANCH   5   6
BRANCH   1  17
ATOM     16  C   UNL     1       7.938   7.058  18.449  0.00  0.00    +0.000 C 
ATOM     17  C   UNL     1       7.266   5.866  19.049  0.00  0.00    +0.000 C 
ATOM     18  O   UNL     1       7.555   5.575  20.224  0.00  0.00    +0.000 OA
ENDBRANCH   1  17
BRANCH   3  19
ATOM     19  N   UNL     1       5.383   3.425  14.905  0.00  0.00    +0.000 N 
ATOM     20  H   UNL     1       4.450   3.148  14.596  0.00  0.00    +0.000 HD
BRANCH  19  21
ATOM     21  C   UNL     1       6.105   3.883  13.765  0.00  0.00    +0.000 A 
ATOM     22  C   UNL     1       6.994   4.958  13.928  0.00  0.00    +0.000 A 
ATOM     23  C   UNL     1       7.774   5.422  12.866  0.00  0.00    +0.000 A 
ATOM     24  C   UNL     1       7.703   4.801  11.620  0.00  0.00    +0.000 A 
ATOM     25  C   UNL     1       6.842   3.720  11.445  0.00  0.00    +0.000 A 
ATOM     26  C   UNL     1       6.037   3.272  12.508  0.00  0.00    +0.000 A 
ENDBRANCH  19  21
ENDBRANCH   3  19
BRANCH   4  27
ATOM     27  C   UNL     1       3.199   3.588  16.919  0.00  0.00    +0.000 C 
ATOM     28  N   UNL     1       2.092   3.202  16.785  0.00  0.00    +0.000 NA
ENDBRANCH   4  27
TORSDOF 5
ENDMDL
MODEL 4
REMARK VINA RESULT:      -6.8      4.244      6.637
REMARK  Name = 
REMARK  6 active torsions:
REMARK  status: ('A' for Active; 'I' for Inactive)
REMARK    1  A    between atoms: C_1  and  C_2
REMARK    2  A    between atoms: C_2  and  C_4
REMARK    3  A    between atoms: C_6  and  N_7
REMARK    4  A    between atoms: N_7  and  C_8
REMARK    5  A    between atoms: C_14  and  C_15
REMARK    6  A    between atoms: C_17  and  C_18
REMARK                            x       y       z     vdW  Elec       q    Type
REMARK                         _______ _______ _______ _____ _____    ______ ____
ROOT
ATOM      1  C   UNL     1       0.160   9.987  20.923  0.00  0.00    +0.000 A 
ATOM      2  S   UNL     1       0.297   8.342  21.460  0.00  0.00    +0.000 S 
ATOM      3  C   UNL     1       1.533   7.962  20.346  0.00  0.00    +0.000 A 
ATOM      4  C   UNL     1       1.562   8.958  19.388  0.00  0.00    +0.000 A 
ATOM      5  C   UNL     1       0.906  10.187  19.779  0.00  0.00    +0.000 A 
ENDROOT
BRANCH   5   6
ATOM      6  C   UNL     1       1.429  11.472  19.199  0.00  0.00    +0.000 A 
ATOM      7  C   UNL     1       1.220  11.757  17.855  0.00  0.00    +0.000 A 
ATOM      8  N   UNL     1       2.221  12.603  17.517  0.00  0.00    +0.000 N 
ATOM      9  C   UNL     1       2.345  13.472  18.561  0.00  0.00    +0.000 A 
ATOM     10  C   UNL     1       2.777  14.799  18.543  0.00  0.00    +0.000 A 
ATOM     11  C   UNL     1       2.808  15.462  19.756  0.00  0.00    +0.000 A 
ATOM     12  C   UNL     1       2.496  14.775  20.933  0.00  0.00    +0.000 A 
ATOM     13  C   UNL     1       2.096  13.412  20.924  0.00  0.00    +0.000 A 
ATOM     14  C   UNL     1       1.950  12.735  19.698  0.00  0.00    +0.000 A 
ATOM     15  H   UNL     1       2.921  12.459  16.800  0.00  0.00    +0.000 HD
ENDBRANCH   5   6
BRANCH   1  17
ATOM     16  C   UNL     1      -0.880  10.400  23.222  0.00  0.00    +0.000 C 
ATOM     17  C   UNL     1      -0.633  10.835  21.815  0.00  0.00    +0.000 C 
ATOM     18  O   UNL     1      -1.119  11.924  21.457  0.00  0.00    +0.000 OA
ENDBRANCH   1  17
BRANCH   3  19
ATOM     19  N   UNL     1       2.267   6.800  20.407  0.00  0.00    +0.000 N 
ATOM     20  H   UNL     1       2.817   6.634  21.251  0.00  0.00    +0.000 HD
BRANCH  19  21
ATOM     21  C   UNL     1       1.870   5.535  19.886  0.00  0.00    +0.000 A 
ATOM     22  C   UNL     1       2.169   5.243  18.545  0.00  0.00    +0.000 A 
ATOM     23  C   UNL     1       1.857   4.001  17.985  0.00  0.00    +0.000 A 
ATOM     24  C   UNL     1       1.263   3.011  18.764  0.00  0.00    +0.000 A 
ATOM     25  C   UNL     1       0.978   3.275  20.102  0.00  0.00    +0.000 A 
ATOM     26  C   UNL     1       1.266   4.535  20.657  0.00  0.00    +0.000 A 
ENDBRANCH  19  21
ENDBRANCH   3  19
BRANCH   4  27
ATOM     27  C   UNL     1       2.303   8.756  18.164  0.00  0.00    +0.000 C 
ATOM     28  N   UNL     1       2.891   8.530  17.167  0.00  0.00    +0.000 NA
ENDBRANCH   4  27
TORSDOF 5
ENDMDL
MODEL 5
REMARK VINA RESULT:      -6.8      5.801     10.734
REMARK  Name = 
REMARK  6 active torsions:
REMARK  status: ('A' for Active; 'I' for Inactive)
REMARK    1  A    between atoms: C_1  and  C_2
REMARK    2  A    between atoms: C_2  and  C_4
REMARK    3  A    between atoms: C_6  and  N_7
REMARK    4  A    between atoms: N_7  and  C_8
REMARK    5  A    between atoms: C_14  and  C_15
REMARK    6  A    between atoms: C_17  and  C_18
REMARK                            x       y       z     vdW  Elec       q    Type
REMARK                         _______ _______ _______ _____ _____    ______ ____
ROOT
ATOM      1  C   UNL     1      -0.167  12.861  20.404  0.00  0.00    +0.000 A 
ATOM      2  S   UNL     1      -1.543  13.903  20.225  0.00  0.00    +0.000 S 
ATOM      3  C   UNL     1      -2.530  12.674  19.571  0.00  0.00    +0.000 A 
ATOM      4  C   UNL     1      -1.711  11.629  19.188  0.00  0.00    +0.000 A 
ATOM      5  C   UNL     1      -0.395  11.646  19.790  0.00  0.00    +0.000 A 
ENDROOT
BRANCH   5   6
ATOM      6  C   UNL     1       0.284  10.323  20.018  0.00  0.00    +0.000 A 
ATOM      7  C   UNL     1      -0.130   9.508  21.063  0.00  0.00    +0.000 A 
ATOM      8  N   UNL     1       0.949   8.746  21.361  0.00  0.00    +0.000 N 
ATOM      9  C   UNL     1       1.493   8.384  20.164  0.00  0.00    +0.000 A 
ATOM     10  C   UNL     1       2.214   7.231  19.847  0.00  0.00    +0.000 A 
ATOM     11  C   UNL     1       2.657   7.110  18.543  0.00  0.00    +0.000 A 
ATOM     12  C   UNL     1       2.446   8.153  17.636  0.00  0.00    +0.000 A 
ATOM     13  C   UNL     1       1.741   9.332  17.997  0.00  0.00    +0.000 A 
ATOM     14  C   UNL     1       1.183   9.445  19.286  0.00  0.00    +0.000 A 
ATOM     15  H   UNL     1       1.428   8.694  22.251  0.00  0.00    +0.000 HD
ENDBRANCH   5   6
BRANCH   1  17
ATOM     16  C   UNL     1       2.310  13.419  20.713  0.00  0.00    +0.000 C 
ATOM     17  C   UNL     1       0.905  13.433  21.221  0.00  0.00    +0.000 C 
ATOM     18  O   UNL     1       0.704  13.945  22.338  0.00  0.00    +0.000 OA
ENDBRANCH   1  17
BRANCH   3  19
ATOM     19  N   UNL     1      -3.890  12.812  19.404  0.00  0.00    +0.000 N 
ATOM     20  H   UNL     1      -4.289  12.500  18.517  0.00  0.00    +0.000 HD
BRANCH  19  21
ATOM     21  C   UNL     1      -4.876  12.635  20.416  0.00  0.00    +0.000 A 
ATOM     22  C   UNL     1      -4.604  13.124  21.704  0.00  0.00    +0.000 A 
ATOM     23  C   UNL     1      -5.549  13.033  22.729  0.00  0.00    +0.000 A 
ATOM     24  C   UNL     1      -6.801  12.476  22.481  0.00  0.00    +0.000 A 
ATOM     25  C   UNL     1      -7.097  12.005  21.204  0.00  0.00    +0.000 A 
ATOM     26  C   UNL     1      -6.136  12.071  20.180  0.00  0.00    +0.000 A 
ENDBRANCH  19  21
ENDBRANCH   3  19
BRANCH   4  27
ATOM     27  C   UNL     1      -2.231  10.582  18.339  0.00  0.00    +0.000 C 
ATOM     28  N   UNL     1      -2.598   9.713  17.632  0.00  0.00    +0.000 NA
ENDBRANCH   4  27
TORSDOF 5
ENDMDL
MODEL 6
REMARK VINA RESULT:      -6.7      6.120     10.894
REMARK  Name = 
REMARK  6 active torsions:
REMARK  status: ('A' for Active; 'I' for Inactive)
REMARK    1  A    between atoms: C_1  and  C_2
REMARK    2  A    between atoms: C_2  and  C_4
REMARK    3  A    between atoms: C_6  and  N_7
REMARK    4  A    between atoms: N_7  and  C_8
REMARK    5  A    between atoms: C_14  and  C_15
REMARK    6  A    between atoms: C_17  and  C_18
REMARK                            x       y       z     vdW  Elec       q    Type
REMARK                         _______ _______ _______ _____ _____    ______ ____
ROOT
ATOM      1  C   UNL     1      -1.024  12.668  20.803  0.00  0.00    +0.000 A 
ATOM      2  S   UNL     1      -2.488  13.531  20.449  0.00  0.00    +0.000 S 
ATOM      3  C   UNL     1      -3.075  12.327  19.392  0.00  0.00    +0.000 A 
ATOM      4  C   UNL     1      -2.021  11.493  19.069  0.00  0.00    +0.000 A 
ATOM      5  C   UNL     1      -0.895  11.572  19.974  0.00  0.00    +0.000 A 
ENDROOT
BRANCH   5   6
ATOM      6  C   UNL     1      -0.062  10.333  20.159  0.00  0.00    +0.000 A 
ATOM      7  C   UNL     1      -0.350   9.458  21.199  0.00  0.00    +0.000 A 
ATOM      8  N   UNL     1       0.817   8.821  21.454  0.00  0.00    +0.000 N 
ATOM      9  C   UNL     1       1.366   8.543  20.236  0.00  0.00    +0.000 A 
ATOM     10  C   UNL     1       2.205   7.487  19.880  0.00  0.00    +0.000 A 
ATOM     11  C   UNL     1       2.622   7.438  18.563  0.00  0.00    +0.000 A 
ATOM     12  C   UNL     1       2.268   8.465  17.681  0.00  0.00    +0.000 A 
ATOM     13  C   UNL     1       1.442   9.548  18.083  0.00  0.00    +0.000 A 
ATOM     14  C   UNL     1       0.912   9.575  19.387  0.00  0.00    +0.000 A 
ATOM     15  H   UNL     1       1.324   8.811  22.330  0.00  0.00    +0.000 HD
ENDBRANCH   5   6
BRANCH   1  17
ATOM     16  C   UNL     1      -0.992  13.538  23.207  0.00  0.00    +0.000 C 
ATOM     17  C   UNL     1      -0.276  13.213  21.937  0.00  0.00    +0.000 C 
ATOM     18  O   UNL     1       0.951  13.422  21.900  0.00  0.00    +0.000 OA
ENDBRANCH   1  17
BRANCH   3  19
ATOM     19  N   UNL     1      -4.367  12.311  18.916  0.00  0.00    +0.000 N 
ATOM     20  H   UNL     1      -4.621  11.564  18.269  0.00  0.00    +0.000 HD
BRANCH  19  21
ATOM     21  C   UNL     1      -5.532  12.668  19.654  0.00  0.00    +0.000 A 
ATOM     22  C   UNL     1      -6.050  13.964  19.497  0.00  0.00    +0.000 A 
ATOM     23  C   UNL     1      -7.220  14.362  20.148  0.00  0.00    +0.000 A 
ATOM     24  C   UNL     1      -7.916  13.461  20.951  0.00  0.00    +0.000 A 
ATOM     25  C   UNL     1      -7.429  12.165  21.103  0.00  0.00    +0.000 A 
ATOM     26  C   UNL     1      -6.236  11.774  20.470  0.00  0.00    +0.000 A 
ENDBRANCH  19  21
ENDBRANCH   3  19
BRANCH   4  27
ATOM     27  C   UNL     1      -2.151  10.565  17.969  0.00  0.00    +0.000 C 
ATOM     28  N   UNL     1      -2.285   9.769  17.110  0.00  0.00    +0.000 NA
ENDBRANCH   4  27
TORSDOF 5
ENDMDL
MODEL 7
REMARK VINA RESULT:      -6.7      2.087      3.105
REMARK  Name = 
REMARK  6 active torsions:
REMARK  status: ('A' for Active; 'I' for Inactive)
REMARK    1  A    between atoms: C_1  and  C_2
REMARK    2  A    between atoms: C_2  and  C_4
REMARK    3  A    between atoms: C_6  and  N_7
REMARK    4  A    between atoms: N_7  and  C_8
REMARK    5  A    between atoms: C_14  and  C_15
REMARK    6  A    between atoms: C_17  and  C_18
REMARK                            x       y       z     vdW  Elec       q    Type
REMARK                         _______ _______ _______ _____ _____    ______ ____
ROOT
ATOM      1  C   UNL     1       2.129   5.917  19.709  0.00  0.00    +0.000 A 
ATOM      2  S   UNL     1       3.274   5.383  18.519  0.00  0.00    +0.000 S 
ATOM      3  C   UNL     1       3.598   6.961  17.958  0.00  0.00    +0.000 A 
ATOM      4  C   UNL     1       2.599   7.793  18.429  0.00  0.00    +0.000 A 
ATOM      5  C   UNL     1       1.850   7.259  19.545  0.00  0.00    +0.000 A 
ENDROOT
BRANCH   5   6
ATOM      6  C   UNL     1       1.278   8.239  20.533  0.00  0.00    +0.000 A 
ATOM      7  C   UNL     1       1.904   8.426  21.759  0.00  0.00    +0.000 A 
ATOM      8  N   UNL     1       0.928   8.867  22.587  0.00  0.00    +0.000 N 
ATOM      9  C   UNL     1       0.196   9.761  21.860  0.00  0.00    +0.000 A 
ATOM     10  C   UNL     1      -0.520  10.870  22.311  0.00  0.00    +0.000 A 
ATOM     11  C   UNL     1      -1.180  11.618  21.353  0.00  0.00    +0.000 A 
ATOM     12  C   UNL     1      -1.177  11.200  20.018  0.00  0.00    +0.000 A 
ATOM     13  C   UNL     1      -0.470  10.043  19.596  0.00  0.00    +0.000 A 
ATOM     14  C   UNL     1       0.301   9.317  20.524  0.00  0.00    +0.000 A 
ATOM     15  H   UNL     1       0.616   8.429  23.445  0.00  0.00    +0.000 HD
ENDBRANCH   5   6
BRANCH   1  17
ATOM     16  C   UNL     1       0.706   3.884  20.326  0.00  0.00    +0.000 C 
ATOM     17  C   UNL     1       1.758   4.884  20.678  0.00  0.00    +0.000 C 
ATOM     18  O   UNL     1       2.285   4.791  21.802  0.00  0.00    +0.000 OA
ENDBRANCH   1  17
BRANCH   3  19
ATOM     19  N   UNL     1       4.640   7.257  17.109  0.00  0.00    +0.000 N 
ATOM     20  H   UNL     1       5.216   8.069  17.336  0.00  0.00    +0.000 HD
BRANCH  19  21
ATOM     21  C   UNL     1       5.465   6.307  16.440  0.00  0.00    +0.000 A 
ATOM     22  C   UNL     1       6.610   5.835  17.103  0.00  0.00    +0.000 A 
ATOM     23  C   UNL     1       7.432   4.862  16.528  0.00  0.00    +0.000 A 
ATOM     24  C   UNL     1       7.111   4.318  15.287  0.00  0.00    +0.000 A 
ATOM     25  C   UNL     1       5.968   4.758  14.624  0.00  0.00    +0.000 A 
ATOM     26  C   UNL     1       5.156   5.758  15.190  0.00  0.00    +0.000 A 
ENDBRANCH  19  21
ENDBRANCH   3  19
BRANCH   4  27
ATOM     27  C   UNL     1       2.449   9.119  17.875  0.00  0.00    +0.000 C 
ATOM     28  N   UNL     1       2.299  10.219  17.476  0.00  0.00    +0.000 NA
ENDBRANCH   4  27
TORSDOF 5
ENDMDL
MODEL 8
REMARK VINA RESULT:      -6.7      1.799      7.107
REMARK  Name = 
REMARK  6 active torsions:
REMARK  status: ('A' for Active; 'I' for Inactive)
REMARK    1  A    between atoms: C_1  and  C_2
REMARK    2  A    between atoms: C_2  and  C_4
REMARK    3  A    between atoms: C_6  and  N_7
REMARK    4  A    between atoms: N_7  and  C_8
REMARK    5  A    between atoms: C_14  and  C_15
REMARK    6  A    between atoms: C_17  and  C_18
REMARK                            x       y       z     vdW  Elec       q    Type
REMARK                         _______ _______ _______ _____ _____    ______ ____
ROOT
ATOM      1  C   UNL     1       3.591   4.467  17.495  0.00  0.00    +0.000 A 
ATOM      2  S   UNL     1       2.524   5.534  18.352  0.00  0.00    +0.000 S 
ATOM      3  C   UNL     1       3.385   6.938  17.905  0.00  0.00    +0.000 A 
ATOM      4  C   UNL     1       4.622   6.545  17.428  0.00  0.00    +0.000 A 
ATOM      5  C   UNL     1       4.700   5.153  17.041  0.00  0.00    +0.000 A 
ENDROOT
BRANCH   5   6
ATOM      6  C   UNL     1       5.656   4.789  15.938  0.00  0.00    +0.000 A 
ATOM      7  C   UNL     1       6.987   4.527  16.239  0.00  0.00    +0.000 A 
ATOM      8  N   UNL     1       7.664   4.795  15.097  0.00  0.00    +0.000 N 
ATOM      9  C   UNL     1       6.905   4.287  14.084  0.00  0.00    +0.000 A 
ATOM     10  C   UNL     1       7.321   3.793  12.847  0.00  0.00    +0.000 A 
ATOM     11  C   UNL     1       6.335   3.331  11.995  0.00  0.00    +0.000 A 
ATOM     12  C   UNL     1       4.989   3.450  12.358  0.00  0.00    +0.000 A 
ATOM     13  C   UNL     1       4.594   3.993  13.609  0.00  0.00    +0.000 A 
ATOM     14  C   UNL     1       5.574   4.375  14.546  0.00  0.00    +0.000 A 
ATOM     15  H   UNL     1       8.407   5.472  14.978  0.00  0.00    +0.000 HD
ENDBRANCH   5   6
BRANCH   1  17
ATOM     16  C   UNL     1       3.894   1.952  17.843  0.00  0.00    +0.000 C 
ATOM     17  C   UNL     1       3.077   3.104  17.356  0.00  0.00    +0.000 C 
ATOM     18  O   UNL     1       1.971   2.847  16.845  0.00  0.00    +0.000 OA
ENDBRANCH   1  17
BRANCH   3  19
ATOM     19  N   UNL     1       2.901   8.211  18.104  0.00  0.00    +0.000 N 
ATOM     20  H   UNL     1       2.753   8.792  17.277  0.00  0.00    +0.000 HD
BRANCH  19  21
ATOM     21  C   UNL     1       1.945   8.595  19.088  0.00  0.00    +0.000 A 
ATOM     22  C   UNL     1       1.005   9.584  18.753  0.00  0.00    +0.000 A 
ATOM     23  C   UNL     1       0.006   9.968  19.650  0.00  0.00    +0.000 A 
ATOM     24  C   UNL     1      -0.095   9.350  20.894  0.00  0.00    +0.000 A 
ATOM     25  C   UNL     1       0.814   8.351  21.236  0.00  0.00    +0.000 A 
ATOM     26  C   UNL     1       1.838   7.985  20.343  0.00  0.00    +0.000 A 
ENDBRANCH  19  21
ENDBRANCH   3  19
BRANCH   4  27
ATOM     27  C   UNL     1       5.669   7.524  17.254  0.00  0.00    +0.000 C 
ATOM     28  N   UNL     1       6.561   8.287  17.145  0.00  0.00    +0.000 NA
ENDBRANCH   4  27
TORSDOF 5
ENDMDL
MODEL 9
REMARK VINA RESULT:      -6.6      6.356     10.869
REMARK  Name = 
REMARK  6 active torsions:
REMARK  status: ('A' for Active; 'I' for Inactive)
REMARK    1  A    between atoms: C_1  and  C_2
REMARK    2  A    between atoms: C_2  and  C_4
REMARK    3  A    between atoms: C_6  and  N_7
REMARK    4  A    between atoms: N_7  and  C_8
REMARK    5  A    between atoms: C_14  and  C_15
REMARK    6  A    between atoms: C_17  and  C_18
REMARK                            x       y       z     vdW  Elec       q    Type
REMARK                         _______ _______ _______ _____ _____    ______ ____
ROOT
ATOM      1  C   UNL     1      -1.926  12.757  20.876  0.00  0.00    +0.000 A 
ATOM      2  S   UNL     1      -3.576  13.293  20.907  0.00  0.00    +0.000 S 
ATOM      3  C   UNL     1      -4.005  12.420  19.506  0.00  0.00    +0.000 A 
ATOM      4  C   UNL     1      -2.838  12.040  18.868  0.00  0.00    +0.000 A 
ATOM      5  C   UNL     1      -1.658  12.082  19.703  0.00  0.00    +0.000 A 
ENDROOT
BRANCH   5   6
ATOM      6  C   UNL     1      -0.554  11.106  19.399  0.00  0.00    +0.000 A 
ATOM      7  C   UNL     1       0.425  11.440  18.472  0.00  0.00    +0.000 A 
ATOM      8  N   UNL     1       0.889  10.255  18.009  0.00  0.00    +0.000 N 
ATOM      9  C   UNL     1       0.991   9.442  19.099  0.00  0.00    +0.000 A 
ATOM     10  C   UNL     1       1.876   8.385  19.317  0.00  0.00    +0.000 A 
ATOM     11  C   UNL     1       1.767   7.717  20.523  0.00  0.00    +0.000 A 
ATOM     12  C   UNL     1       0.749   8.060  21.419  0.00  0.00    +0.000 A 
ATOM     13  C   UNL     1      -0.162   9.117  21.153  0.00  0.00    +0.000 A 
ATOM     14  C   UNL     1      -0.014   9.888  19.984  0.00  0.00    +0.000 A 
ATOM     15  H   UNL     1       0.881   9.935  17.049  0.00  0.00    +0.000 HD
ENDBRANCH   5   6
BRANCH   1  17
ATOM     16  C   UNL     1      -1.561  14.237  22.929  0.00  0.00    +0.000 C 
ATOM     17  C   UNL     1      -1.187  13.048  22.107  0.00  0.00    +0.000 C 
ATOM     18  O   UNL     1      -0.247  12.340  22.514  0.00  0.00    +0.000 OA
ENDBRANCH   1  17
BRANCH   3  19
ATOM     19  N   UNL     1      -5.308  12.246  19.098  0.00  0.00    +0.000 N 
ATOM     20  H   UNL     1      -5.507  12.343  18.101  0.00  0.00    +0.000 HD
BRANCH  19  21
ATOM     21  C   UNL     1      -6.233  11.308  19.641  0.00  0.00    +0.000 A 
ATOM     22  C   UNL     1      -6.242  10.004  19.119  0.00  0.00    +0.000 A 
ATOM     23  C   UNL     1      -7.084   9.019  19.642  0.00  0.00    +0.000 A 
ATOM     24  C   UNL     1      -7.917   9.309  20.720  0.00  0.00    +0.000 A 
ATOM     25  C   UNL     1      -7.905  10.591  21.265  0.00  0.00    +0.000 A 
ATOM     26  C   UNL     1      -7.079  11.589  20.720  0.00  0.00    +0.000 A 
ENDBRANCH  19  21
ENDBRANCH   3  19
BRANCH   4  27
ATOM     27  C   UNL     1      -2.890  11.546  17.511  0.00  0.00    +0.000 C 
ATOM     28  N   UNL     1      -2.975  11.103  16.422  0.00  0.00    +0.000 NA
ENDBRANCH   4  27
TORSDOF 5
ENDMDL
