MODEL 1
REMARK VINA RESULT:      -8.8      0.000      0.000
REMARK  Name = 
REMARK  5 active torsions:
REMARK  status: ('A' for Active; 'I' for Inactive)
REMARK    1  A    between atoms: C_2  and  C_5
REMARK    2  A    between atoms: N_3  and  O_4
REMARK    3  A    between atoms: C_5  and  C_6
REMARK    4  A    between atoms: C_5  and  C_19
REMARK    5  A    between atoms: C_9  and  C_10
REMARK                            x       y       z     vdW  Elec       q    Type
REMARK                         _______ _______ _______ _____ _____    ______ ____
ROOT
ATOM      1  C   UNL     1       3.234   5.208  17.597  0.00  0.00    +0.000 C 
ENDROOT
BRANCH   1   2
ATOM      2  C   UNL     1       4.742   5.012  17.699  0.00  0.00    +0.000 A 
ATOM      3  C   UNL     1       5.482   5.329  18.850  0.00  0.00    +0.000 A 
ATOM      4  C   UNL     1       6.875   5.231  18.857  0.00  0.00    +0.000 A 
ATOM      5  C   UNL     1       7.557   4.816  17.715  0.00  0.00    +0.000 A 
ATOM      6  C   UNL     1       6.840   4.477  16.571  0.00  0.00    +0.000 A 
ATOM      7  C   UNL     1       5.451   4.575  16.571  0.00  0.00    +0.000 A 
ATOM      8  F   UNL     1       4.786   4.241  15.455  0.00  0.00    +0.000 F 
ENDBRANCH   1   2
BRANCH   1   9
ATOM      9  C   UNL     1       2.711   6.276  18.555  0.00  0.00    +0.000 A 
ATOM     10  C   UNL     1       2.320   5.947  19.860  0.00  0.00    +0.000 A 
ATOM     11  C   UNL     1       1.718   6.896  20.691  0.00  0.00    +0.000 A 
ATOM     12  C   UNL     1       1.487   8.212  20.259  0.00  0.00    +0.000 A 
ATOM     13  C   UNL     1       1.949   8.549  18.972  0.00  0.00    +0.000 A 
ATOM     14  C   UNL     1       2.553   7.602  18.133  0.00  0.00    +0.000 A 
BRANCH  12  15
ATOM     15  C   UNL     1       0.748   9.177  21.099  0.00  0.00    +0.000 A 
ATOM     16  N   UNL     1       0.536   8.853  22.395  0.00  0.00    +0.000 NA
ATOM     17  C   UNL     1      -0.218   9.709  23.118  0.00  0.00    +0.000 A 
ATOM     18  C   UNL     1      -0.759  10.856  22.601  0.00  0.00    +0.000 A 
ATOM     19  F   UNL     1      -1.511  11.681  23.337  0.00  0.00    +0.000 F 
ATOM     20  C   UNL     1      -0.485  11.108  21.280  0.00  0.00    +0.000 A 
ATOM     21  N   UNL     1       0.264  10.291  20.507  0.00  0.00    +0.000 NA
ENDBRANCH  12  15
ENDBRANCH   1   9
BRANCH   1  23
ATOM     22  O   UNL     1       1.238   3.775  17.420  0.00  0.00    +0.000 OA
ATOM     23  C   UNL     1       2.415   3.910  17.758  0.00  0.00    +0.000 C 
ATOM     24  N   UNL     1       3.104   2.841  18.290  0.00  0.00    +0.000 N 
ATOM     25  H   UNL     1       3.961   2.921  18.825  0.00  0.00    +0.000 HD
BRANCH  24  26
ATOM     26  O   UNL     1       2.332   1.668  18.484  0.00  0.00    +0.000 OA
ATOM     27  H   UNL     1       1.420   1.983  18.292  0.00  0.00    +0.000 HD
ENDBRANCH  24  26
ENDBRANCH   1  23
TORSDOF 5
ENDMDL
MODEL 2
REMARK VINA RESULT:      -8.6      1.125      1.578
REMARK  Name = 
REMARK  5 active torsions:
REMARK  status: ('A' for Active; 'I' for Inactive)
REMARK    1  A    between atoms: C_2  and  C_5
REMARK    2  A    between atoms: N_3  and  O_4
REMARK    3  A    between atoms: C_5  and  C_6
REMARK    4  A    between atoms: C_5  and  C_19
REMARK    5  A    between atoms: C_9  and  C_10
REMARK                            x       y       z     vdW  Elec       q    Type
REMARK                         _______ _______ _______ _____ _____    ______ ____
ROOT
ATOM      1  C   UNL     1       3.759   5.439  17.856  0.00  0.00    +0.000 C 
ENDROOT
BRANCH   1   2
ATOM      2  C   UNL     1       5.240   5.732  18.067  0.00  0.00    +0.000 A 
ATOM      3  C   UNL     1       5.957   5.299  19.195  0.00  0.00    +0.000 A 
ATOM      4  C   UNL     1       7.285   5.683  19.392  0.00  0.00    +0.000 A 
ATOM      5  C   UNL     1       7.923   6.506  18.468  0.00  0.00    +0.000 A 
ATOM      6  C   UNL     1       7.237   6.929  17.333  0.00  0.00    +0.000 A 
ATOM      7  C   UNL     1       5.914   6.541  17.141  0.00  0.00    +0.000 A 
ATOM      8  F   UNL     1       5.278   6.962  16.038  0.00  0.00    +0.000 F 
ENDBRANCH   1   2
BRANCH   1   9
ATOM      9  C   UNL     1       2.853   6.386  18.641  0.00  0.00    +0.000 A 
ATOM     10  C   UNL     1       2.536   7.658  18.147  0.00  0.00    +0.000 A 
ATOM     11  C   UNL     1       1.819   8.573  18.923  0.00  0.00    +0.000 A 
ATOM     12  C   UNL     1       1.384   8.255  20.220  0.00  0.00    +0.000 A 
ATOM     13  C   UNL     1       1.647   6.950  20.678  0.00  0.00    +0.000 A 
ATOM     14  C   UNL     1       2.367   6.028  19.905  0.00  0.00    +0.000 A 
BRANCH  12  15
ATOM     15  C   UNL     1       0.728   9.264  21.078  0.00  0.00    +0.000 A 
ATOM     16  N   UNL     1       0.326   8.880  22.311  0.00  0.00    +0.000 NA
ATOM     17  C   UNL     1      -0.350   9.794  23.040  0.00  0.00    +0.000 A 
ATOM     18  C   UNL     1      -0.633  11.056  22.589  0.00  0.00    +0.000 A 
ATOM     19  F   UNL     1      -1.314  11.938  23.328  0.00  0.00    +0.000 F 
ATOM     20  C   UNL     1      -0.180  11.361  21.329  0.00  0.00    +0.000 A 
ATOM     21  N   UNL     1       0.503  10.490  20.554  0.00  0.00    +0.000 NA
ENDBRANCH  12  15
ENDBRANCH   1   9
BRANCH   1  23
ATOM     22  O   UNL     1       3.812   3.282  19.044  0.00  0.00    +0.000 OA
ATOM     23  C   UNL     1       3.358   3.975  18.132  0.00  0.00    +0.000 C 
ATOM     24  N   UNL     1       2.392   3.461  17.294  0.00  0.00    +0.000 N 
ATOM     25  H   UNL     1       2.158   3.844  16.385  0.00  0.00    +0.000 HD
BRANCH  24  26
ATOM     26  O   UNL     1       2.066   2.100  17.520  0.00  0.00    +0.000 OA
ATOM     27  H   UNL     1       2.259   1.691  16.647  0.00  0.00    +0.000 HD
ENDBRANCH  24  26
ENDBRANCH   1  23
TORSDOF 5
ENDMDL
MODEL 3
REMARK VINA RESULT:      -8.5      0.576      1.126
REMARK  Name = 
REMARK  5 active torsions:
REMARK  status: ('A' for Active; 'I' for Inactive)
REMARK    1  A    between atoms: C_2  and  C_5
REMARK    2  A    between atoms: N_3  and  O_4
REMARK    3  A    between atoms: C_5  and  C_6
REMARK    4  A    between atoms: C_5  and  C_19
REMARK    5  A    between atoms: C_9  and  C_10
REMARK                            x       y       z     vdW  Elec       q    Type
REMARK                         _______ _______ _______ _____ _____    ______ ____
ROOT
ATOM      1  C   UNL     1       3.611   4.970  17.561  0.00  0.00    +0.000 C 
ENDROOT
BRANCH   1   2
ATOM      2  C   UNL     1       5.091   4.972  17.924  0.00  0.00    +0.000 A 
ATOM      3  C   UNL     1       5.577   5.421  19.164  0.00  0.00    +0.000 A 
ATOM      4  C   UNL     1       6.950   5.501  19.409  0.00  0.00    +0.000 A 
ATOM      5  C   UNL     1       7.863   5.137  18.422  0.00  0.00    +0.000 A 
ATOM      6  C   UNL     1       7.401   4.671  17.195  0.00  0.00    +0.000 A 
ATOM      7  C   UNL     1       6.031   4.590  16.957  0.00  0.00    +0.000 A 
ATOM      8  F   UNL     1       5.614   4.137  15.766  0.00  0.00    +0.000 F 
ENDBRANCH   1   2
BRANCH   1   9
ATOM      9  C   UNL     1       2.804   5.989  18.364  0.00  0.00    +0.000 A 
ATOM     10  C   UNL     1       2.628   7.299  17.899  0.00  0.00    +0.000 A 
ATOM     11  C   UNL     1       2.006   8.267  18.694  0.00  0.00    +0.000 A 
ATOM     12  C   UNL     1       1.530   7.966  19.980  0.00  0.00    +0.000 A 
ATOM     13  C   UNL     1       1.649   6.630  20.408  0.00  0.00    +0.000 A 
ATOM     14  C   UNL     1       2.273   5.655  19.616  0.00  0.00    +0.000 A 
BRANCH  12  15
ATOM     15  C   UNL     1       0.979   9.019  20.859  0.00  0.00    +0.000 A 
ATOM     16  N   UNL     1       0.590   8.663  22.104  0.00  0.00    +0.000 NA
ATOM     17  C   UNL     1       0.008   9.623  22.855  0.00  0.00    +0.000 A 
ATOM     18  C   UNL     1      -0.197  10.903  22.413  0.00  0.00    +0.000 A 
ATOM     19  F   UNL     1      -0.787  11.831  23.174  0.00  0.00    +0.000 F 
ATOM     20  C   UNL     1       0.235  11.176  21.139  0.00  0.00    +0.000 A 
ATOM     21  N   UNL     1       0.826  10.259  20.342  0.00  0.00    +0.000 NA
ENDBRANCH  12  15
ENDBRANCH   1   9
BRANCH   1  23
ATOM     22  O   UNL     1       1.860   3.292  17.129  0.00  0.00    +0.000 OA
ATOM     23  C   UNL     1       2.940   3.583  17.645  0.00  0.00    +0.000 C 
ATOM     24  N   UNL     1       3.656   2.624  18.328  0.00  0.00    +0.000 N 
ATOM     25  H   UNL     1       4.397   2.824  18.991  0.00  0.00    +0.000 HD
BRANCH  24  26
ATOM     26  O   UNL     1       3.010   1.367  18.448  0.00  0.00    +0.000 OA
ATOM     27  H   UNL     1       2.645   1.233  17.545  0.00  0.00    +0.000 HD
ENDBRANCH  24  26
ENDBRANCH   1  23
TORSDOF 5
ENDMDL
MODEL 4
REMARK VINA RESULT:      -8.5      1.216      1.603
REMARK  Name = 
REMARK  5 active torsions:
REMARK  status: ('A' for Active; 'I' for Inactive)
REMARK    1  A    between atoms: C_2  and  C_5
REMARK    2  A    between atoms: N_3  and  O_4
REMARK    3  A    between atoms: C_5  and  C_6
REMARK    4  A    between atoms: C_5  and  C_19
REMARK    5  A    between atoms: C_9  and  C_10
REMARK                            x       y       z     vdW  Elec       q    Type
REMARK                         _______ _______ _______ _____ _____    ______ ____
ROOT
ATOM      1  C   UNL     1       3.327   5.822  17.914  0.00  0.00    +0.000 C 
ENDROOT
BRANCH   1   2
ATOM      2  C   UNL     1       4.847   5.885  18.004  0.00  0.00    +0.000 A 
ATOM      3  C   UNL     1       5.572   5.413  19.111  0.00  0.00    +0.000 A 
ATOM      4  C   UNL     1       6.955   5.590  19.191  0.00  0.00    +0.000 A 
ATOM      5  C   UNL     1       7.641   6.241  18.169  0.00  0.00    +0.000 A 
ATOM      6  C   UNL     1       6.944   6.697  17.054  0.00  0.00    +0.000 A 
ATOM      7  C   UNL     1       5.565   6.516  16.979  0.00  0.00    +0.000 A 
ATOM      8  F   UNL     1       4.920   6.965  15.893  0.00  0.00    +0.000 F 
ENDBRANCH   1   2
BRANCH   1   9
ATOM      9  C   UNL     1       2.640   6.865  18.795  0.00  0.00    +0.000 A 
ATOM     10  C   UNL     1       2.311   6.581  20.127  0.00  0.00    +0.000 A 
ATOM     11  C   UNL     1       1.565   7.483  20.891  0.00  0.00    +0.000 A 
ATOM     12  C   UNL     1       1.122   8.706  20.361  0.00  0.00    +0.000 A 
ATOM     13  C   UNL     1       1.520   9.010  19.045  0.00  0.00    +0.000 A 
ATOM     14  C   UNL     1       2.267   8.109  18.273  0.00  0.00    +0.000 A 
BRANCH  12  15
ATOM     15  C   UNL     1       0.238   9.602  21.135  0.00  0.00    +0.000 A 
ATOM     16  N   UNL     1      -0.195  10.734  20.535  0.00  0.00    +0.000 NA
ATOM     17  C   UNL     1      -0.927  11.579  21.293  0.00  0.00    +0.000 A 
ATOM     18  C   UNL     1      -1.237  11.337  22.605  0.00  0.00    +0.000 A 
ATOM     19  F   UNL     1      -1.955  12.197  23.335  0.00  0.00    +0.000 F 
ATOM     20  C   UNL     1      -0.761  10.160  23.128  0.00  0.00    +0.000 A 
ATOM     21  N   UNL     1      -0.026   9.275  22.420  0.00  0.00    +0.000 NA
ENDBRANCH  12  15
ENDBRANCH   1   9
BRANCH   1  23
ATOM     22  O   UNL     1       3.331   3.507  18.757  0.00  0.00    +0.000 OA
ATOM     23  C   UNL     1       2.733   4.425  18.192  0.00  0.00    +0.000 C 
ATOM     24  N   UNL     1       1.426   4.250  17.793  0.00  0.00    +0.000 N 
ATOM     25  H   UNL     1       0.953   4.830  17.108  0.00  0.00    +0.000 HD
BRANCH  24  26
ATOM     26  O   UNL     1       0.904   2.949  18.003  0.00  0.00    +0.000 OA
ATOM     27  H   UNL     1      -0.066   3.110  18.009  0.00  0.00    +0.000 HD
ENDBRANCH  24  26
ENDBRANCH   1  23
TORSDOF 5
ENDMDL
MODEL 5
REMARK VINA RESULT:      -8.4      0.759      1.243
REMARK  Name = 
REMARK  5 active torsions:
REMARK  status: ('A' for Active; 'I' for Inactive)
REMARK    1  A    between atoms: C_2  and  C_5
REMARK    2  A    between atoms: N_3  and  O_4
REMARK    3  A    between atoms: C_5  and  C_6
REMARK    4  A    between atoms: C_5  and  C_19
REMARK    5  A    between atoms: C_9  and  C_10
REMARK                            x       y       z     vdW  Elec       q    Type
REMARK                         _______ _______ _______ _____ _____    ______ ____
ROOT
ATOM      1  C   UNL     1       3.238   4.799  18.056  0.00  0.00    +0.000 C 
ENDROOT
BRANCH   1   2
ATOM      2  C   UNL     1       4.758   4.803  17.952  0.00  0.00    +0.000 A 
ATOM      3  C   UNL     1       5.599   5.237  18.991  0.00  0.00    +0.000 A 
ATOM      4  C   UNL     1       6.981   5.320  18.808  0.00  0.00    +0.000 A 
ATOM      5  C   UNL     1       7.551   4.973  17.585  0.00  0.00    +0.000 A 
ATOM      6  C   UNL     1       6.737   4.521  16.551  0.00  0.00    +0.000 A 
ATOM      7  C   UNL     1       5.360   4.438  16.739  0.00  0.00    +0.000 A 
ATOM      8  F   UNL     1       4.600   3.998  15.726  0.00  0.00    +0.000 F 
ENDBRANCH   1   2
BRANCH   1   9
ATOM      9  C   UNL     1       2.700   5.965  18.885  0.00  0.00    +0.000 A 
ATOM     10  C   UNL     1       2.211   5.763  20.182  0.00  0.00    +0.000 A 
ATOM     11  C   UNL     1       1.597   6.802  20.889  0.00  0.00    +0.000 A 
ATOM     12  C   UNL     1       1.452   8.084  20.333  0.00  0.00    +0.000 A 
ATOM     13  C   UNL     1       2.011   8.292  19.058  0.00  0.00    +0.000 A 
ATOM     14  C   UNL     1       2.627   7.254  18.343  0.00  0.00    +0.000 A 
BRANCH  12  15
ATOM     15  C   UNL     1       0.702   9.144  21.038  0.00  0.00    +0.000 A 
ATOM     16  N   UNL     1       0.755  10.397  20.532  0.00  0.00    +0.000 NA
ATOM     17  C   UNL     1       0.135  11.365  21.243  0.00  0.00    +0.000 A 
ATOM     18  C   UNL     1      -0.524  11.127  22.421  0.00  0.00    +0.000 A 
ATOM     19  F   UNL     1      -1.120  12.106  23.110  0.00  0.00    +0.000 F 
ATOM     20  C   UNL     1      -0.532   9.825  22.854  0.00  0.00    +0.000 A 
ATOM     21  N   UNL     1       0.068   8.815  22.185  0.00  0.00    +0.000 NA
ENDBRANCH  12  15
ENDBRANCH   1   9
BRANCH   1  23
ATOM     22  O   UNL     1       3.211   2.695  19.337  0.00  0.00    +0.000 OA
ATOM     23  C   UNL     1       2.641   3.470  18.568  0.00  0.00    +0.000 C 
ATOM     24  N   UNL     1       1.364   3.193  18.132  0.00  0.00    +0.000 N 
ATOM     25  H   UNL     1       0.930   3.616  17.319  0.00  0.00    +0.000 HD
BRANCH  24  26
ATOM     26  O   UNL     1       0.843   1.946  18.563  0.00  0.00    +0.000 OA
ATOM     27  H   UNL     1       0.517   1.554  17.722  0.00  0.00    +0.000 HD
ENDBRANCH  24  26
ENDBRANCH   1  23
TORSDOF 5
ENDMDL
MODEL 6
REMARK VINA RESULT:      -8.3      1.216      1.602
REMARK  Name = 
REMARK  5 active torsions:
REMARK  status: ('A' for Active; 'I' for Inactive)
REMARK    1  A    between atoms: C_2  and  C_5
REMARK    2  A    between atoms: N_3  and  O_4
REMARK    3  A    between atoms: C_5  and  C_6
REMARK    4  A    between atoms: C_5  and  C_19
REMARK    5  A    between atoms: C_9  and  C_10
REMARK                            x       y       z     vdW  Elec       q    Type
REMARK                         _______ _______ _______ _____ _____    ______ ____
ROOT
ATOM      1  C   UNL     1       3.250   4.481  17.746  0.00  0.00    +0.000 C 
ENDROOT
BRANCH   1   2
ATOM      2  C   UNL     1       4.703   4.602  17.305  0.00  0.00    +0.000 A 
ATOM      3  C   UNL     1       5.125   4.387  15.982  0.00  0.00    +0.000 A 
ATOM      4  C   UNL     1       6.482   4.406  15.650  0.00  0.00    +0.000 A 
ATOM      5  C   UNL     1       7.443   4.639  16.631  0.00  0.00    +0.000 A 
ATOM      6  C   UNL     1       7.044   4.875  17.943  0.00  0.00    +0.000 A 
ATOM      7  C   UNL     1       5.690   4.857  18.268  0.00  0.00    +0.000 A 
ATOM      8  F   UNL     1       5.334   5.088  19.540  0.00  0.00    +0.000 F 
ENDBRANCH   1   2
BRANCH   1   9
ATOM      9  C   UNL     1       2.799   5.653  18.617  0.00  0.00    +0.000 A 
ATOM     10  C   UNL     1       2.341   5.446  19.925  0.00  0.00    +0.000 A 
ATOM     11  C   UNL     1       1.804   6.497  20.674  0.00  0.00    +0.000 A 
ATOM     12  C   UNL     1       1.707   7.797  20.152  0.00  0.00    +0.000 A 
ATOM     13  C   UNL     1       2.236   8.007  18.864  0.00  0.00    +0.000 A 
ATOM     14  C   UNL     1       2.774   6.957  18.107  0.00  0.00    +0.000 A 
BRANCH  12  15
ATOM     15  C   UNL     1       1.035   8.877  20.904  0.00  0.00    +0.000 A 
ATOM     16  N   UNL     1       0.790   8.674  22.218  0.00  0.00    +0.000 NA
ATOM     17  C   UNL     1       0.095   9.637  22.862  0.00  0.00    +0.000 A 
ATOM     18  C   UNL     1      -0.355  10.777  22.248  0.00  0.00    +0.000 A 
ATOM     19  F   UNL     1      -1.051  11.710  22.907  0.00  0.00    +0.000 F 
ATOM     20  C   UNL     1      -0.055  10.901  20.915  0.00  0.00    +0.000 A 
ATOM     21  N   UNL     1       0.638   9.973  20.219  0.00  0.00    +0.000 NA
ENDBRANCH  12  15
ENDBRANCH   1   9
BRANCH   1  23
ATOM     22  O   UNL     1       3.658   2.541  19.209  0.00  0.00    +0.000 OA
ATOM     23  C   UNL     1       2.908   3.146  18.441  0.00  0.00    +0.000 C 
ATOM     24  N   UNL     1       1.647   2.653  18.181  0.00  0.00    +0.000 N 
ATOM     25  H   UNL     1       1.077   2.925  17.388  0.00  0.00    +0.000 HD
BRANCH  24  26
ATOM     26  O   UNL     1       1.359   1.401  18.780  0.00  0.00    +0.000 OA
ATOM     27  H   UNL     1       2.053   0.820  18.395  0.00  0.00    +0.000 HD
ENDBRANCH  24  26
ENDBRANCH   1  23
TORSDOF 5
ENDMDL
MODEL 7
REMARK VINA RESULT:      -8.2      1.454      1.874
REMARK  Name = 
REMARK  5 active torsions:
REMARK  status: ('A' for Active; 'I' for Inactive)
REMARK    1  A    between atoms: C_2  and  C_5
REMARK    2  A    between atoms: N_3  and  O_4
REMARK    3  A    between atoms: C_5  and  C_6
REMARK    4  A    between atoms: C_5  and  C_19
REMARK    5  A    between atoms: C_9  and  C_10
REMARK                            x       y       z     vdW  Elec       q    Type
REMARK                         _______ _______ _______ _____ _____    ______ ____
ROOT
ATOM      1  C   UNL     1       3.562   4.159  17.943  0.00  0.00    +0.000 C 
ENDROOT
BRANCH   1   2
ATOM      2  C   UNL     1       4.805   4.468  17.118  0.00  0.00    +0.000 A 
ATOM      3  C   UNL     1       4.966   4.055  15.785  0.00  0.00    +0.000 A 
ATOM      4  C   UNL     1       6.167   4.273  15.106  0.00  0.00    +0.000 A 
ATOM      5  C   UNL     1       7.231   4.906  15.744  0.00  0.00    +0.000 A 
ATOM      6  C   UNL     1       7.084   5.342  17.057  0.00  0.00    +0.000 A 
ATOM      7  C   UNL     1       5.884   5.124  17.729  0.00  0.00    +0.000 A 
ATOM      8  F   UNL     1       5.771   5.555  18.993  0.00  0.00    +0.000 F 
ENDBRANCH   1   2
BRANCH   1   9
ATOM      9  C   UNL     1       3.047   5.374  18.712  0.00  0.00    +0.000 A 
ATOM     10  C   UNL     1       2.614   5.259  20.040  0.00  0.00    +0.000 A 
ATOM     11  C   UNL     1       2.019   6.338  20.699  0.00  0.00    +0.000 A 
ATOM     12  C   UNL     1       1.837   7.578  20.063  0.00  0.00    +0.000 A 
ATOM     13  C   UNL     1       2.341   7.702  18.754  0.00  0.00    +0.000 A 
ATOM     14  C   UNL     1       2.937   6.623  18.087  0.00  0.00    +0.000 A 
BRANCH  12  15
ATOM     15  C   UNL     1       1.105   8.678  20.725  0.00  0.00    +0.000 A 
ATOM     16  N   UNL     1       1.007   8.650  22.073  0.00  0.00    +0.000 NA
ATOM     17  C   UNL     1       0.258   9.618  22.647  0.00  0.00    +0.000 A 
ATOM     18  C   UNL     1      -0.385  10.594  21.932  0.00  0.00    +0.000 A 
ATOM     19  F   UNL     1      -1.130  11.533  22.525  0.00  0.00    +0.000 F 
ATOM     20  C   UNL     1      -0.224  10.547  20.570  0.00  0.00    +0.000 A 
ATOM     21  N   UNL     1       0.514   9.607  19.940  0.00  0.00    +0.000 NA
ENDBRANCH  12  15
ENDBRANCH   1   9
BRANCH   1  23
ATOM     22  O   UNL     1       2.803   2.218  19.258  0.00  0.00    +0.000 OA
ATOM     23  C   UNL     1       3.721   2.958  18.901  0.00  0.00    +0.000 C 
ATOM     24  N   UNL     1       5.007   2.716  19.332  0.00  0.00    +0.000 N 
ATOM     25  H   UNL     1       5.758   3.397  19.311  0.00  0.00    +0.000 HD
BRANCH  24  26
ATOM     26  O   UNL     1       5.137   1.645  20.253  0.00  0.00    +0.000 OA
ATOM     27  H   UNL     1       4.241   1.241  20.232  0.00  0.00    +0.000 HD
ENDBRANCH  24  26
ENDBRANCH   1  23
TORSDOF 5
ENDMDL
MODEL 8
REMARK VINA RESULT:      -8.2      1.612      1.903
REMARK  Name = 
REMARK  5 active torsions:
REMARK  status: ('A' for Active; 'I' for Inactive)
REMARK    1  A    between atoms: C_2  and  C_5
REMARK    2  A    between atoms: N_3  and  O_4
REMARK    3  A    between atoms: C_5  and  C_6
REMARK    4  A    between atoms: C_5  and  C_19
REMARK    5  A    between atoms: C_9  and  C_10
REMARK                            x       y       z     vdW  Elec       q    Type
REMARK                         _______ _______ _______ _____ _____    ______ ____
ROOT
ATOM      1  C   UNL     1       3.334   5.907  17.889  0.00  0.00    +0.000 C 
ENDROOT
BRANCH   1   2
ATOM      2  C   UNL     1       4.849   5.914  18.049  0.00  0.00    +0.000 A 
ATOM      3  C   UNL     1       5.504   5.426  19.191  0.00  0.00    +0.000 A 
ATOM      4  C   UNL     1       6.888   5.551  19.334  0.00  0.00    +0.000 A 
ATOM      5  C   UNL     1       7.645   6.166  18.340  0.00  0.00    +0.000 A 
ATOM      6  C   UNL     1       7.017   6.638  17.190  0.00  0.00    +0.000 A 
ATOM      7  C   UNL     1       5.637   6.508  17.053  0.00  0.00    +0.000 A 
ATOM      8  F   UNL     1       5.060   6.971  15.935  0.00  0.00    +0.000 F 
ENDBRANCH   1   2
BRANCH   1   9
ATOM      9  C   UNL     1       2.668   7.127  18.523  0.00  0.00    +0.000 A 
ATOM     10  C   UNL     1       2.256   7.110  19.863  0.00  0.00    +0.000 A 
ATOM     11  C   UNL     1       1.529   8.174  20.405  0.00  0.00    +0.000 A 
ATOM     12  C   UNL     1       1.189   9.299  19.637  0.00  0.00    +0.000 A 
ATOM     13  C   UNL     1       1.670   9.337  18.314  0.00  0.00    +0.000 A 
ATOM     14  C   UNL     1       2.398   8.272  17.763  0.00  0.00    +0.000 A 
BRANCH  12  15
ATOM     15  C   UNL     1       0.323  10.366  20.181  0.00  0.00    +0.000 A 
ATOM     16  N   UNL     1      -0.831  10.637  19.530  0.00  0.00    +0.000 NA
ATOM     17  C   UNL     1      -1.560  11.675  19.995  0.00  0.00    +0.000 A 
ATOM     18  C   UNL     1      -1.183  12.438  21.069  0.00  0.00    +0.000 A 
ATOM     19  F   UNL     1      -1.919  13.467  21.501  0.00  0.00    +0.000 F 
ATOM     20  C   UNL     1      -0.001  12.086  21.671  0.00  0.00    +0.000 A 
ATOM     21  N   UNL     1       0.770  11.058  21.254  0.00  0.00    +0.000 NA
ENDBRANCH  12  15
ENDBRANCH   1   9
BRANCH   1  23
ATOM     22  O   UNL     1       3.015   3.959  19.363  0.00  0.00    +0.000 OA
ATOM     23  C   UNL     1       2.650   4.616  18.387  0.00  0.00    +0.000 C 
ATOM     24  N   UNL     1       1.534   4.230  17.677  0.00  0.00    +0.000 N 
ATOM     25  H   UNL     1       1.317   4.539  16.736  0.00  0.00    +0.000 HD
BRANCH  24  26
ATOM     26  O   UNL     1       0.942   3.015  18.107  0.00  0.00    +0.000 OA
ATOM     27  H   UNL     1       0.943   3.116  19.085  0.00  0.00    +0.000 HD
ENDBRANCH  24  26
ENDBRANCH   1  23
TORSDOF 5
ENDMDL
MODEL 9
REMARK VINA RESULT:      -8.2      1.177      1.599
REMARK  Name = 
REMARK  5 active torsions:
REMARK  status: ('A' for Active; 'I' for Inactive)
REMARK    1  A    between atoms: C_2  and  C_5
REMARK    2  A    between atoms: N_3  and  O_4
REMARK    3  A    between atoms: C_5  and  C_6
REMARK    4  A    between atoms: C_5  and  C_19
REMARK    5  A    between atoms: C_9  and  C_10
REMARK                            x       y       z     vdW  Elec       q    Type
REMARK                         _______ _______ _______ _____ _____    ______ ____
ROOT
ATOM      1  C   UNL     1       3.777   4.442  18.037  0.00  0.00    +0.000 C 
ENDROOT
BRANCH   1   2
ATOM      2  C   UNL     1       5.144   4.952  17.596  0.00  0.00    +0.000 A 
ATOM      3  C   UNL     1       6.001   5.680  18.438  0.00  0.00    +0.000 A 
ATOM      4  C   UNL     1       7.197   6.216  17.955  0.00  0.00    +0.000 A 
ATOM      5  C   UNL     1       7.560   6.036  16.623  0.00  0.00    +0.000 A 
ATOM      6  C   UNL     1       6.735   5.300  15.778  0.00  0.00    +0.000 A 
ATOM      7  C   UNL     1       5.545   4.766  16.266  0.00  0.00    +0.000 A 
ATOM      8  F   UNL     1       4.770   4.060  15.430  0.00  0.00    +0.000 F 
ENDBRANCH   1   2
BRANCH   1   9
ATOM      9  C   UNL     1       2.942   5.516  18.731  0.00  0.00    +0.000 A 
ATOM     10  C   UNL     1       2.760   6.777  18.148  0.00  0.00    +0.000 A 
ATOM     11  C   UNL     1       2.110   7.803  18.842  0.00  0.00    +0.000 A 
ATOM     12  C   UNL     1       1.611   7.610  20.140  0.00  0.00    +0.000 A 
ATOM     13  C   UNL     1       1.737   6.319  20.686  0.00  0.00    +0.000 A 
ATOM     14  C   UNL     1       2.389   5.286  19.997  0.00  0.00    +0.000 A 
BRANCH  12  15
ATOM     15  C   UNL     1       1.028   8.729  20.911  0.00  0.00    +0.000 A 
ATOM     16  N   UNL     1       0.919   8.583  22.251  0.00  0.00    +0.000 NA
ATOM     17  C   UNL     1       0.302   9.581  22.922  0.00  0.00    +0.000 A 
ATOM     18  C   UNL     1      -0.200  10.699  22.310  0.00  0.00    +0.000 A 
ATOM     19  F   UNL     1      -0.816  11.667  22.997  0.00  0.00    +0.000 F 
ATOM     20  C   UNL     1      -0.038  10.765  20.949  0.00  0.00    +0.000 A 
ATOM     21  N   UNL     1       0.572   9.801  20.225  0.00  0.00    +0.000 NA
ENDBRANCH  12  15
ENDBRANCH   1   9
BRANCH   1  23
ATOM     22  O   UNL     1       2.869   2.424  19.120  0.00  0.00    +0.000 OA
ATOM     23  C   UNL     1       3.827   3.169  18.908  0.00  0.00    +0.000 C 
ATOM     24  N   UNL     1       5.063   2.865  19.437  0.00  0.00    +0.000 N 
ATOM     25  H   UNL     1       5.822   3.530  19.539  0.00  0.00    +0.000 HD
BRANCH  24  26
ATOM     26  O   UNL     1       5.091   1.725  20.279  0.00  0.00    +0.000 OA
ATOM     27  H   UNL     1       5.997   1.375  20.128  0.00  0.00    +0.000 HD
ENDBRANCH  24  26
ENDBRANCH   1  23
TORSDOF 5
ENDMDL
