MODEL 1
REMARK VINA RESULT:      -6.8      0.000      0.000
REMARK  Name = 
REMARK  9 active torsions:
REMARK  status: ('A' for Active; 'I' for Inactive)
REMARK    1  A    between atoms: C_1  and  C_2
REMARK    2  A    between atoms: C_2  and  N_3
REMARK    3  A    between atoms: N_3  and  C_4
REMARK    4  A    between atoms: N_3  and  C_6
REMARK    5  A    between atoms: C_4  and  C_5
REMARK    6  A    between atoms: C_6  and  C_7
REMARK    7  A    between atoms: C_7  and  C_8
REMARK    8  A    between atoms: C_8  and  O_9
REMARK    9  A    between atoms: O_9  and  C_10
REMARK                            x       y       z     vdW  Elec       q    Type
REMARK                         _______ _______ _______ _____ _____    ______ ____
ROOT
ATOM      1  C   UNL     1       4.681   3.683  17.748  0.00  0.00    +0.000 A 
ATOM      2  C   UNL     1       4.372   4.369  16.566  0.00  0.00    +0.000 A 
ATOM      3  C   UNL     1       5.049   5.543  16.225  0.00  0.00    +0.000 A 
ATOM      4  C   UNL     1       6.044   6.033  17.068  0.00  0.00    +0.000 A 
ATOM      5  O   UNL     1       6.694   7.182  16.685  0.00  0.00    +0.000 OA
ATOM      6  C   UNL     1       7.692   7.651  17.507  0.00  0.00    +0.000 A 
ATOM      7  C   UNL     1       8.085   7.101  18.659  0.00  0.00    +0.000 A 
ATOM      8  C   UNL     1       7.411   5.879  19.121  0.00  0.00    +0.000 A 
ATOM      9  O   UNL     1       7.729   5.339  20.168  0.00  0.00    +0.000 OA
ATOM     10  C   UNL     1       6.350   5.354  18.244  0.00  0.00    +0.000 A 
ATOM     11  C   UNL     1       5.669   4.183  18.593  0.00  0.00    +0.000 A 
ENDROOT
BRANCH   1  12
ATOM     12  O   UNL     1       3.963   2.537  17.961  0.00  0.00    +0.000 OA
BRANCH  12  13
ATOM     13  C   UNL     1       2.686   2.460  17.316  0.00  0.00    +0.000 C 
BRANCH  13  14
ATOM     14  C   UNL     1       1.622   2.324  18.393  0.00  0.00    +0.000 C 
BRANCH  14  15
ATOM     15  C   UNL     1       0.950   3.659  18.743  0.00  0.00    +0.000 C 
BRANCH  15  16
ATOM     16  N   UNL     1       1.174   4.127  20.123  0.00  0.00    +0.000 NA
BRANCH  16  18
ATOM     17  C   UNL     1       2.421   2.711  21.817  0.00  0.00    +0.000 C 
ATOM     18  C   UNL     1       1.120   3.014  21.086  0.00  0.00    +0.000 C 
ENDBRANCH  16  18
BRANCH  16  19
ATOM     19  C   UNL     1       2.400   4.943  20.225  0.00  0.00    +0.000 C 
ATOM     20  C   UNL     1       2.476   6.166  19.313  0.00  0.00    +0.000 C 
ENDBRANCH  16  19
ENDBRANCH  15  16
ENDBRANCH  14  15
ENDBRANCH  13  14
ENDBRANCH  12  13
ENDBRANCH   1  12
TORSDOF 7
ENDMDL
MODEL 2
REMARK VINA RESULT:      -6.4      0.629      1.632
REMARK  Name = 
REMARK  9 active torsions:
REMARK  status: ('A' for Active; 'I' for Inactive)
REMARK    1  A    between atoms: C_1  and  C_2
REMARK    2  A    between atoms: C_2  and  N_3
REMARK    3  A    between atoms: N_3  and  C_4
REMARK    4  A    between atoms: N_3  and  C_6
REMARK    5  A    between atoms: C_4  and  C_5
REMARK    6  A    between atoms: C_6  and  C_7
REMARK    7  A    between atoms: C_7  and  C_8
REMARK    8  A    between atoms: C_8  and  O_9
REMARK    9  A    between atoms: O_9  and  C_10
REMARK                            x       y       z     vdW  Elec       q    Type
REMARK                         _______ _______ _______ _____ _____    ______ ____
ROOT
ATOM      1  C   UNL     1       4.691   3.798  17.490  0.00  0.00    +0.000 A 
ATOM      2  C   UNL     1       4.460   4.524  16.315  0.00  0.00    +0.000 A 
ATOM      3  C   UNL     1       5.178   5.693  16.045  0.00  0.00    +0.000 A 
ATOM      4  C   UNL     1       6.135   6.136  16.954  0.00  0.00    +0.000 A 
ATOM      5  O   UNL     1       6.828   7.282  16.641  0.00  0.00    +0.000 OA
ATOM      6  C   UNL     1       7.789   7.705  17.528  0.00  0.00    +0.000 A 
ATOM      7  C   UNL     1       8.109   7.115  18.682  0.00  0.00    +0.000 A 
ATOM      8  C   UNL     1       7.387   5.894  19.071  0.00  0.00    +0.000 A 
ATOM      9  O   UNL     1       7.636   5.318  20.117  0.00  0.00    +0.000 OA
ATOM     10  C   UNL     1       6.363   5.418  18.124  0.00  0.00    +0.000 A 
ATOM     11  C   UNL     1       5.642   4.252  18.401  0.00  0.00    +0.000 A 
ENDROOT
BRANCH   1  12
ATOM     12  O   UNL     1       3.940   2.662  17.631  0.00  0.00    +0.000 OA
BRANCH  12  13
ATOM     13  C   UNL     1       2.566   2.758  17.235  0.00  0.00    +0.000 C 
BRANCH  13  14
ATOM     14  C   UNL     1       1.704   2.424  18.442  0.00  0.00    +0.000 C 
BRANCH  14  15
ATOM     15  C   UNL     1       1.285   3.665  19.241  0.00  0.00    +0.000 C 
BRANCH  15  16
ATOM     16  N   UNL     1       2.350   4.265  20.066  0.00  0.00    +0.000 NA
BRANCH  16  18
ATOM     17  C   UNL     1       1.648   6.636  20.626  0.00  0.00    +0.000 C 
ATOM     18  C   UNL     1       2.507   5.701  19.784  0.00  0.00    +0.000 C 
ENDBRANCH  16  18
BRANCH  16  19
ATOM     19  C   UNL     1       2.163   3.956  21.498  0.00  0.00    +0.000 C 
ATOM     20  C   UNL     1       1.589   2.578  21.823  0.00  0.00    +0.000 C 
ENDBRANCH  16  19
ENDBRANCH  15  16
ENDBRANCH  14  15
ENDBRANCH  13  14
ENDBRANCH  12  13
ENDBRANCH   1  12
TORSDOF 7
ENDMDL
MODEL 3
REMARK VINA RESULT:      -6.3      1.029      1.129
REMARK  Name = 
REMARK  9 active torsions:
REMARK  status: ('A' for Active; 'I' for Inactive)
REMARK    1  A    between atoms: C_1  and  C_2
REMARK    2  A    between atoms: C_2  and  N_3
REMARK    3  A    between atoms: N_3  and  C_4
REMARK    4  A    between atoms: N_3  and  C_6
REMARK    5  A    between atoms: C_4  and  C_5
REMARK    6  A    between atoms: C_6  and  C_7
REMARK    7  A    between atoms: C_7  and  C_8
REMARK    8  A    between atoms: C_8  and  O_9
REMARK    9  A    between atoms: O_9  and  C_10
REMARK                            x       y       z     vdW  Elec       q    Type
REMARK                         _______ _______ _______ _____ _____    ______ ____
ROOT
ATOM      1  C   UNL     1       5.194   4.057  16.946  0.00  0.00    +0.000 A 
ATOM      2  C   UNL     1       4.792   4.989  15.981  0.00  0.00    +0.000 A 
ATOM      3  C   UNL     1       5.353   6.270  15.948  0.00  0.00    +0.000 A 
ATOM      4  C   UNL     1       6.325   6.619  16.883  0.00  0.00    +0.000 A 
ATOM      5  O   UNL     1       6.859   7.882  16.804  0.00  0.00    +0.000 OA
ATOM      6  C   UNL     1       7.836   8.216  17.712  0.00  0.00    +0.000 A 
ATOM      7  C   UNL     1       8.309   7.431  18.683  0.00  0.00    +0.000 A 
ATOM      8  C   UNL     1       7.759   6.074  18.821  0.00  0.00    +0.000 A 
ATOM      9  O   UNL     1       8.153   5.318  19.693  0.00  0.00    +0.000 OA
ATOM     10  C   UNL     1       6.723   5.694  17.845  0.00  0.00    +0.000 A 
ATOM     11  C   UNL     1       6.159   4.415  17.885  0.00  0.00    +0.000 A 
ENDROOT
BRANCH   1  12
ATOM     12  O   UNL     1       4.587   2.833  16.863  0.00  0.00    +0.000 OA
BRANCH  12  13
ATOM     13  C   UNL     1       3.276   2.737  17.435  0.00  0.00    +0.000 C 
BRANCH  13  14
ATOM     14  C   UNL     1       3.392   1.988  18.753  0.00  0.00    +0.000 C 
BRANCH  14  15
ATOM     15  C   UNL     1       3.408   2.920  19.972  0.00  0.00    +0.000 C 
BRANCH  15  16
ATOM     16  N   UNL     1       2.531   4.101  19.866  0.00  0.00    +0.000 NA
BRANCH  16  18
ATOM     17  C   UNL     1       1.330   2.758  21.650  0.00  0.00    +0.000 C 
ATOM     18  C   UNL     1       1.434   4.048  20.847  0.00  0.00    +0.000 C 
ENDBRANCH  16  18
BRANCH  16  19
ATOM     19  C   UNL     1       3.307   5.356  19.907  0.00  0.00    +0.000 C 
ATOM     20  C   UNL     1       2.905   6.434  18.902  0.00  0.00    +0.000 C 
ENDBRANCH  16  19
ENDBRANCH  15  16
ENDBRANCH  14  15
ENDBRANCH  13  14
ENDBRANCH  12  13
ENDBRANCH   1  12
TORSDOF 7
ENDMDL
MODEL 4
REMARK VINA RESULT:      -6.1      1.817      2.988
REMARK  Name = 
REMARK  9 active torsions:
REMARK  status: ('A' for Active; 'I' for Inactive)
REMARK    1  A    between atoms: C_1  and  C_2
REMARK    2  A    between atoms: C_2  and  N_3
REMARK    3  A    between atoms: N_3  and  C_4
REMARK    4  A    between atoms: N_3  and  C_6
REMARK    5  A    between atoms: C_4  and  C_5
REMARK    6  A    between atoms: C_6  and  C_7
REMARK    7  A    between atoms: C_7  and  C_8
REMARK    8  A    between atoms: C_8  and  O_9
REMARK    9  A    between atoms: O_9  and  C_10
REMARK                            x       y       z     vdW  Elec       q    Type
REMARK                         _______ _______ _______ _____ _____    ______ ____
ROOT
ATOM      1  C   UNL     1       2.857   6.330  19.310  0.00  0.00    +0.000 A 
ATOM      2  C   UNL     1       2.589   7.008  18.115  0.00  0.00    +0.000 A 
ATOM      3  C   UNL     1       3.590   7.187  17.155  0.00  0.00    +0.000 A 
ATOM      4  C   UNL     1       4.866   6.681  17.391  0.00  0.00    +0.000 A 
ATOM      5  O   UNL     1       5.815   6.867  16.414  0.00  0.00    +0.000 OA
ATOM      6  C   UNL     1       7.068   6.346  16.639  0.00  0.00    +0.000 A 
ATOM      7  C   UNL     1       7.461   5.684  17.730  0.00  0.00    +0.000 A 
ATOM      8  C   UNL     1       6.487   5.472  18.812  0.00  0.00    +0.000 A 
ATOM      9  O   UNL     1       6.795   4.878  19.832  0.00  0.00    +0.000 OA
ATOM     10  C   UNL     1       5.135   6.010  18.581  0.00  0.00    +0.000 A 
ATOM     11  C   UNL     1       4.138   5.836  19.546  0.00  0.00    +0.000 A 
ENDROOT
BRANCH   1  12
ATOM     12  O   UNL     1       1.792   6.203  20.160  0.00  0.00    +0.000 OA
BRANCH  12  13
ATOM     13  C   UNL     1       1.827   5.085  21.056  0.00  0.00    +0.000 C 
BRANCH  13  14
ATOM     14  C   UNL     1       1.009   3.961  20.438  0.00  0.00    +0.000 C 
BRANCH  14  15
ATOM     15  C   UNL     1       1.688   2.590  20.560  0.00  0.00    +0.000 C 
BRANCH  15  16
ATOM     16  N   UNL     1       2.447   2.162  19.369  0.00  0.00    +0.000 NA
BRANCH  16  18
ATOM     17  C   UNL     1       2.671   3.296  17.112  0.00  0.00    +0.000 C 
ATOM     18  C   UNL     1       1.782   2.586  18.125  0.00  0.00    +0.000 C 
ENDBRANCH  16  18
BRANCH  16  19
ATOM     19  C   UNL     1       3.863   2.569  19.456  0.00  0.00    +0.000 C 
ATOM     20  C   UNL     1       4.714   1.841  20.494  0.00  0.00    +0.000 C 
ENDBRANCH  16  19
ENDBRANCH  15  16
ENDBRANCH  14  15
ENDBRANCH  13  14
ENDBRANCH  12  13
ENDBRANCH   1  12
TORSDOF 7
ENDMDL
MODEL 5
REMARK VINA RESULT:      -6.0      3.741      6.594
REMARK  Name = 
REMARK  9 active torsions:
REMARK  status: ('A' for Active; 'I' for Inactive)
REMARK    1  A    between atoms: C_1  and  C_2
REMARK    2  A    between atoms: C_2  and  N_3
REMARK    3  A    between atoms: N_3  and  C_4
REMARK    4  A    between atoms: N_3  and  C_6
REMARK    5  A    between atoms: C_4  and  C_5
REMARK    6  A    between atoms: C_6  and  C_7
REMARK    7  A    between atoms: C_7  and  C_8
REMARK    8  A    between atoms: C_8  and  O_9
REMARK    9  A    between atoms: O_9  and  C_10
REMARK                            x       y       z     vdW  Elec       q    Type
REMARK                         _______ _______ _______ _____ _____    ______ ____
ROOT
ATOM      1  C   UNL     1       5.236   5.420  17.350  0.00  0.00    +0.000 A 
ATOM      2  C   UNL     1       4.201   6.364  17.343  0.00  0.00    +0.000 A 
ATOM      3  C   UNL     1       3.095   6.217  18.185  0.00  0.00    +0.000 A 
ATOM      4  C   UNL     1       3.025   5.122  19.043  0.00  0.00    +0.000 A 
ATOM      5  O   UNL     1       1.927   5.026  19.864  0.00  0.00    +0.000 OA
ATOM      6  C   UNL     1       1.871   3.957  20.727  0.00  0.00    +0.000 A 
ATOM      7  C   UNL     1       2.781   2.986  20.836  0.00  0.00    +0.000 A 
ATOM      8  C   UNL     1       3.968   3.034  19.969  0.00  0.00    +0.000 A 
ATOM      9  O   UNL     1       4.827   2.170  20.025  0.00  0.00    +0.000 OA
ATOM     10  C   UNL     1       4.051   4.181  19.049  0.00  0.00    +0.000 A 
ATOM     11  C   UNL     1       5.156   4.321  18.203  0.00  0.00    +0.000 A 
ENDROOT
BRANCH   1  12
ATOM     12  O   UNL     1       6.272   5.684  16.496  0.00  0.00    +0.000 OA
BRANCH  12  13
ATOM     13  C   UNL     1       6.865   4.550  15.850  0.00  0.00    +0.000 C 
BRANCH  13  14
ATOM     14  C   UNL     1       6.724   4.738  14.348  0.00  0.00    +0.000 C 
BRANCH  14  15
ATOM     15  C   UNL     1       5.715   3.769  13.715  0.00  0.00    +0.000 C 
BRANCH  15  16
ATOM     16  N   UNL     1       5.815   3.633  12.250  0.00  0.00    +0.000 NA
BRANCH  16  18
ATOM     17  C   UNL     1       7.183   1.869  11.046  0.00  0.00    +0.000 C 
ATOM     18  C   UNL     1       7.151   3.168  11.841  0.00  0.00    +0.000 C 
ENDBRANCH  16  18
BRANCH  16  19
ATOM     19  C   UNL     1       4.710   2.820  11.706  0.00  0.00    +0.000 C 
ATOM     20  C   UNL     1       3.773   3.521  10.725  0.00  0.00    +0.000 C 
ENDBRANCH  16  19
ENDBRANCH  15  16
ENDBRANCH  14  15
ENDBRANCH  13  14
ENDBRANCH  12  13
ENDBRANCH   1  12
TORSDOF 7
ENDMDL
MODEL 6
REMARK VINA RESULT:      -6.0      3.968      7.773
REMARK  Name = 
REMARK  9 active torsions:
REMARK  status: ('A' for Active; 'I' for Inactive)
REMARK    1  A    between atoms: C_1  and  C_2
REMARK    2  A    between atoms: C_2  and  N_3
REMARK    3  A    between atoms: N_3  and  C_4
REMARK    4  A    between atoms: N_3  and  C_6
REMARK    5  A    between atoms: C_4  and  C_5
REMARK    6  A    between atoms: C_6  and  C_7
REMARK    7  A    between atoms: C_7  and  C_8
REMARK    8  A    between atoms: C_8  and  O_9
REMARK    9  A    between atoms: O_9  and  C_10
REMARK                            x       y       z     vdW  Elec       q    Type
REMARK                         _______ _______ _______ _____ _____    ______ ____
ROOT
ATOM      1  C   UNL     1       6.359   6.804  17.040  0.00  0.00    +0.000 A 
ATOM      2  C   UNL     1       7.002   5.591  16.762  0.00  0.00    +0.000 A 
ATOM      3  C   UNL     1       6.305   4.381  16.834  0.00  0.00    +0.000 A 
ATOM      4  C   UNL     1       4.956   4.385  17.180  0.00  0.00    +0.000 A 
ATOM      5  O   UNL     1       4.307   3.174  17.223  0.00  0.00    +0.000 OA
ATOM      6  C   UNL     1       2.969   3.182  17.542  0.00  0.00    +0.000 A 
ATOM      7  C   UNL     1       2.236   4.259  17.832  0.00  0.00    +0.000 A 
ATOM      8  C   UNL     1       2.887   5.578  17.815  0.00  0.00    +0.000 A 
ATOM      9  O   UNL     1       2.264   6.594  18.076  0.00  0.00    +0.000 OA
ATOM     10  C   UNL     1       4.317   5.589  17.460  0.00  0.00    +0.000 A 
ATOM     11  C   UNL     1       5.013   6.801  17.397  0.00  0.00    +0.000 A 
ENDROOT
BRANCH   1  12
ATOM     12  O   UNL     1       7.142   7.920  16.917  0.00  0.00    +0.000 OA
BRANCH  12  13
ATOM     13  C   UNL     1       8.089   8.148  17.969  0.00  0.00    +0.000 C 
BRANCH  13  14
ATOM     14  C   UNL     1       8.420   9.632  17.991  0.00  0.00    +0.000 C 
BRANCH  14  15
ATOM     15  C   UNL     1       9.193  10.055  19.247  0.00  0.00    +0.000 C 
BRANCH  15  16
ATOM     16  N   UNL     1       9.848  11.373  19.163  0.00  0.00    +0.000 NA
BRANCH  16  18
ATOM     17  C   UNL     1       9.912  12.429  21.467  0.00  0.00    +0.000 C 
ATOM     18  C   UNL     1      10.639  11.661  20.371  0.00  0.00    +0.000 C 
ENDBRANCH  16  18
BRANCH  16  19
ATOM     19  C   UNL     1      10.607  11.520  17.905  0.00  0.00    +0.000 C 
ATOM     20  C   UNL     1      11.802  12.471  17.942  0.00  0.00    +0.000 C 
ENDBRANCH  16  19
ENDBRANCH  15  16
ENDBRANCH  14  15
ENDBRANCH  13  14
ENDBRANCH  12  13
ENDBRANCH   1  12
TORSDOF 7
ENDMDL
MODEL 7
REMARK VINA RESULT:      -5.8      2.336      5.371
REMARK  Name = 
REMARK  9 active torsions:
REMARK  status: ('A' for Active; 'I' for Inactive)
REMARK    1  A    between atoms: C_1  and  C_2
REMARK    2  A    between atoms: C_2  and  N_3
REMARK    3  A    between atoms: N_3  and  C_4
REMARK    4  A    between atoms: N_3  and  C_6
REMARK    5  A    between atoms: C_4  and  C_5
REMARK    6  A    between atoms: C_6  and  C_7
REMARK    7  A    between atoms: C_7  and  C_8
REMARK    8  A    between atoms: C_8  and  O_9
REMARK    9  A    between atoms: O_9  and  C_10
REMARK                            x       y       z     vdW  Elec       q    Type
REMARK                         _______ _______ _______ _____ _____    ______ ____
ROOT
ATOM      1  C   UNL     1       4.297   3.319  17.230  0.00  0.00    +0.000 A 
ATOM      2  C   UNL     1       3.060   3.764  16.748  0.00  0.00    +0.000 A 
ATOM      3  C   UNL     1       1.939   3.800  17.584  0.00  0.00    +0.000 A 
ATOM      4  C   UNL     1       2.057   3.392  18.910  0.00  0.00    +0.000 A 
ATOM      5  O   UNL     1       0.934   3.458  19.699  0.00  0.00    +0.000 OA
ATOM      6  C   UNL     1       1.059   3.078  21.015  0.00  0.00    +0.000 A 
ATOM      7  C   UNL     1       2.172   2.631  21.602  0.00  0.00    +0.000 A 
ATOM      8  C   UNL     1       3.398   2.527  20.798  0.00  0.00    +0.000 A 
ATOM      9  O   UNL     1       4.441   2.121  21.284  0.00  0.00    +0.000 OA
ATOM     10  C   UNL     1       3.286   2.945  19.390  0.00  0.00    +0.000 A 
ATOM     11  C   UNL     1       4.407   2.901  18.555  0.00  0.00    +0.000 A 
ENDROOT
BRANCH   1  12
ATOM     12  O   UNL     1       5.321   3.348  16.323  0.00  0.00    +0.000 OA
BRANCH  12  13
ATOM     13  C   UNL     1       5.115   4.164  15.162  0.00  0.00    +0.000 C 
BRANCH  13  14
ATOM     14  C   UNL     1       5.969   5.414  15.309  0.00  0.00    +0.000 C 
BRANCH  14  15
ATOM     15  C   UNL     1       5.153   6.653  15.703  0.00  0.00    +0.000 C 
BRANCH  15  16
ATOM     16  N   UNL     1       5.353   7.117  17.089  0.00  0.00    +0.000 NA
BRANCH  16  18
ATOM     17  C   UNL     1       3.021   7.795  17.819  0.00  0.00    +0.000 C 
ATOM     18  C   UNL     1       4.184   6.817  17.933  0.00  0.00    +0.000 C 
ENDBRANCH  16  18
BRANCH  16  19
ATOM     19  C   UNL     1       6.630   6.626  17.644  0.00  0.00    +0.000 C 
ATOM     20  C   UNL     1       7.766   7.643  17.730  0.00  0.00    +0.000 C 
ENDBRANCH  16  19
ENDBRANCH  15  16
ENDBRANCH  14  15
ENDBRANCH  13  14
ENDBRANCH  12  13
ENDBRANCH   1  12
TORSDOF 7
ENDMDL
MODEL 8
REMARK VINA RESULT:      -5.8      2.501      3.898
REMARK  Name = 
REMARK  9 active torsions:
REMARK  status: ('A' for Active; 'I' for Inactive)
REMARK    1  A    between atoms: C_1  and  C_2
REMARK    2  A    between atoms: C_2  and  N_3
REMARK    3  A    between atoms: N_3  and  C_4
REMARK    4  A    between atoms: N_3  and  C_6
REMARK    5  A    between atoms: C_4  and  C_5
REMARK    6  A    between atoms: C_6  and  C_7
REMARK    7  A    between atoms: C_7  and  C_8
REMARK    8  A    between atoms: C_8  and  O_9
REMARK    9  A    between atoms: O_9  and  C_10
REMARK                            x       y       z     vdW  Elec       q    Type
REMARK                         _______ _______ _______ _____ _____    ______ ____
ROOT
ATOM      1  C   UNL     1       5.348   4.179  16.800  0.00  0.00    +0.000 A 
ATOM      2  C   UNL     1       6.339   5.091  17.181  0.00  0.00    +0.000 A 
ATOM      3  C   UNL     1       7.263   5.573  16.249  0.00  0.00    +0.000 A 
ATOM      4  C   UNL     1       7.192   5.143  14.926  0.00  0.00    +0.000 A 
ATOM      5  O   UNL     1       8.111   5.654  14.040  0.00  0.00    +0.000 OA
ATOM      6  C   UNL     1       8.025   5.246  12.730  0.00  0.00    +0.000 A 
ATOM      7  C   UNL     1       7.137   4.381  12.232  0.00  0.00    +0.000 A 
ATOM      8  C   UNL     1       6.142   3.793  13.142  0.00  0.00    +0.000 A 
ATOM      9  O   UNL     1       5.311   2.996  12.740  0.00  0.00    +0.000 OA
ATOM     10  C   UNL     1       6.210   4.232  14.546  0.00  0.00    +0.000 A 
ATOM     11  C   UNL     1       5.289   3.743  15.478  0.00  0.00    +0.000 A 
ENDROOT
BRANCH   1  12
ATOM     12  O   UNL     1       4.492   3.796  17.798  0.00  0.00    +0.000 OA
BRANCH  12  13
ATOM     13  C   UNL     1       3.816   2.547  17.607  0.00  0.00    +0.000 C 
BRANCH  13  14
ATOM     14  C   UNL     1       2.320   2.821  17.585  0.00  0.00    +0.000 C 
BRANCH  14  15
ATOM     15  C   UNL     1       1.953   4.191  18.170  0.00  0.00    +0.000 C 
BRANCH  15  16
ATOM     16  N   UNL     1       2.122   4.311  19.631  0.00  0.00    +0.000 NA
BRANCH  16  18
ATOM     17  C   UNL     1       2.490   6.708  18.890  0.00  0.00    +0.000 C 
ATOM     18  C   UNL     1       2.386   5.704  20.030  0.00  0.00    +0.000 C 
ENDBRANCH  16  18
BRANCH  16  19
ATOM     19  C   UNL     1       0.999   3.686  20.357  0.00  0.00    +0.000 C 
ATOM     20  C   UNL     1       1.372   2.770  21.521  0.00  0.00    +0.000 C 
ENDBRANCH  16  19
ENDBRANCH  15  16
ENDBRANCH  14  15
ENDBRANCH  13  14
ENDBRANCH  12  13
ENDBRANCH   1  12
TORSDOF 7
ENDMDL
MODEL 9
REMARK VINA RESULT:      -5.8      3.221      6.102
REMARK  Name = 
REMARK  9 active torsions:
REMARK  status: ('A' for Active; 'I' for Inactive)
REMARK    1  A    between atoms: C_1  and  C_2
REMARK    2  A    between atoms: C_2  and  N_3
REMARK    3  A    between atoms: N_3  and  C_4
REMARK    4  A    between atoms: N_3  and  C_6
REMARK    5  A    between atoms: C_4  and  C_5
REMARK    6  A    between atoms: C_6  and  C_7
REMARK    7  A    between atoms: C_7  and  C_8
REMARK    8  A    between atoms: C_8  and  O_9
REMARK    9  A    between atoms: O_9  and  C_10
REMARK                            x       y       z     vdW  Elec       q    Type
REMARK                         _______ _______ _______ _____ _____    ______ ____
ROOT
ATOM      1  C   UNL     1       3.077   5.794  18.799  0.00  0.00    +0.000 A 
ATOM      2  C   UNL     1       2.589   5.480  20.073  0.00  0.00    +0.000 A 
ATOM      3  C   UNL     1       1.830   6.406  20.795  0.00  0.00    +0.000 A 
ATOM      4  C   UNL     1       1.554   7.653  20.237  0.00  0.00    +0.000 A 
ATOM      5  O   UNL     1       0.792   8.526  20.976  0.00  0.00    +0.000 OA
ATOM      6  C   UNL     1       0.501   9.747  20.414  0.00  0.00    +0.000 A 
ATOM      7  C   UNL     1       0.903  10.177  19.215  0.00  0.00    +0.000 A 
ATOM      8  C   UNL     1       1.735   9.286  18.391  0.00  0.00    +0.000 A 
ATOM      9  O   UNL     1       2.133   9.631  17.291  0.00  0.00    +0.000 OA
ATOM     10  C   UNL     1       2.043   7.968  18.972  0.00  0.00    +0.000 A 
ATOM     11  C   UNL     1       2.808   7.046  18.250  0.00  0.00    +0.000 A 
ENDROOT
BRANCH   1  12
ATOM     12  O   UNL     1       3.789   4.799  18.186  0.00  0.00    +0.000 OA
BRANCH  12  13
ATOM     13  C   UNL     1       4.775   4.139  18.989  0.00  0.00    +0.000 C 
BRANCH  13  14
ATOM     14  C   UNL     1       6.012   5.023  19.037  0.00  0.00    +0.000 C 
BRANCH  14  15
ATOM     15  C   UNL     1       6.965   4.783  17.858  0.00  0.00    +0.000 C 
BRANCH  15  16
ATOM     16  N   UNL     1       6.943   5.826  16.816  0.00  0.00    +0.000 NA
BRANCH  16  18
ATOM     17  C   UNL     1       6.775   4.728  14.536  0.00  0.00    +0.000 C 
ATOM     18  C   UNL     1       6.078   5.442  15.687  0.00  0.00    +0.000 C 
ENDBRANCH  16  18
BRANCH  16  19
ATOM     19  C   UNL     1       6.628   7.151  17.384  0.00  0.00    +0.000 C 
ATOM     20  C   UNL     1       7.807   8.101  17.580  0.00  0.00    +0.000 C 
ENDBRANCH  16  19
ENDBRANCH  15  16
ENDBRANCH  14  15
ENDBRANCH  13  14
ENDBRANCH  12  13
ENDBRANCH   1  12
TORSDOF 7
ENDMDL
