MODEL 1
REMARK VINA RESULT:      -8.6      0.000      0.000
REMARK  Name = 
REMARK  6 active torsions:
REMARK  status: ('A' for Active; 'I' for Inactive)
REMARK    1  A    between atoms: N_1  and  C_2
REMARK    2  A    between atoms: C_3  and  S_4
REMARK    3  A    between atoms: S_4  and  O_7
REMARK    4  A    between atoms: C_9  and  N_10
REMARK    5  A    between atoms: N_10  and  C_11
REMARK    6  A    between atoms: C_15  and  C_16
REMARK                            x       y       z     vdW  Elec       q    Type
REMARK                         _______ _______ _______ _____ _____    ______ ____
ROOT
ATOM      1  C   UNL     1       2.523   5.092  20.226  0.00  0.00    +0.000 A 
ATOM      2  C   UNL     1       3.336   4.240  19.472  0.00  0.00    +0.000 A 
ATOM      3  C   UNL     1       3.928   4.676  18.282  0.00  0.00    +0.000 A 
ATOM      4  C   UNL     1       3.693   5.953  17.761  0.00  0.00    +0.000 A 
ATOM      5  C   UNL     1       2.866   6.829  18.500  0.00  0.00    +0.000 A 
ATOM      6  C   UNL     1       2.285   6.400  19.712  0.00  0.00    +0.000 A 
ATOM      7  C   UNL     1       1.458   7.359  20.498  0.00  0.00    +0.000 C 
ATOM      8  O   UNL     1       1.014   7.057  21.603  0.00  0.00    +0.000 OA
ATOM      9  C   UNL     1       1.192   8.710  19.984  0.00  0.00    +0.000 A 
ATOM     10  C   UNL     1       0.400   9.593  20.733  0.00  0.00    +0.000 A 
ATOM     11  C   UNL     1       0.164  10.888  20.272  0.00  0.00    +0.000 A 
ATOM     12  C   UNL     1       0.712  11.302  19.061  0.00  0.00    +0.000 A 
ATOM     13  C   UNL     1       1.499  10.423  18.313  0.00  0.00    +0.000 A 
ATOM     14  C   UNL     1       1.744   9.123  18.778  0.00  0.00    +0.000 A 
ATOM     15  C   UNL     1       2.607   8.210  18.005  0.00  0.00    +0.000 C 
ATOM     16  O   UNL     1       3.119   8.612  16.964  0.00  0.00    +0.000 OA
ENDROOT
BRANCH   1  17
ATOM     17  N   UNL     1       1.786   4.616  21.329  0.00  0.00    +0.000 N 
ATOM     18  H   UNL     1       0.885   5.077  21.477  0.00  0.00    +0.000 HD
ATOM     19  H   UNL     1       1.673   3.590  21.317  0.00  0.00    +0.000 HD
ENDBRANCH   1  17
BRANCH   2  20
ATOM     20  S   UNL     1       3.696   2.557  19.912  0.00  0.00    +0.000 S 
ATOM     21  O   UNL     1       3.522   2.460  21.346  0.00  0.00    +0.000 OA
ATOM     22  O   UNL     1       2.969   1.718  18.984  0.00  0.00    +0.000 OA
BRANCH  20  23
ATOM     23  O   UNL     1       5.270   2.327  19.655  0.00  0.00    +0.000 OA
ATOM     24  H   UNL     1       5.729   3.169  19.868  0.00  0.00    +0.000 HD
ENDBRANCH  20  23
ENDBRANCH   2  20
BRANCH   4  25
ATOM     25  N   UNL     1       4.282   6.319  16.530  0.00  0.00    +0.000 N 
ATOM     26  H   UNL     1       3.743   7.007  15.994  0.00  0.00    +0.000 HD
BRANCH  25  27
ATOM     27  C   UNL     1       5.313   5.701  15.797  0.00  0.00    +0.000 A 
ATOM     28  C   UNL     1       6.610   5.682  16.320  0.00  0.00    +0.000 A 
ATOM     29  C   UNL     1       7.636   4.991  15.670  0.00  0.00    +0.000 A 
ATOM     30  C   UNL     1       7.380   4.316  14.476  0.00  0.00    +0.000 A 
ATOM     31  C   UNL     1       6.096   4.335  13.918  0.00  0.00    +0.000 A 
ATOM     32  C   UNL     1       5.077   5.034  14.588  0.00  0.00    +0.000 A 
BRANCH  31  33
ATOM     33  C   UNL     1       5.783   3.617  12.629  0.00  0.00    +0.000 C 
ATOM     34  F   UNL     1       6.000   2.274  12.686  0.00  0.00    +0.000 F 
ATOM     35  F   UNL     1       4.486   3.770  12.250  0.00  0.00    +0.000 F 
ATOM     36  F   UNL     1       6.533   4.071  11.586  0.00  0.00    +0.000 F 
ENDBRANCH  31  33
ENDBRANCH  25  27
ENDBRANCH   4  25
TORSDOF 6
ENDMDL
MODEL 2
REMARK VINA RESULT:      -7.7      5.425      8.383
REMARK  Name = 
REMARK  6 active torsions:
REMARK  status: ('A' for Active; 'I' for Inactive)
REMARK    1  A    between atoms: N_1  and  C_2
REMARK    2  A    between atoms: C_3  and  S_4
REMARK    3  A    between atoms: S_4  and  O_7
REMARK    4  A    between atoms: C_9  and  N_10
REMARK    5  A    between atoms: N_10  and  C_11
REMARK    6  A    between atoms: C_15  and  C_16
REMARK                            x       y       z     vdW  Elec       q    Type
REMARK                         _______ _______ _______ _____ _____    ______ ____
ROOT
ATOM      1  C   UNL     1      -1.107  14.139  19.842  0.00  0.00    +0.000 A 
ATOM      2  C   UNL     1      -1.826  12.943  19.749  0.00  0.00    +0.000 A 
ATOM      3  C   UNL     1      -1.232  11.784  19.239  0.00  0.00    +0.000 A 
ATOM      4  C   UNL     1       0.079  11.776  18.749  0.00  0.00    +0.000 A 
ATOM      5  C   UNL     1       0.822  12.975  18.824  0.00  0.00    +0.000 A 
ATOM      6  C   UNL     1       0.233  14.141  19.358  0.00  0.00    +0.000 A 
ATOM      7  C   UNL     1       1.054  15.380  19.472  0.00  0.00    +0.000 C 
ATOM      8  O   UNL     1       0.610  16.387  20.019  0.00  0.00    +0.000 OA
ATOM      9  C   UNL     1       2.436  15.408  18.972  0.00  0.00    +0.000 A 
ATOM     10  C   UNL     1       3.186  16.588  19.077  0.00  0.00    +0.000 A 
ATOM     11  C   UNL     1       4.508  16.622  18.634  0.00  0.00    +0.000 A 
ATOM     12  C   UNL     1       5.080  15.480  18.078  0.00  0.00    +0.000 A 
ATOM     13  C   UNL     1       4.333  14.304  17.971  0.00  0.00    +0.000 A 
ATOM     14  C   UNL     1       3.006  14.267  18.423  0.00  0.00    +0.000 A 
ATOM     15  C   UNL     1       2.231  13.014  18.344  0.00  0.00    +0.000 C 
ATOM     16  O   UNL     1       2.772  12.007  17.895  0.00  0.00    +0.000 OA
ENDROOT
BRANCH   1  17
ATOM     17  N   UNL     1      -1.741  15.349  20.190  0.00  0.00    +0.000 N 
ATOM     18  H   UNL     1      -2.751  15.369  20.031  0.00  0.00    +0.000 HD
ATOM     19  H   UNL     1      -1.517  15.651  21.151  0.00  0.00    +0.000 HD
ENDBRANCH   1  17
BRANCH   2  20
ATOM     20  S   UNL     1      -3.524  12.759  20.238  0.00  0.00    +0.000 S 
ATOM     21  O   UNL     1      -4.128  11.843  19.294  0.00  0.00    +0.000 OA
ATOM     22  O   UNL     1      -3.524  12.514  21.664  0.00  0.00    +0.000 OA
BRANCH  20  23
ATOM     23  O   UNL     1      -4.247  14.177  19.982  0.00  0.00    +0.000 OA
ATOM     24  H   UNL     1      -4.765  14.097  19.152  0.00  0.00    +0.000 HD
ENDBRANCH  20  23
ENDBRANCH   2  20
BRANCH   4  25
ATOM     25  N   UNL     1       0.607  10.585  18.204  0.00  0.00    +0.000 N 
ATOM     26  H   UNL     1       0.339  10.415  17.227  0.00  0.00    +0.000 HD
BRANCH  25  27
ATOM     27  C   UNL     1       1.187   9.471  18.841  0.00  0.00    +0.000 A 
ATOM     28  C   UNL     1       0.888   9.218  20.183  0.00  0.00    +0.000 A 
ATOM     29  C   UNL     1       1.364   8.067  20.819  0.00  0.00    +0.000 A 
ATOM     30  C   UNL     1       2.157   7.158  20.121  0.00  0.00    +0.000 A 
ATOM     31  C   UNL     1       2.490   7.396  18.782  0.00  0.00    +0.000 A 
ATOM     32  C   UNL     1       2.000   8.557  18.159  0.00  0.00    +0.000 A 
BRANCH  31  33
ATOM     33  C   UNL     1       3.346   6.434  17.996  0.00  0.00    +0.000 C 
ATOM     34  F   UNL     1       3.932   6.995  16.902  0.00  0.00    +0.000 F 
ATOM     35  F   UNL     1       4.361   5.916  18.738  0.00  0.00    +0.000 F 
ATOM     36  F   UNL     1       2.638   5.366  17.534  0.00  0.00    +0.000 F 
ENDBRANCH  31  33
ENDBRANCH  25  27
ENDBRANCH   4  25
TORSDOF 6
ENDMDL
MODEL 3
REMARK VINA RESULT:      -7.6      6.440      9.516
REMARK  Name = 
REMARK  6 active torsions:
REMARK  status: ('A' for Active; 'I' for Inactive)
REMARK    1  A    between atoms: N_1  and  C_2
REMARK    2  A    between atoms: C_3  and  S_4
REMARK    3  A    between atoms: S_4  and  O_7
REMARK    4  A    between atoms: C_9  and  N_10
REMARK    5  A    between atoms: N_10  and  C_11
REMARK    6  A    between atoms: C_15  and  C_16
REMARK                            x       y       z     vdW  Elec       q    Type
REMARK                         _______ _______ _______ _____ _____    ______ ____
ROOT
ATOM      1  C   UNL     1      -0.180  10.222  21.760  0.00  0.00    +0.000 A 
ATOM      2  C   UNL     1      -0.556  11.561  21.614  0.00  0.00    +0.000 A 
ATOM      3  C   UNL     1      -0.181  12.295  20.483  0.00  0.00    +0.000 A 
ATOM      4  C   UNL     1       0.628  11.751  19.481  0.00  0.00    +0.000 A 
ATOM      5  C   UNL     1       1.030  10.402  19.611  0.00  0.00    +0.000 A 
ATOM      6  C   UNL     1       0.635   9.652  20.739  0.00  0.00    +0.000 A 
ATOM      7  C   UNL     1       1.029   8.217  20.828  0.00  0.00    +0.000 C 
ATOM      8  O   UNL     1       0.626   7.504  21.744  0.00  0.00    +0.000 OA
ATOM      9  C   UNL     1       1.876   7.611  19.791  0.00  0.00    +0.000 A 
ATOM     10  C   UNL     1       2.246   6.262  19.901  0.00  0.00    +0.000 A 
ATOM     11  C   UNL     1       3.025   5.665  18.911  0.00  0.00    +0.000 A 
ATOM     12  C   UNL     1       3.440   6.413  17.812  0.00  0.00    +0.000 A 
ATOM     13  C   UNL     1       3.074   7.757  17.702  0.00  0.00    +0.000 A 
ATOM     14  C   UNL     1       2.285   8.357  18.694  0.00  0.00    +0.000 A 
ATOM     15  C   UNL     1       1.867   9.765  18.557  0.00  0.00    +0.000 C 
ATOM     16  O   UNL     1       2.205  10.392  17.557  0.00  0.00    +0.000 OA
ENDROOT
BRANCH   1  17
ATOM     17  N   UNL     1      -0.402   9.526  22.965  0.00  0.00    +0.000 N 
ATOM     18  H   UNL     1      -1.147   8.826  22.927  0.00  0.00    +0.000 HD
ATOM     19  H   UNL     1       0.463   9.118  23.352  0.00  0.00    +0.000 HD
ENDBRANCH   1  17
BRANCH   2  20
ATOM     20  S   UNL     1      -1.512  12.464  22.808  0.00  0.00    +0.000 S 
ATOM     21  O   UNL     1      -2.366  11.499  23.467  0.00  0.00    +0.000 OA
ATOM     22  O   UNL     1      -0.586  13.305  23.536  0.00  0.00    +0.000 OA
BRANCH  20  23
ATOM     23  O   UNL     1      -2.509  13.427  21.985  0.00  0.00    +0.000 OA
ATOM     24  H   UNL     1      -2.238  14.354  22.166  0.00  0.00    +0.000 HD
ENDBRANCH  20  23
ENDBRANCH   2  20
BRANCH   4  25
ATOM     25  N   UNL     1       1.012  12.558  18.386  0.00  0.00    +0.000 N 
ATOM     26  H   UNL     1       0.907  12.103  17.472  0.00  0.00    +0.000 HD
BRANCH  25  27
ATOM     27  C   UNL     1       1.767  13.746  18.352  0.00  0.00    +0.000 A 
ATOM     28  C   UNL     1       3.155  13.671  18.200  0.00  0.00    +0.000 A 
ATOM     29  C   UNL     1       3.925  14.829  18.061  0.00  0.00    +0.000 A 
ATOM     30  C   UNL     1       3.315  16.083  18.082  0.00  0.00    +0.000 A 
ATOM     31  C   UNL     1       1.930  16.189  18.254  0.00  0.00    +0.000 A 
ATOM     32  C   UNL     1       1.172  15.013  18.390  0.00  0.00    +0.000 A 
BRANCH  31  33
ATOM     33  C   UNL     1       1.237  17.529  18.283  0.00  0.00    +0.000 C 
ATOM     34  F   UNL     1       1.473  18.289  17.178  0.00  0.00    +0.000 F 
ATOM     35  F   UNL     1      -0.116  17.413  18.373  0.00  0.00    +0.000 F 
ATOM     36  F   UNL     1       1.618  18.288  19.347  0.00  0.00    +0.000 F 
ENDBRANCH  31  33
ENDBRANCH  25  27
ENDBRANCH   4  25
TORSDOF 6
ENDMDL
MODEL 4
REMARK VINA RESULT:      -7.6      5.453      8.197
REMARK  Name = 
REMARK  6 active torsions:
REMARK  status: ('A' for Active; 'I' for Inactive)
REMARK    1  A    between atoms: N_1  and  C_2
REMARK    2  A    between atoms: C_3  and  S_4
REMARK    3  A    between atoms: S_4  and  O_7
REMARK    4  A    between atoms: C_9  and  N_10
REMARK    5  A    between atoms: N_10  and  C_11
REMARK    6  A    between atoms: C_15  and  C_16
REMARK                            x       y       z     vdW  Elec       q    Type
REMARK                         _______ _______ _______ _____ _____    ______ ____
ROOT
ATOM      1  C   UNL     1      -3.494  11.881  18.517  0.00  0.00    +0.000 A 
ATOM      2  C   UNL     1      -2.738  11.070  17.664  0.00  0.00    +0.000 A 
ATOM      3  C   UNL     1      -1.441  10.674  18.011  0.00  0.00    +0.000 A 
ATOM      4  C   UNL     1      -0.821  11.111  19.186  0.00  0.00    +0.000 A 
ATOM      5  C   UNL     1      -1.561  11.940  20.059  0.00  0.00    +0.000 A 
ATOM      6  C   UNL     1      -2.877  12.323  19.723  0.00  0.00    +0.000 A 
ATOM      7  C   UNL     1      -3.655  13.156  20.684  0.00  0.00    +0.000 C 
ATOM      8  O   UNL     1      -4.835  13.431  20.475  0.00  0.00    +0.000 OA
ATOM      9  C   UNL     1      -3.037  13.630  21.930  0.00  0.00    +0.000 A 
ATOM     10  C   UNL     1      -3.783  14.424  22.814  0.00  0.00    +0.000 A 
ATOM     11  C   UNL     1      -3.220  14.858  24.014  0.00  0.00    +0.000 A 
ATOM     12  C   UNL     1      -1.911  14.505  24.331  0.00  0.00    +0.000 A 
ATOM     13  C   UNL     1      -1.166  13.716  23.451  0.00  0.00    +0.000 A 
ATOM     14  C   UNL     1      -1.733  13.273  22.247  0.00  0.00    +0.000 A 
ATOM     15  C   UNL     1      -0.959  12.409  21.337  0.00  0.00    +0.000 C 
ATOM     16  O   UNL     1       0.177  12.070  21.659  0.00  0.00    +0.000 OA
ENDROOT
BRANCH   1  17
ATOM     17  N   UNL     1      -4.727  12.426  18.106  0.00  0.00    +0.000 N 
ATOM     18  H   UNL     1      -4.834  13.428  18.277  0.00  0.00    +0.000 HD
ATOM     19  H   UNL     1      -4.955  12.197  17.127  0.00  0.00    +0.000 HD
ENDBRANCH   1  17
BRANCH   2  20
ATOM     20  S   UNL     1      -3.306  10.474  16.091  0.00  0.00    +0.000 S 
ATOM     21  O   UNL     1      -2.999  11.506  15.124  0.00  0.00    +0.000 OA
ATOM     22  O   UNL     1      -2.820   9.117  15.958  0.00  0.00    +0.000 OA
BRANCH  20  23
ATOM     23  O   UNL     1      -4.915  10.415  16.160  0.00  0.00    +0.000 OA
ATOM     24  H   UNL     1      -5.171   9.471  16.248  0.00  0.00    +0.000 HD
ENDBRANCH  20  23
ENDBRANCH   2  20
BRANCH   4  25
ATOM     25  N   UNL     1       0.508  10.714  19.457  0.00  0.00    +0.000 N 
ATOM     26  H   UNL     1       1.216  11.411  19.200  0.00  0.00    +0.000 HD
BRANCH  25  27
ATOM     27  C   UNL     1       1.036   9.440  19.745  0.00  0.00    +0.000 A 
ATOM     28  C   UNL     1       0.699   8.816  20.949  0.00  0.00    +0.000 A 
ATOM     29  C   UNL     1       1.121   7.512  21.224  0.00  0.00    +0.000 A 
ATOM     30  C   UNL     1       1.899   6.817  20.298  0.00  0.00    +0.000 A 
ATOM     31  C   UNL     1       2.270   7.425  19.092  0.00  0.00    +0.000 A 
ATOM     32  C   UNL     1       1.834   8.736  18.833  0.00  0.00    +0.000 A 
BRANCH  31  33
ATOM     33  C   UNL     1       3.111   6.705  18.069  0.00  0.00    +0.000 C 
ATOM     34  F   UNL     1       2.459   5.681  17.450  0.00  0.00    +0.000 F 
ATOM     35  F   UNL     1       3.539   7.529  17.074  0.00  0.00    +0.000 F 
ATOM     36  F   UNL     1       4.234   6.158  18.611  0.00  0.00    +0.000 F 
ENDBRANCH  31  33
ENDBRANCH  25  27
ENDBRANCH   4  25
TORSDOF 6
ENDMDL
MODEL 5
REMARK VINA RESULT:      -7.6      5.712      8.261
REMARK  Name = 
REMARK  6 active torsions:
REMARK  status: ('A' for Active; 'I' for Inactive)
REMARK    1  A    between atoms: N_1  and  C_2
REMARK    2  A    between atoms: C_3  and  S_4
REMARK    3  A    between atoms: S_4  and  O_7
REMARK    4  A    between atoms: C_9  and  N_10
REMARK    5  A    between atoms: N_10  and  C_11
REMARK    6  A    between atoms: C_15  and  C_16
REMARK                            x       y       z     vdW  Elec       q    Type
REMARK                         _______ _______ _______ _____ _____    ______ ____
ROOT
ATOM      1  C   UNL     1      -3.405  11.941  18.702  0.00  0.00    +0.000 A 
ATOM      2  C   UNL     1      -2.699  11.021  17.920  0.00  0.00    +0.000 A 
ATOM      3  C   UNL     1      -1.461  10.521  18.339  0.00  0.00    +0.000 A 
ATOM      4  C   UNL     1      -0.847  10.955  19.519  0.00  0.00    +0.000 A 
ATOM      5  C   UNL     1      -1.536  11.892  20.321  0.00  0.00    +0.000 A 
ATOM      6  C   UNL     1      -2.795  12.381  19.913  0.00  0.00    +0.000 A 
ATOM      7  C   UNL     1      -3.525  13.330  20.801  0.00  0.00    +0.000 C 
ATOM      8  O   UNL     1      -4.664  13.705  20.529  0.00  0.00    +0.000 OA
ATOM      9  C   UNL     1      -2.912  13.805  22.050  0.00  0.00    +0.000 A 
ATOM     10  C   UNL     1      -3.611  14.708  22.864  0.00  0.00    +0.000 A 
ATOM     11  C   UNL     1      -3.056  15.144  24.066  0.00  0.00    +0.000 A 
ATOM     12  C   UNL     1      -1.799  14.685  24.454  0.00  0.00    +0.000 A 
ATOM     13  C   UNL     1      -1.102  13.786  23.643  0.00  0.00    +0.000 A 
ATOM     14  C   UNL     1      -1.662  13.341  22.437  0.00  0.00    +0.000 A 
ATOM     15  C   UNL     1      -0.941  12.364  21.601  0.00  0.00    +0.000 C 
ATOM     16  O   UNL     1       0.144  11.935  21.987  0.00  0.00    +0.000 OA
ENDROOT
BRANCH   1  17
ATOM     17  N   UNL     1      -4.563  12.579  18.215  0.00  0.00    +0.000 N 
ATOM     18  H   UNL     1      -4.395  13.459  17.722  0.00  0.00    +0.000 HD
ATOM     19  H   UNL     1      -5.154  11.951  17.650  0.00  0.00    +0.000 HD
ENDBRANCH   1  17
BRANCH   2  20
ATOM     20  S   UNL     1      -3.261  10.405  16.353  0.00  0.00    +0.000 S 
ATOM     21  O   UNL     1      -2.292   9.419  15.925  0.00  0.00    +0.000 OA
ATOM     22  O   UNL     1      -4.667  10.095  16.505  0.00  0.00    +0.000 OA
BRANCH  20  23
ATOM     23  O   UNL     1      -3.137  11.616  15.296  0.00  0.00    +0.000 OA
ATOM     24  H   UNL     1      -2.189  11.697  15.053  0.00  0.00    +0.000 HD
ENDBRANCH  20  23
ENDBRANCH   2  20
BRANCH   4  25
ATOM     25  N   UNL     1       0.426  10.447  19.864  0.00  0.00    +0.000 N 
ATOM     26  H   UNL     1       0.959  11.047  20.504  0.00  0.00    +0.000 HD
BRANCH  25  27
ATOM     27  C   UNL     1       1.190   9.425  19.269  0.00  0.00    +0.000 A 
ATOM     28  C   UNL     1       1.870   9.685  18.075  0.00  0.00    +0.000 A 
ATOM     29  C   UNL     1       2.718   8.729  17.509  0.00  0.00    +0.000 A 
ATOM     30  C   UNL     1       2.889   7.490  18.127  0.00  0.00    +0.000 A 
ATOM     31  C   UNL     1       2.205   7.194  19.312  0.00  0.00    +0.000 A 
ATOM     32  C   UNL     1       1.358   8.169  19.867  0.00  0.00    +0.000 A 
BRANCH  31  33
ATOM     33  C   UNL     1       2.364   5.865  20.007  0.00  0.00    +0.000 C 
ATOM     34  F   UNL     1       3.662   5.483  20.162  0.00  0.00    +0.000 F 
ATOM     35  F   UNL     1       1.824   5.863  21.256  0.00  0.00    +0.000 F 
ATOM     36  F   UNL     1       1.755   4.850  19.334  0.00  0.00    +0.000 F 
ENDBRANCH  31  33
ENDBRANCH  25  27
ENDBRANCH   4  25
TORSDOF 6
ENDMDL
MODEL 6
REMARK VINA RESULT:      -7.5      5.965      8.888
REMARK  Name = 
REMARK  6 active torsions:
REMARK  status: ('A' for Active; 'I' for Inactive)
REMARK    1  A    between atoms: N_1  and  C_2
REMARK    2  A    between atoms: C_3  and  S_4
REMARK    3  A    between atoms: S_4  and  O_7
REMARK    4  A    between atoms: C_9  and  N_10
REMARK    5  A    between atoms: N_10  and  C_11
REMARK    6  A    between atoms: C_15  and  C_16
REMARK                            x       y       z     vdW  Elec       q    Type
REMARK                         _______ _______ _______ _____ _____    ______ ____
ROOT
ATOM      1  C   UNL     1      -3.985  12.421  19.590  0.00  0.00    +0.000 A 
ATOM      2  C   UNL     1      -3.297  11.583  18.706  0.00  0.00    +0.000 A 
ATOM      3  C   UNL     1      -1.960  11.237  18.936  0.00  0.00    +0.000 A 
ATOM      4  C   UNL     1      -1.236  11.752  20.017  0.00  0.00    +0.000 A 
ATOM      5  C   UNL     1      -1.907  12.609  20.918  0.00  0.00    +0.000 A 
ATOM      6  C   UNL     1      -3.261  12.943  20.702  0.00  0.00    +0.000 A 
ATOM      7  C   UNL     1      -3.961  13.808  21.694  0.00  0.00    +0.000 C 
ATOM      8  O   UNL     1      -5.163  14.042  21.595  0.00  0.00    +0.000 OA
ATOM      9  C   UNL     1      -3.233  14.363  22.843  0.00  0.00    +0.000 A 
ATOM     10  C   UNL     1      -3.907  15.186  23.757  0.00  0.00    +0.000 A 
ATOM     11  C   UNL     1      -3.237  15.697  24.868  0.00  0.00    +0.000 A 
ATOM     12  C   UNL     1      -1.892  15.393  25.066  0.00  0.00    +0.000 A 
ATOM     13  C   UNL     1      -1.219  14.575  24.154  0.00  0.00    +0.000 A 
ATOM     14  C   UNL     1      -1.893  14.055  23.040  0.00  0.00    +0.000 A 
ATOM     15  C   UNL     1      -1.191  13.161  22.100  0.00  0.00    +0.000 C 
ATOM     16  O   UNL     1      -0.019  12.867  22.320  0.00  0.00    +0.000 OA
ENDROOT
BRANCH   1  17
ATOM     17  N   UNL     1      -5.269  12.913  19.282  0.00  0.00    +0.000 N 
ATOM     18  H   UNL     1      -5.815  13.228  20.088  0.00  0.00    +0.000 HD
ATOM     19  H   UNL     1      -5.250  13.638  18.549  0.00  0.00    +0.000 HD
ENDBRANCH   1  17
BRANCH   2  20
ATOM     20  S   UNL     1      -4.006  10.889  17.234  0.00  0.00    +0.000 S 
ATOM     21  O   UNL     1      -3.201   9.735  16.893  0.00  0.00    +0.000 OA
ATOM     22  O   UNL     1      -5.433  10.800  17.458  0.00  0.00    +0.000 OA
BRANCH  20  23
ATOM     23  O   UNL     1      -3.760  11.950  16.045  0.00  0.00    +0.000 OA
ATOM     24  H   UNL     1      -2.899  12.390  16.217  0.00  0.00    +0.000 HD
ENDBRANCH  20  23
ENDBRANCH   2  20
BRANCH   4  25
ATOM     25  N   UNL     1       0.124  11.402  20.168  0.00  0.00    +0.000 N 
ATOM     26  H   UNL     1       0.780  12.159  19.946  0.00  0.00    +0.000 HD
BRANCH  25  27
ATOM     27  C   UNL     1       0.730  10.136  20.289  0.00  0.00    +0.000 A 
ATOM     28  C   UNL     1       0.638   9.448  21.503  0.00  0.00    +0.000 A 
ATOM     29  C   UNL     1       1.139   8.148  21.629  0.00  0.00    +0.000 A 
ATOM     30  C   UNL     1       1.749   7.523  20.542  0.00  0.00    +0.000 A 
ATOM     31  C   UNL     1       1.873   8.196  19.321  0.00  0.00    +0.000 A 
ATOM     32  C   UNL     1       1.362   9.502  19.213  0.00  0.00    +0.000 A 
BRANCH  31  33
ATOM     33  C   UNL     1       2.527   7.552  18.125  0.00  0.00    +0.000 C 
ATOM     34  F   UNL     1       2.596   8.366  17.036  0.00  0.00    +0.000 F 
ATOM     35  F   UNL     1       3.806   7.161  18.379  0.00  0.00    +0.000 F 
ATOM     36  F   UNL     1       1.870   6.433  17.713  0.00  0.00    +0.000 F 
ENDBRANCH  31  33
ENDBRANCH  25  27
ENDBRANCH   4  25
TORSDOF 6
ENDMDL
MODEL 7
REMARK VINA RESULT:      -7.5      5.658      8.948
REMARK  Name = 
REMARK  6 active torsions:
REMARK  status: ('A' for Active; 'I' for Inactive)
REMARK    1  A    between atoms: N_1  and  C_2
REMARK    2  A    between atoms: C_3  and  S_4
REMARK    3  A    between atoms: S_4  and  O_7
REMARK    4  A    between atoms: C_9  and  N_10
REMARK    5  A    between atoms: N_10  and  C_11
REMARK    6  A    between atoms: C_15  and  C_16
REMARK                            x       y       z     vdW  Elec       q    Type
REMARK                         _______ _______ _______ _____ _____    ______ ____
ROOT
ATOM      1  C   UNL     1      -0.209  10.178  21.761  0.00  0.00    +0.000 A 
ATOM      2  C   UNL     1      -0.598  11.514  21.627  0.00  0.00    +0.000 A 
ATOM      3  C   UNL     1      -0.228  12.263  20.504  0.00  0.00    +0.000 A 
ATOM      4  C   UNL     1       0.588  11.736  19.498  0.00  0.00    +0.000 A 
ATOM      5  C   UNL     1       1.003  10.390  19.616  0.00  0.00    +0.000 A 
ATOM      6  C   UNL     1       0.613   9.625  20.736  0.00  0.00    +0.000 A 
ATOM      7  C   UNL     1       1.021   8.194  20.813  0.00  0.00    +0.000 C 
ATOM      8  O   UNL     1       0.624   7.468  21.722  0.00  0.00    +0.000 OA
ATOM      9  C   UNL     1       1.876   7.605  19.772  0.00  0.00    +0.000 A 
ATOM     10  C   UNL     1       2.259   6.260  19.870  0.00  0.00    +0.000 A 
ATOM     11  C   UNL     1       3.045   5.679  18.876  0.00  0.00    +0.000 A 
ATOM     12  C   UNL     1       3.455   6.442  17.785  0.00  0.00    +0.000 A 
ATOM     13  C   UNL     1       3.075   7.783  17.686  0.00  0.00    +0.000 A 
ATOM     14  C   UNL     1       2.279   8.366  18.683  0.00  0.00    +0.000 A 
ATOM     15  C   UNL     1       1.848   9.771  18.558  0.00  0.00    +0.000 C 
ATOM     16  O   UNL     1       2.180  10.410  17.564  0.00  0.00    +0.000 OA
ENDROOT
BRANCH   1  17
ATOM     17  N   UNL     1      -0.426   9.468  22.959  0.00  0.00    +0.000 N 
ATOM     18  H   UNL     1       0.386   8.956  23.311  0.00  0.00    +0.000 HD
ATOM     19  H   UNL     1      -0.834  10.058  23.701  0.00  0.00    +0.000 HD
ENDBRANCH   1  17
BRANCH   2  20
ATOM     20  S   UNL     1      -1.565  12.397  22.828  0.00  0.00    +0.000 S 
ATOM     21  O   UNL     1      -2.385  11.412  23.501  0.00  0.00    +0.000 OA
ATOM     22  O   UNL     1      -0.655  13.266  23.541  0.00  0.00    +0.000 OA
BRANCH  20  23
ATOM     23  O   UNL     1      -2.597  13.328  22.012  0.00  0.00    +0.000 OA
ATOM     24  H   UNL     1      -3.184  13.762  22.669  0.00  0.00    +0.000 HD
ENDBRANCH  20  23
ENDBRANCH   2  20
BRANCH   4  25
ATOM     25  N   UNL     1       0.965  12.557  18.412  0.00  0.00    +0.000 N 
ATOM     26  H   UNL     1       0.910  12.095  17.496  0.00  0.00    +0.000 HD
BRANCH  25  27
ATOM     27  C   UNL     1       1.663  13.780  18.395  0.00  0.00    +0.000 A 
ATOM     28  C   UNL     1       0.946  14.977  18.478  0.00  0.00    +0.000 A 
ATOM     29  C   UNL     1       1.609  16.205  18.566  0.00  0.00    +0.000 A 
ATOM     30  C   UNL     1       3.003  16.251  18.562  0.00  0.00    +0.000 A 
ATOM     31  C   UNL     1       3.746  15.069  18.460  0.00  0.00    +0.000 A 
ATOM     32  C   UNL     1       3.062  13.844  18.373  0.00  0.00    +0.000 A 
BRANCH  31  33
ATOM     33  C   UNL     1       5.254  15.081  18.451  0.00  0.00    +0.000 C 
ATOM     34  F   UNL     1       5.810  14.665  19.623  0.00  0.00    +0.000 F 
ATOM     35  F   UNL     1       5.776  14.276  17.486  0.00  0.00    +0.000 F 
ATOM     36  F   UNL     1       5.763  16.322  18.218  0.00  0.00    +0.000 F 
ENDBRANCH  31  33
ENDBRANCH  25  27
ENDBRANCH   4  25
TORSDOF 6
ENDMDL
MODEL 8
REMARK VINA RESULT:      -7.5      5.089      7.744
REMARK  Name = 
REMARK  6 active torsions:
REMARK  status: ('A' for Active; 'I' for Inactive)
REMARK    1  A    between atoms: N_1  and  C_2
REMARK    2  A    between atoms: C_3  and  S_4
REMARK    3  A    between atoms: S_4  and  O_7
REMARK    4  A    between atoms: C_9  and  N_10
REMARK    5  A    between atoms: N_10  and  C_11
REMARK    6  A    between atoms: C_15  and  C_16
REMARK                            x       y       z     vdW  Elec       q    Type
REMARK                         _______ _______ _______ _____ _____    ______ ____
ROOT
ATOM      1  C   UNL     1      -0.081  13.832  20.350  0.00  0.00    +0.000 A 
ATOM      2  C   UNL     1       1.280  13.568  20.166  0.00  0.00    +0.000 A 
ATOM      3  C   UNL     1       1.705  12.482  19.392  0.00  0.00    +0.000 A 
ATOM      4  C   UNL     1       0.800  11.582  18.818  0.00  0.00    +0.000 A 
ATOM      5  C   UNL     1      -0.580  11.822  18.998  0.00  0.00    +0.000 A 
ATOM      6  C   UNL     1      -1.012  12.929  19.759  0.00  0.00    +0.000 A 
ATOM      7  C   UNL     1      -2.474  13.190  19.892  0.00  0.00    +0.000 C 
ATOM      8  O   UNL     1      -2.890  14.195  20.464  0.00  0.00    +0.000 OA
ATOM      9  C   UNL     1      -3.453  12.268  19.299  0.00  0.00    +0.000 A 
ATOM     10  C   UNL     1      -4.824  12.525  19.447  0.00  0.00    +0.000 A 
ATOM     11  C   UNL     1      -5.764  11.676  18.866  0.00  0.00    +0.000 A 
ATOM     12  C   UNL     1      -5.339  10.566  18.140  0.00  0.00    +0.000 A 
ATOM     13  C   UNL     1      -3.973  10.308  17.993  0.00  0.00    +0.000 A 
ATOM     14  C   UNL     1      -3.026  11.165  18.572  0.00  0.00    +0.000 A 
ATOM     15  C   UNL     1      -1.585  10.912  18.383  0.00  0.00    +0.000 C 
ATOM     16  O   UNL     1      -1.233   9.956  17.699  0.00  0.00    +0.000 OA
ENDROOT
BRANCH   1  17
ATOM     17  N   UNL     1      -0.520  14.813  21.261  0.00  0.00    +0.000 N 
ATOM     18  H   UNL     1      -0.690  14.474  22.211  0.00  0.00    +0.000 HD
ATOM     19  H   UNL     1       0.092  15.644  21.274  0.00  0.00    +0.000 HD
ENDBRANCH   1  17
BRANCH   2  20
ATOM     20  S   UNL     1       2.589  14.537  20.875  0.00  0.00    +0.000 S 
ATOM     21  O   UNL     1       2.414  14.479  22.311  0.00  0.00    +0.000 OA
ATOM     22  O   UNL     1       3.815  14.123  20.226  0.00  0.00    +0.000 OA
BRANCH  20  23
ATOM     23  O   UNL     1       2.313  16.073  20.471  0.00  0.00    +0.000 OA
ATOM     24  H   UNL     1       2.792  16.637  21.117  0.00  0.00    +0.000 HD
ENDBRANCH  20  23
ENDBRANCH   2  20
BRANCH   4  25
ATOM     25  N   UNL     1       1.293  10.478  18.087  0.00  0.00    +0.000 N 
ATOM     26  H   UNL     1       1.036  10.484  17.093  0.00  0.00    +0.000 HD
BRANCH  25  27
ATOM     27  C   UNL     1       1.819   9.252  18.535  0.00  0.00    +0.000 A 
ATOM     28  C   UNL     1       1.376   8.720  19.750  0.00  0.00    +0.000 A 
ATOM     29  C   UNL     1       1.800   7.458  20.178  0.00  0.00    +0.000 A 
ATOM     30  C   UNL     1       2.684   6.714  19.398  0.00  0.00    +0.000 A 
ATOM     31  C   UNL     1       3.160   7.230  18.186  0.00  0.00    +0.000 A 
ATOM     32  C   UNL     1       2.721   8.499  17.772  0.00  0.00    +0.000 A 
BRANCH  31  33
ATOM     33  C   UNL     1       4.117   6.453  17.317  0.00  0.00    +0.000 C 
ATOM     34  F   UNL     1       5.328   6.233  17.901  0.00  0.00    +0.000 F 
ATOM     35  F   UNL     1       3.636   5.225  16.982  0.00  0.00    +0.000 F 
ATOM     36  F   UNL     1       4.381   7.085  16.140  0.00  0.00    +0.000 F 
ENDBRANCH  31  33
ENDBRANCH  25  27
ENDBRANCH   4  25
TORSDOF 6
ENDMDL
MODEL 9
REMARK VINA RESULT:      -7.4      5.069      7.727
REMARK  Name = 
REMARK  6 active torsions:
REMARK  status: ('A' for Active; 'I' for Inactive)
REMARK    1  A    between atoms: N_1  and  C_2
REMARK    2  A    between atoms: C_3  and  S_4
REMARK    3  A    between atoms: S_4  and  O_7
REMARK    4  A    between atoms: C_9  and  N_10
REMARK    5  A    between atoms: N_10  and  C_11
REMARK    6  A    between atoms: C_15  and  C_16
REMARK                            x       y       z     vdW  Elec       q    Type
REMARK                         _______ _______ _______ _____ _____    ______ ____
ROOT
ATOM      1  C   UNL     1      -0.169  13.728  20.633  0.00  0.00    +0.000 A 
ATOM      2  C   UNL     1       1.197  13.459  20.497  0.00  0.00    +0.000 A 
ATOM      3  C   UNL     1       1.648  12.414  19.683  0.00  0.00    +0.000 A 
ATOM      4  C   UNL     1       0.764  11.559  19.017  0.00  0.00    +0.000 A 
ATOM      5  C   UNL     1      -0.622  11.804  19.146  0.00  0.00    +0.000 A 
ATOM      6  C   UNL     1      -1.080  12.870  19.949  0.00  0.00    +0.000 A 
ATOM      7  C   UNL     1      -2.543  13.139  20.029  0.00  0.00    +0.000 C 
ATOM      8  O   UNL     1      -2.977  14.115  20.638  0.00  0.00    +0.000 OA
ATOM      9  C   UNL     1      -3.501  12.264  19.339  0.00  0.00    +0.000 A 
ATOM     10  C   UNL     1      -4.875  12.527  19.439  0.00  0.00    +0.000 A 
ATOM     11  C   UNL     1      -5.795  11.723  18.766  0.00  0.00    +0.000 A 
ATOM     12  C   UNL     1      -5.345  10.652  17.998  0.00  0.00    +0.000 A 
ATOM     13  C   UNL     1      -3.977  10.387  17.900  0.00  0.00    +0.000 A 
ATOM     14  C   UNL     1      -3.050  11.199  18.570  0.00  0.00    +0.000 A 
ATOM     15  C   UNL     1      -1.605  10.942  18.434  0.00  0.00    +0.000 C 
ATOM     16  O   UNL     1      -1.229  10.021  17.714  0.00  0.00    +0.000 OA
ENDROOT
BRANCH   1  17
ATOM     17  N   UNL     1      -0.642  14.660  21.577  0.00  0.00    +0.000 N 
ATOM     18  H   UNL     1      -1.650  14.629  21.747  0.00  0.00    +0.000 HD
ATOM     19  H   UNL     1      -0.121  14.622  22.467  0.00  0.00    +0.000 HD
ENDBRANCH   1  17
BRANCH   2  20
ATOM     20  S   UNL     1       2.479  14.372  21.320  0.00  0.00    +0.000 S 
ATOM     21  O   UNL     1       3.030  15.284  20.340  0.00  0.00    +0.000 OA
ATOM     22  O   UNL     1       1.928  14.826  22.579  0.00  0.00    +0.000 OA
BRANCH  20  23
ATOM     23  O   UNL     1       3.664  13.330  21.650  0.00  0.00    +0.000 OA
ATOM     24  H   UNL     1       3.512  12.990  22.559  0.00  0.00    +0.000 HD
ENDBRANCH  20  23
ENDBRANCH   2  20
BRANCH   4  25
ATOM     25  N   UNL     1       1.280  10.493  18.247  0.00  0.00    +0.000 N 
ATOM     26  H   UNL     1       1.051  10.546  17.248  0.00  0.00    +0.000 HD
BRANCH  25  27
ATOM     27  C   UNL     1       1.799   9.247  18.650  0.00  0.00    +0.000 A 
ATOM     28  C   UNL     1       1.344   8.669  19.839  0.00  0.00    +0.000 A 
ATOM     29  C   UNL     1       1.760   7.390  20.219  0.00  0.00    +0.000 A 
ATOM     30  C   UNL     1       2.647   6.673  19.417  0.00  0.00    +0.000 A 
ATOM     31  C   UNL     1       3.135   7.235  18.231  0.00  0.00    +0.000 A 
ATOM     32  C   UNL     1       2.704   8.522  17.864  0.00  0.00    +0.000 A 
BRANCH  31  33
ATOM     33  C   UNL     1       4.096   6.490  17.339  0.00  0.00    +0.000 C 
ATOM     34  F   UNL     1       4.292   7.086  16.130  0.00  0.00    +0.000 F 
ATOM     35  F   UNL     1       5.331   6.363  17.897  0.00  0.00    +0.000 F 
ATOM     36  F   UNL     1       3.677   5.224  17.066  0.00  0.00    +0.000 F 
ENDBRANCH  31  33
ENDBRANCH  25  27
ENDBRANCH   4  25
TORSDOF 6
ENDMDL
