MODEL 1
REMARK VINA RESULT:      -7.2      0.000      0.000
REMARK  Name = 
REMARK  4 active torsions:
REMARK  status: ('A' for Active; 'I' for Inactive)
REMARK    1  A    between atoms: C_1  and  N_2
REMARK    2  A    between atoms: C_4  and  C_5
REMARK    3  A    between atoms: N_10  and  S_11
REMARK    4  A    between atoms: S_11  and  C_14
REMARK                            x       y       z     vdW  Elec       q    Type
REMARK                         _______ _______ _______ _____ _____    ______ ____
ROOT
ATOM      1  C   UNL     1      -0.570  12.987  19.496  0.00  0.00    +0.000 C 
ATOM      2  C   UNL     1      -0.268  14.269  18.691  0.00  0.00    +0.000 C 
ATOM      3  C   UNL     1       0.993  14.989  19.135  0.00  0.00    +0.000 C 
ATOM      4  C   UNL     1       2.158  14.020  19.119  0.00  0.00    +0.000 C 
ATOM      5  C   UNL     1       1.889  12.855  20.057  0.00  0.00    +0.000 C 
ATOM      6  N   UNL     1       0.646  12.116  19.703  0.00  0.00    +0.000 NA
ENDROOT
BRANCH   1  10
ATOM      7  C   UNL     1      -2.715  10.195  16.142  0.00  0.00    +0.000 C 
ATOM      8  N   UNL     1      -2.604  10.997  17.334  0.00  0.00    +0.000 N 
ATOM      9  N   UNL     1      -1.407  11.503  17.693  0.00  0.00    +0.000 NA
ATOM     10  C   UNL     1      -1.664  12.230  18.797  0.00  0.00    +0.000 A 
ATOM     11  C   UNL     1      -3.031  12.151  19.152  0.00  0.00    +0.000 A 
ATOM     12  C   UNL     1      -3.601  11.361  18.186  0.00  0.00    +0.000 A 
ATOM     13  C   UNL     1      -5.047  11.026  18.154  0.00  0.00    +0.000 C 
ATOM     14  C   UNL     1      -5.787  12.013  19.094  0.00  0.00    +0.000 C 
ATOM     15  O   UNL     1      -5.119  12.145  20.370  0.00  0.00    +0.000 OA
ATOM     16  C   UNL     1      -3.835  12.797  20.224  0.00  0.00    +0.000 C 
ENDBRANCH   1  10
BRANCH   6  17
ATOM     17  S   UNL     1       0.401  10.682  20.660  0.00  0.00    +0.000 S 
ATOM     18  O   UNL     1       1.100  10.811  21.923  0.00  0.00    +0.000 OA
ATOM     19  O   UNL     1      -1.018  10.379  20.655  0.00  0.00    +0.000 OA
BRANCH  17  20
ATOM     20  C   UNL     1       1.203   9.374  19.755  0.00  0.00    +0.000 A 
ATOM     21  C   UNL     1       1.573   8.200  20.427  0.00  0.00    +0.000 A 
ATOM     22  C   UNL     1       2.223   7.184  19.727  0.00  0.00    +0.000 A 
ATOM     23  C   UNL     1       2.492   7.351  18.373  0.00  0.00    +0.000 A 
ATOM     24  F   UNL     1       3.120   6.378  17.700  0.00  0.00    +0.000 F 
ATOM     25  C   UNL     1       2.113   8.511  17.700  0.00  0.00    +0.000 A 
ATOM     26  C   UNL     1       1.452   9.525  18.388  0.00  0.00    +0.000 A 
ENDBRANCH  17  20
ENDBRANCH   6  17
TORSDOF 3
ENDMDL
MODEL 2
REMARK VINA RESULT:      -6.9      0.570      1.124
REMARK  Name = 
REMARK  4 active torsions:
REMARK  status: ('A' for Active; 'I' for Inactive)
REMARK    1  A    between atoms: C_1  and  N_2
REMARK    2  A    between atoms: C_4  and  C_5
REMARK    3  A    between atoms: N_10  and  S_11
REMARK    4  A    between atoms: S_11  and  C_14
REMARK                            x       y       z     vdW  Elec       q    Type
REMARK                         _______ _______ _______ _____ _____    ______ ____
ROOT
ATOM      1  C   UNL     1      -0.544  13.085  19.579  0.00  0.00    +0.000 C 
ATOM      2  C   UNL     1      -0.223  14.353  18.761  0.00  0.00    +0.000 C 
ATOM      3  C   UNL     1       1.174  14.900  18.999  0.00  0.00    +0.000 C 
ATOM      4  C   UNL     1       2.191  13.801  18.768  0.00  0.00    +0.000 C 
ATOM      5  C   UNL     1       1.938  12.639  19.714  0.00  0.00    +0.000 C 
ATOM      6  N   UNL     1       0.572  12.068  19.560  0.00  0.00    +0.000 NA
ENDROOT
BRANCH   1  10
ATOM      7  C   UNL     1      -3.609  10.942  16.470  0.00  0.00    +0.000 C 
ATOM      8  N   UNL     1      -3.166  11.542  17.703  0.00  0.00    +0.000 N 
ATOM      9  N   UNL     1      -1.883  11.937  17.835  0.00  0.00    +0.000 NA
ATOM     10  C   UNL     1      -1.824  12.492  19.061  0.00  0.00    +0.000 A 
ATOM     11  C   UNL     1      -3.075  12.414  19.716  0.00  0.00    +0.000 A 
ATOM     12  C   UNL     1      -3.910  11.809  18.811  0.00  0.00    +0.000 A 
ATOM     13  C   UNL     1      -5.345  11.543  19.078  0.00  0.00    +0.000 C 
ATOM     14  C   UNL     1      -5.773  12.400  20.298  0.00  0.00    +0.000 C 
ATOM     15  O   UNL     1      -4.822  12.303  21.383  0.00  0.00    +0.000 OA
ATOM     16  C   UNL     1      -3.560  12.917  21.030  0.00  0.00    +0.000 C 
ENDBRANCH   1  10
BRANCH   6  17
ATOM     17  S   UNL     1       0.312  10.636  20.517  0.00  0.00    +0.000 S 
ATOM     18  O   UNL     1       0.922  10.802  21.822  0.00  0.00    +0.000 OA
ATOM     19  O   UNL     1      -1.092  10.285  20.424  0.00  0.00    +0.000 OA
BRANCH  17  20
ATOM     20  C   UNL     1       1.215   9.348  19.682  0.00  0.00    +0.000 A 
ATOM     21  C   UNL     1       1.537   9.501  18.325  0.00  0.00    +0.000 A 
ATOM     22  C   UNL     1       2.222   8.484  17.663  0.00  0.00    +0.000 A 
ATOM     23  C   UNL     1       2.578   7.333  18.359  0.00  0.00    +0.000 A 
ATOM     24  F   UNL     1       3.232   6.354  17.722  0.00  0.00    +0.000 F 
ATOM     25  C   UNL     1       2.270   7.183  19.709  0.00  0.00    +0.000 A 
ATOM     26  C   UNL     1       1.597   8.200  20.382  0.00  0.00    +0.000 A 
ENDBRANCH  17  20
ENDBRANCH   6  17
TORSDOF 3
ENDMDL
MODEL 3
REMARK VINA RESULT:      -6.8      2.554      4.227
REMARK  Name = 
REMARK  4 active torsions:
REMARK  status: ('A' for Active; 'I' for Inactive)
REMARK    1  A    between atoms: C_1  and  N_2
REMARK    2  A    between atoms: C_4  and  C_5
REMARK    3  A    between atoms: N_10  and  S_11
REMARK    4  A    between atoms: S_11  and  C_14
REMARK                            x       y       z     vdW  Elec       q    Type
REMARK                         _______ _______ _______ _____ _____    ______ ____
ROOT
ATOM      1  C   UNL     1      -2.321  12.218  19.209  0.00  0.00    +0.000 C 
ATOM      2  C   UNL     1      -3.748  11.905  18.712  0.00  0.00    +0.000 C 
ATOM      3  C   UNL     1      -3.789  11.008  17.488  0.00  0.00    +0.000 C 
ATOM      4  C   UNL     1      -2.994   9.748  17.761  0.00  0.00    +0.000 C 
ATOM      5  C   UNL     1      -1.549  10.093  18.082  0.00  0.00    +0.000 C 
ATOM      6  N   UNL     1      -1.430  10.999  19.256  0.00  0.00    +0.000 NA
ENDROOT
BRANCH   1  10
ATOM      7  C   UNL     1      -3.556  12.810  23.875  0.00  0.00    +0.000 C 
ATOM      8  N   UNL     1      -2.947  13.126  22.608  0.00  0.00    +0.000 N 
ATOM      9  N   UNL     1      -3.030  12.251  21.586  0.00  0.00    +0.000 NA
ATOM     10  C   UNL     1      -2.416  12.870  20.559  0.00  0.00    +0.000 A 
ATOM     11  C   UNL     1      -1.915  14.133  20.953  0.00  0.00    +0.000 A 
ATOM     12  C   UNL     1      -2.284  14.265  22.267  0.00  0.00    +0.000 A 
ATOM     13  C   UNL     1      -1.977  15.466  23.083  0.00  0.00    +0.000 C 
ATOM     14  C   UNL     1      -1.579  16.612  22.117  0.00  0.00    +0.000 C 
ATOM     15  O   UNL     1      -0.626  16.170  21.122  0.00  0.00    +0.000 OA
ATOM     16  C   UNL     1      -1.226  15.221  20.209  0.00  0.00    +0.000 C 
ENDBRANCH   1  10
BRANCH   6  17
ATOM     17  S   UNL     1       0.218  11.281  19.744  0.00  0.00    +0.000 S 
ATOM     18  O   UNL     1       0.787  12.351  18.950  0.00  0.00    +0.000 OA
ATOM     19  O   UNL     1       0.245  11.372  21.192  0.00  0.00    +0.000 OA
BRANCH  17  20
ATOM     20  C   UNL     1       1.094   9.792  19.312  0.00  0.00    +0.000 A 
ATOM     21  C   UNL     1       1.211   8.763  20.259  0.00  0.00    +0.000 A 
ATOM     22  C   UNL     1       1.917   7.606  19.932  0.00  0.00    +0.000 A 
ATOM     23  C   UNL     1       2.492   7.489  18.671  0.00  0.00    +0.000 A 
ATOM     24  F   UNL     1       3.173   6.381  18.357  0.00  0.00    +0.000 F 
ATOM     25  C   UNL     1       2.366   8.504  17.725  0.00  0.00    +0.000 A 
ATOM     26  C   UNL     1       1.652   9.658  18.038  0.00  0.00    +0.000 A 
ENDBRANCH  17  20
ENDBRANCH   6  17
TORSDOF 3
ENDMDL
MODEL 4
REMARK VINA RESULT:      -6.6      3.272      5.237
REMARK  Name = 
REMARK  4 active torsions:
REMARK  status: ('A' for Active; 'I' for Inactive)
REMARK    1  A    between atoms: C_1  and  N_2
REMARK    2  A    between atoms: C_4  and  C_5
REMARK    3  A    between atoms: N_10  and  S_11
REMARK    4  A    between atoms: S_11  and  C_14
REMARK                            x       y       z     vdW  Elec       q    Type
REMARK                         _______ _______ _______ _____ _____    ______ ____
ROOT
ATOM      1  C   UNL     1      -0.965  11.235  22.119  0.00  0.00    +0.000 C 
ATOM      2  C   UNL     1      -0.868  10.278  23.325  0.00  0.00    +0.000 C 
ATOM      3  C   UNL     1      -0.149   8.976  23.019  0.00  0.00    +0.000 C 
ATOM      4  C   UNL     1       1.211   9.280  22.424  0.00  0.00    +0.000 C 
ATOM      5  C   UNL     1       1.060  10.082  21.142  0.00  0.00    +0.000 C 
ATOM      6  N   UNL     1       0.333  11.364  21.358  0.00  0.00    +0.000 NA
ENDROOT
BRANCH   1  10
ATOM      7  C   UNL     1      -0.841  15.526  24.403  0.00  0.00    +0.000 C 
ATOM      8  N   UNL     1      -1.383  14.461  23.598  0.00  0.00    +0.000 N 
ATOM      9  N   UNL     1      -0.627  13.382  23.314  0.00  0.00    +0.000 NA
ATOM     10  C   UNL     1      -1.440  12.574  22.607  0.00  0.00    +0.000 A 
ATOM     11  C   UNL     1      -2.709  13.170  22.417  0.00  0.00    +0.000 A 
ATOM     12  C   UNL     1      -2.637  14.371  23.075  0.00  0.00    +0.000 A 
ATOM     13  C   UNL     1      -3.769  15.328  23.153  0.00  0.00    +0.000 C 
ATOM     14  C   UNL     1      -5.063  14.571  22.753  0.00  0.00    +0.000 C 
ATOM     15  O   UNL     1      -4.878  13.789  21.551  0.00  0.00    +0.000 OA
ATOM     16  C   UNL     1      -3.963  12.691  21.775  0.00  0.00    +0.000 C 
ENDBRANCH   1  10
BRANCH   6  17
ATOM     17  S   UNL     1       0.288  12.376  19.941  0.00  0.00    +0.000 S 
ATOM     18  O   UNL     1      -0.214  13.689  20.294  0.00  0.00    +0.000 OA
ATOM     19  O   UNL     1       1.566  12.257  19.266  0.00  0.00    +0.000 OA
BRANCH  17  20
ATOM     20  C   UNL     1      -0.924  11.628  18.872  0.00  0.00    +0.000 A 
ATOM     21  C   UNL     1      -2.202  12.200  18.775  0.00  0.00    +0.000 A 
ATOM     22  C   UNL     1      -3.161  11.603  17.957  0.00  0.00    +0.000 A 
ATOM     23  C   UNL     1      -2.834  10.452  17.249  0.00  0.00    +0.000 A 
ATOM     24  F   UNL     1      -3.756   9.875  16.467  0.00  0.00    +0.000 F 
ATOM     25  C   UNL     1      -1.563   9.889  17.334  0.00  0.00    +0.000 A 
ATOM     26  C   UNL     1      -0.595  10.486  18.138  0.00  0.00    +0.000 A 
ENDBRANCH  17  20
ENDBRANCH   6  17
TORSDOF 3
ENDMDL
MODEL 5
REMARK VINA RESULT:      -6.6      1.485      2.290
REMARK  Name = 
REMARK  4 active torsions:
REMARK  status: ('A' for Active; 'I' for Inactive)
REMARK    1  A    between atoms: C_1  and  N_2
REMARK    2  A    between atoms: C_4  and  C_5
REMARK    3  A    between atoms: N_10  and  S_11
REMARK    4  A    between atoms: S_11  and  C_14
REMARK                            x       y       z     vdW  Elec       q    Type
REMARK                         _______ _______ _______ _____ _____    ______ ____
ROOT
ATOM      1  C   UNL     1      -0.292  13.185  19.955  0.00  0.00    +0.000 C 
ATOM      2  C   UNL     1      -0.050  14.409  19.048  0.00  0.00    +0.000 C 
ATOM      3  C   UNL     1       1.418  14.700  18.788  0.00  0.00    +0.000 C 
ATOM      4  C   UNL     1       2.090  13.453  18.251  0.00  0.00    +0.000 C 
ATOM      5  C   UNL     1       1.974  12.316  19.252  0.00  0.00    +0.000 C 
ATOM      6  N   UNL     1       0.558  11.994  19.582  0.00  0.00    +0.000 NA
ENDROOT
BRANCH   1  10
ATOM      7  C   UNL     1      -4.887  12.742  21.486  0.00  0.00    +0.000 C 
ATOM      8  N   UNL     1      -3.771  12.655  20.578  0.00  0.00    +0.000 N 
ATOM      9  N   UNL     1      -2.562  13.121  20.952  0.00  0.00    +0.000 NA
ATOM     10  C   UNL     1      -1.753  12.839  19.913  0.00  0.00    +0.000 A 
ATOM     11  C   UNL     1      -2.471  12.219  18.864  0.00  0.00    +0.000 A 
ATOM     12  C   UNL     1      -3.756  12.109  19.331  0.00  0.00    +0.000 A 
ATOM     13  C   UNL     1      -4.857  11.490  18.552  0.00  0.00    +0.000 C 
ATOM     14  C   UNL     1      -4.224  10.676  17.393  0.00  0.00    +0.000 C 
ATOM     15  O   UNL     1      -3.205  11.432  16.699  0.00  0.00    +0.000 OA
ATOM     16  C   UNL     1      -2.056  11.662  17.548  0.00  0.00    +0.000 C 
ENDBRANCH   1  10
BRANCH   6  17
ATOM     17  S   UNL     1       0.391  10.591  20.601  0.00  0.00    +0.000 S 
ATOM     18  O   UNL     1       1.107  10.801  21.844  0.00  0.00    +0.000 OA
ATOM     19  O   UNL     1      -1.014  10.230  20.637  0.00  0.00    +0.000 OA
BRANCH  17  20
ATOM     20  C   UNL     1       1.231   9.281  19.734  0.00  0.00    +0.000 A 
ATOM     21  C   UNL     1       1.452   9.401  18.354  0.00  0.00    +0.000 A 
ATOM     22  C   UNL     1       2.087   8.367  17.668  0.00  0.00    +0.000 A 
ATOM     23  C   UNL     1       2.495   7.234  18.364  0.00  0.00    +0.000 A 
ATOM     24  F   UNL     1       3.101   6.238  17.705  0.00  0.00    +0.000 F 
ATOM     25  C   UNL     1       2.289   7.118  19.737  0.00  0.00    +0.000 A 
ATOM     26  C   UNL     1       1.666   8.152  20.432  0.00  0.00    +0.000 A 
ENDBRANCH  17  20
ENDBRANCH   6  17
TORSDOF 3
ENDMDL
MODEL 6
REMARK VINA RESULT:      -6.6      2.418      4.323
REMARK  Name = 
REMARK  4 active torsions:
REMARK  status: ('A' for Active; 'I' for Inactive)
REMARK    1  A    between atoms: C_1  and  N_2
REMARK    2  A    between atoms: C_4  and  C_5
REMARK    3  A    between atoms: N_10  and  S_11
REMARK    4  A    between atoms: S_11  and  C_14
REMARK                            x       y       z     vdW  Elec       q    Type
REMARK                         _______ _______ _______ _____ _____    ______ ____
ROOT
ATOM      1  C   UNL     1      -1.928  12.254  18.917  0.00  0.00    +0.000 C 
ATOM      2  C   UNL     1      -3.373  11.987  18.448  0.00  0.00    +0.000 C 
ATOM      3  C   UNL     1      -3.472  11.001  17.297  0.00  0.00    +0.000 C 
ATOM      4  C   UNL     1      -2.749   9.722  17.666  0.00  0.00    +0.000 C 
ATOM      5  C   UNL     1      -1.285  10.007  17.957  0.00  0.00    +0.000 C 
ATOM      6  N   UNL     1      -1.108  10.994  19.058  0.00  0.00    +0.000 NA
ENDROOT
BRANCH   1  10
ATOM      7  C   UNL     1      -3.099  13.276  23.525  0.00  0.00    +0.000 C 
ATOM      8  N   UNL     1      -2.480  13.458  22.236  0.00  0.00    +0.000 N 
ATOM      9  N   UNL     1      -2.619  12.512  21.285  0.00  0.00    +0.000 NA
ATOM     10  C   UNL     1      -1.977  13.014  20.212  0.00  0.00    +0.000 A 
ATOM     11  C   UNL     1      -1.403  14.273  20.506  0.00  0.00    +0.000 A 
ATOM     12  C   UNL     1      -1.756  14.527  21.806  0.00  0.00    +0.000 A 
ATOM     13  C   UNL     1      -1.377  15.768  22.526  0.00  0.00    +0.000 C 
ATOM     14  C   UNL     1      -0.920  16.812  21.473  0.00  0.00    +0.000 C 
ATOM     15  O   UNL     1       0.000  16.241  20.514  0.00  0.00    +0.000 OA
ATOM     16  C   UNL     1      -0.658  15.259  19.678  0.00  0.00    +0.000 C 
ENDBRANCH   1  10
BRANCH   6  17
ATOM     17  S   UNL     1       0.557  11.217  19.521  0.00  0.00    +0.000 S 
ATOM     18  O   UNL     1       1.180  12.194  18.649  0.00  0.00    +0.000 OA
ATOM     19  O   UNL     1       0.598  11.411  20.958  0.00  0.00    +0.000 OA
BRANCH  17  20
ATOM     20  C   UNL     1       1.345   9.654  19.195  0.00  0.00    +0.000 A 
ATOM     21  C   UNL     1       1.946   9.433  17.946  0.00  0.00    +0.000 A 
ATOM     22  C   UNL     1       2.542   8.202  17.679  0.00  0.00    +0.000 A 
ATOM     23  C   UNL     1       2.535   7.213  18.657  0.00  0.00    +0.000 A 
ATOM     24  F   UNL     1       3.104   6.028  18.400  0.00  0.00    +0.000 F 
ATOM     25  C   UNL     1       1.952   7.433  19.902  0.00  0.00    +0.000 A 
ATOM     26  C   UNL     1       1.364   8.665  20.182  0.00  0.00    +0.000 A 
ENDBRANCH  17  20
ENDBRANCH   6  17
TORSDOF 3
ENDMDL
MODEL 7
REMARK VINA RESULT:      -6.6      4.986      7.994
REMARK  Name = 
REMARK  4 active torsions:
REMARK  status: ('A' for Active; 'I' for Inactive)
REMARK    1  A    between atoms: C_1  and  N_2
REMARK    2  A    between atoms: C_4  and  C_5
REMARK    3  A    between atoms: N_10  and  S_11
REMARK    4  A    between atoms: S_11  and  C_14
REMARK                            x       y       z     vdW  Elec       q    Type
REMARK                         _______ _______ _______ _____ _____    ______ ____
ROOT
ATOM      1  C   UNL     1       2.519   4.833  18.610  0.00  0.00    +0.000 C 
ATOM      2  C   UNL     1       1.304   3.887  18.709  0.00  0.00    +0.000 C 
ATOM      3  C   UNL     1       1.620   2.444  18.360  0.00  0.00    +0.000 C 
ATOM      4  C   UNL     1       2.782   1.964  19.205  0.00  0.00    +0.000 C 
ATOM      5  C   UNL     1       4.011   2.823  18.949  0.00  0.00    +0.000 C 
ATOM      6  N   UNL     1       3.767   4.262  19.240  0.00  0.00    +0.000 NA
ENDROOT
BRANCH   1  10
ATOM      7  C   UNL     1       1.021   7.973  22.008  0.00  0.00    +0.000 C 
ATOM      8  N   UNL     1       1.507   7.530  20.726  0.00  0.00    +0.000 N 
ATOM      9  N   UNL     1       1.781   6.224  20.526  0.00  0.00    +0.000 NA
ATOM     10  C   UNL     1       2.153   6.150  19.234  0.00  0.00    +0.000 A 
ATOM     11  C   UNL     1       2.144   7.428  18.628  0.00  0.00    +0.000 A 
ATOM     12  C   UNL     1       1.716   8.282  19.612  0.00  0.00    +0.000 A 
ATOM     13  C   UNL     1       1.537   9.741  19.404  0.00  0.00    +0.000 C 
ATOM     14  C   UNL     1       1.514  10.007  17.876  0.00  0.00    +0.000 C 
ATOM     15  O   UNL     1       2.590   9.322  17.194  0.00  0.00    +0.000 OA
ATOM     16  C   UNL     1       2.407   7.887  17.237  0.00  0.00    +0.000 C 
ENDBRANCH   1  10
BRANCH   6  17
ATOM     17  S   UNL     1       5.201   5.243  19.112  0.00  0.00    +0.000 S 
ATOM     18  O   UNL     1       4.861   6.636  19.318  0.00  0.00    +0.000 OA
ATOM     19  O   UNL     1       6.235   4.630  19.925  0.00  0.00    +0.000 OA
BRANCH  17  20
ATOM     20  C   UNL     1       5.725   5.083  17.417  0.00  0.00    +0.000 A 
ATOM     21  C   UNL     1       7.002   4.573  17.137  0.00  0.00    +0.000 A 
ATOM     22  C   UNL     1       7.425   4.469  15.813  0.00  0.00    +0.000 A 
ATOM     23  C   UNL     1       6.573   4.871  14.790  0.00  0.00    +0.000 A 
ATOM     24  F   UNL     1       6.979   4.776  13.517  0.00  0.00    +0.000 F 
ATOM     25  C   UNL     1       5.300   5.366  15.064  0.00  0.00    +0.000 A 
ATOM     26  C   UNL     1       4.864   5.461  16.384  0.00  0.00    +0.000 A 
ENDBRANCH  17  20
ENDBRANCH   6  17
TORSDOF 3
ENDMDL
MODEL 8
REMARK VINA RESULT:      -6.5      2.789      4.476
REMARK  Name = 
REMARK  4 active torsions:
REMARK  status: ('A' for Active; 'I' for Inactive)
REMARK    1  A    between atoms: C_1  and  N_2
REMARK    2  A    between atoms: C_4  and  C_5
REMARK    3  A    between atoms: N_10  and  S_11
REMARK    4  A    between atoms: S_11  and  C_14
REMARK                            x       y       z     vdW  Elec       q    Type
REMARK                         _______ _______ _______ _____ _____    ______ ____
ROOT
ATOM      1  C   UNL     1      -2.636  12.431  19.733  0.00  0.00    +0.000 C 
ATOM      2  C   UNL     1      -4.038  12.139  19.159  0.00  0.00    +0.000 C 
ATOM      3  C   UNL     1      -4.017  11.393  17.836  0.00  0.00    +0.000 C 
ATOM      4  C   UNL     1      -3.190  10.132  17.983  0.00  0.00    +0.000 C 
ATOM      5  C   UNL     1      -1.766  10.478  18.387  0.00  0.00    +0.000 C 
ATOM      6  N   UNL     1      -1.708  11.241  19.664  0.00  0.00    +0.000 NA
ENDROOT
BRANCH   1  10
ATOM      7  C   UNL     1      -4.088  12.470  24.374  0.00  0.00    +0.000 C 
ATOM      8  N   UNL     1      -3.415  12.929  23.185  0.00  0.00    +0.000 N 
ATOM      9  N   UNL     1      -3.458  12.186  22.060  0.00  0.00    +0.000 NA
ATOM     10  C   UNL     1      -2.789  12.915  21.147  0.00  0.00    +0.000 A 
ATOM     11  C   UNL     1      -2.293  14.112  21.715  0.00  0.00    +0.000 A 
ATOM     12  C   UNL     1      -2.723  14.089  23.018  0.00  0.00    +0.000 A 
ATOM     13  C   UNL     1      -2.443  15.176  23.988  0.00  0.00    +0.000 C 
ATOM     14  C   UNL     1      -1.986  16.425  23.190  0.00  0.00    +0.000 C 
ATOM     15  O   UNL     1      -0.992  16.092  22.194  0.00  0.00    +0.000 OA
ATOM     16  C   UNL     1      -1.557  15.271  21.144  0.00  0.00    +0.000 C 
ENDBRANCH   1  10
BRANCH   6  17
ATOM     17  S   UNL     1      -0.084  11.509  20.233  0.00  0.00    +0.000 S 
ATOM     18  O   UNL     1       0.465  12.695  19.605  0.00  0.00    +0.000 OA
ATOM     19  O   UNL     1      -0.095  11.406  21.680  0.00  0.00    +0.000 OA
BRANCH  17  20
ATOM     20  C   UNL     1       0.856  10.122  19.631  0.00  0.00    +0.000 A 
ATOM     21  C   UNL     1       1.421  10.178  18.348  0.00  0.00    +0.000 A 
ATOM     22  C   UNL     1       2.137   9.084  17.864  0.00  0.00    +0.000 A 
ATOM     23  C   UNL     1       2.282   7.955  18.664  0.00  0.00    +0.000 A 
ATOM     24  F   UNL     1       2.966   6.902  18.199  0.00  0.00    +0.000 F 
ATOM     25  C   UNL     1       1.734   7.901  19.943  0.00  0.00    +0.000 A 
ATOM     26  C   UNL     1       1.028   8.995  20.439  0.00  0.00    +0.000 A 
ENDBRANCH  17  20
ENDBRANCH   6  17
TORSDOF 3
ENDMDL
MODEL 9
REMARK VINA RESULT:      -6.5      3.456      4.445
REMARK  Name = 
REMARK  4 active torsions:
REMARK  status: ('A' for Active; 'I' for Inactive)
REMARK    1  A    between atoms: C_1  and  N_2
REMARK    2  A    between atoms: C_4  and  C_5
REMARK    3  A    between atoms: N_10  and  S_11
REMARK    4  A    between atoms: S_11  and  C_14
REMARK                            x       y       z     vdW  Elec       q    Type
REMARK                         _______ _______ _______ _____ _____    ______ ____
ROOT
ATOM      1  C   UNL     1      -0.605  13.132  19.510  0.00  0.00    +0.000 C 
ATOM      2  C   UNL     1      -0.051  14.133  18.474  0.00  0.00    +0.000 C 
ATOM      3  C   UNL     1       1.217  14.838  18.920  0.00  0.00    +0.000 C 
ATOM      4  C   UNL     1       2.251  13.807  19.323  0.00  0.00    +0.000 C 
ATOM      5  C   UNL     1       1.727  12.950  20.463  0.00  0.00    +0.000 C 
ATOM      6  N   UNL     1       0.462  12.248  20.110  0.00  0.00    +0.000 NA
ENDROOT
BRANCH   1  10
ATOM      7  C   UNL     1      -2.663  10.047  16.364  0.00  0.00    +0.000 C 
ATOM      8  N   UNL     1      -2.582  10.950  17.484  0.00  0.00    +0.000 N 
ATOM      9  N   UNL     1      -1.395  11.492  17.825  0.00  0.00    +0.000 NA
ATOM     10  C   UNL     1      -1.680  12.311  18.855  0.00  0.00    +0.000 A 
ATOM     11  C   UNL     1      -3.055  12.256  19.184  0.00  0.00    +0.000 A 
ATOM     12  C   UNL     1      -3.600  11.382  18.277  0.00  0.00    +0.000 A 
ATOM     13  C   UNL     1      -5.043  11.039  18.242  0.00  0.00    +0.000 C 
ATOM     14  C   UNL     1      -5.808  12.100  19.075  0.00  0.00    +0.000 C 
ATOM     15  O   UNL     1      -5.170  12.345  20.350  0.00  0.00    +0.000 OA
ATOM     16  C   UNL     1      -3.885  12.989  20.177  0.00  0.00    +0.000 C 
ENDBRANCH   1  10
BRANCH   6  17
ATOM     17  S   UNL     1      -0.074  11.135  21.338  0.00  0.00    +0.000 S 
ATOM     18  O   UNL     1      -0.912  10.114  20.740  0.00  0.00    +0.000 OA
ATOM     19  O   UNL     1       1.083  10.742  22.120  0.00  0.00    +0.000 OA
BRANCH  17  20
ATOM     20  C   UNL     1      -1.115  12.095  22.417  0.00  0.00    +0.000 A 
ATOM     21  C   UNL     1      -2.259  11.504  22.974  0.00  0.00    +0.000 A 
ATOM     22  C   UNL     1      -3.090  12.261  23.800  0.00  0.00    +0.000 A 
ATOM     23  C   UNL     1      -2.769  13.589  24.059  0.00  0.00    +0.000 A 
ATOM     24  F   UNL     1      -3.569  14.318  24.848  0.00  0.00    +0.000 F 
ATOM     25  C   UNL     1      -1.628  14.175  23.517  0.00  0.00    +0.000 A 
ATOM     26  C   UNL     1      -0.785  13.423  22.702  0.00  0.00    +0.000 A 
ENDBRANCH  17  20
ENDBRANCH   6  17
TORSDOF 3
ENDMDL
