MODEL 1
REMARK VINA RESULT:      -7.3      0.000      0.000
REMARK  Name = 
REMARK  13 active torsions:
REMARK  status: ('A' for Active; 'I' for Inactive)
REMARK    1  A    between atoms: C_1  and  O_2
REMARK    2  A    between atoms: O_2  and  C_3
REMARK    3  A    between atoms: C_3  and  C_4
REMARK    4  A    between atoms: C_4  and  C_5
REMARK    5  A    between atoms: C_5  and  O_6
REMARK    6  A    between atoms: O_6  and  C_7
REMARK    7  A    between atoms: C_9  and  O_10
REMARK    8  A    between atoms: O_10  and  C_11
REMARK    9  A    between atoms: C_13  and  C_14
REMARK   10  A    between atoms: C_14  and  C_15
REMARK   11  A    between atoms: C_14  and  N_16
REMARK   12  A    between atoms: N_16  and  C_25
REMARK   13  A    between atoms: C_17  and  C_19
REMARK                            x       y       z     vdW  Elec       q    Type
REMARK                         _______ _______ _______ _____ _____    ______ ____
ROOT
ATOM      1  C   UNL     1       2.006   4.578  18.859  0.00  0.00    +0.000 C 
ATOM      2  C   UNL     1       1.887   4.308  17.349  0.00  0.00    +0.000 C 
ENDROOT
BRANCH   1   7
ATOM      3  C   UNL     1       1.541   7.952  20.665  0.00  0.00    +0.000 A 
ATOM      4  C   UNL     1       1.764   8.860  19.635  0.00  0.00    +0.000 A 
ATOM      5  C   UNL     1       2.110   8.414  18.361  0.00  0.00    +0.000 A 
ATOM      6  C   UNL     1       2.208   7.038  18.104  0.00  0.00    +0.000 A 
ATOM      7  C   UNL     1       2.047   6.093  19.136  0.00  0.00    +0.000 A 
ATOM      8  C   UNL     1       1.756   6.582  20.428  0.00  0.00    +0.000 A 
BRANCH   5   9
ATOM      9  O   UNL     1       2.275   9.413  17.441  0.00  0.00    +0.000 OA
ATOM     10  C   UNL     1       2.037  10.744  17.879  0.00  0.00    +0.000 C 
ENDBRANCH   5   9
BRANCH   3  11
ATOM     11  O   UNL     1       1.097   8.284  21.918  0.00  0.00    +0.000 OA
BRANCH  11  12
ATOM     12  C   UNL     1      -0.287   8.662  22.082  0.00  0.00    +0.000 C 
BRANCH  12  13
ATOM     13  C   UNL     1      -0.453   9.827  23.066  0.00  0.00    +0.000 C 
BRANCH  13  14
ATOM     14  C   UNL     1      -0.503  11.206  22.408  0.00  0.00    +0.000 C 
BRANCH  14  16
ATOM     15  C   UNL     1      -2.542  12.005  23.274  0.00  0.00    +0.000 C 
ATOM     16  O   UNL     1      -1.123  12.165  23.262  0.00  0.00    +0.000 OA
ENDBRANCH  14  16
ENDBRANCH  13  14
ENDBRANCH  12  13
ENDBRANCH  11  12
ENDBRANCH   3  11
ENDBRANCH   1   7
BRANCH   1  17
ATOM     17  N   UNL     1       3.092   3.754  19.485  0.00  0.00    +0.000 N 
ATOM     18  C   UNL     1       4.467   3.960  19.267  0.00  0.00    +0.000 C 
ATOM     19  O   UNL     1       5.333   3.212  19.738  0.00  0.00    +0.000 OA
BRANCH  18  20
ATOM     20  C   UNL     1       4.915   5.168  18.405  0.00  0.00    +0.000 C 
ATOM     21  C   UNL     1       6.331   5.674  18.800  0.00  0.00    +0.000 C 
ATOM     22  N   UNL     1       7.442   4.807  18.350  0.00  0.00    +0.000 NA
ATOM     23  C   UNL     1       7.267   4.506  16.921  0.00  0.00    +0.000 C 
ATOM     24  C   UNL     1       5.868   3.966  16.605  0.00  0.00    +0.000 C 
ATOM     25  O   UNL     1       4.858   4.908  16.998  0.00  0.00    +0.000 OA
ATOM     26  H   UNL     1       7.367   3.931  18.879  0.00  0.00    +0.000 HD
ENDBRANCH  18  20
BRANCH  17  27
ATOM     27  C   UNL     1       2.671   2.710  20.417  0.00  0.00    +0.000 C 
ATOM     28  C   UNL     1       2.320   2.871  21.878  0.00  0.00    +0.000 C 
ATOM     29  C   UNL     1       1.228   2.670  20.880  0.00  0.00    +0.000 C 
ENDBRANCH  17  27
ENDBRANCH   1  17
TORSDOF 10
ENDMDL
MODEL 2
REMARK VINA RESULT:      -6.7      1.623      3.396
REMARK  Name = 
REMARK  13 active torsions:
REMARK  status: ('A' for Active; 'I' for Inactive)
REMARK    1  A    between atoms: C_1  and  O_2
REMARK    2  A    between atoms: O_2  and  C_3
REMARK    3  A    between atoms: C_3  and  C_4
REMARK    4  A    between atoms: C_4  and  C_5
REMARK    5  A    between atoms: C_5  and  O_6
REMARK    6  A    between atoms: O_6  and  C_7
REMARK    7  A    between atoms: C_9  and  O_10
REMARK    8  A    between atoms: O_10  and  C_11
REMARK    9  A    between atoms: C_13  and  C_14
REMARK   10  A    between atoms: C_14  and  C_15
REMARK   11  A    between atoms: C_14  and  N_16
REMARK   12  A    between atoms: N_16  and  C_25
REMARK   13  A    between atoms: C_17  and  C_19
REMARK                            x       y       z     vdW  Elec       q    Type
REMARK                         _______ _______ _______ _____ _____    ______ ____
ROOT
ATOM      1  C   UNL     1       3.646   6.450  17.507  0.00  0.00    +0.000 C 
ATOM      2  C   UNL     1       4.543   7.060  16.417  0.00  0.00    +0.000 C 
ENDROOT
BRANCH   1   7
ATOM      3  C   UNL     1       1.501   8.184  20.201  0.00  0.00    +0.000 A 
ATOM      4  C   UNL     1       1.236   9.413  19.606  0.00  0.00    +0.000 A 
ATOM      5  C   UNL     1       1.773   9.727  18.359  0.00  0.00    +0.000 A 
ATOM      6  C   UNL     1       2.566   8.787  17.682  0.00  0.00    +0.000 A 
ATOM      7  C   UNL     1       2.903   7.556  18.279  0.00  0.00    +0.000 A 
ATOM      8  C   UNL     1       2.390   7.295  19.568  0.00  0.00    +0.000 A 
BRANCH   5   9
ATOM      9  O   UNL     1       1.410  10.958  17.884  0.00  0.00    +0.000 OA
ATOM     10  C   UNL     1       0.861  11.877  18.818  0.00  0.00    +0.000 C 
ENDBRANCH   5   9
BRANCH   3  11
ATOM     11  O   UNL     1       0.939   7.743  21.369  0.00  0.00    +0.000 OA
BRANCH  11  12
ATOM     12  C   UNL     1      -0.284   8.363  21.824  0.00  0.00    +0.000 C 
BRANCH  12  13
ATOM     13  C   UNL     1      -0.033   9.369  22.955  0.00  0.00    +0.000 C 
BRANCH  13  14
ATOM     14  C   UNL     1      -1.048  10.511  23.019  0.00  0.00    +0.000 C 
BRANCH  14  16
ATOM     15  C   UNL     1      -1.345  12.847  23.066  0.00  0.00    +0.000 C 
ATOM     16  O   UNL     1      -0.397  11.778  23.069  0.00  0.00    +0.000 OA
ENDBRANCH  14  16
ENDBRANCH  13  14
ENDBRANCH  12  13
ENDBRANCH  11  12
ENDBRANCH   3  11
ENDBRANCH   1   7
BRANCH   1  17
ATOM     17  N   UNL     1       4.388   5.442  18.334  0.00  0.00    +0.000 N 
ATOM     18  C   UNL     1       4.032   4.085  18.436  0.00  0.00    +0.000 C 
ATOM     19  O   UNL     1       4.620   3.298  19.188  0.00  0.00    +0.000 OA
BRANCH  18  20
ATOM     20  C   UNL     1       2.859   3.553  17.573  0.00  0.00    +0.000 C 
ATOM     21  C   UNL     1       2.726   2.006  17.657  0.00  0.00    +0.000 C 
ATOM     22  N   UNL     1       2.157   1.505  18.926  0.00  0.00    +0.000 NA
ATOM     23  C   UNL     1       0.924   2.251  19.227  0.00  0.00    +0.000 C 
ATOM     24  C   UNL     1       1.133   3.768  19.176  0.00  0.00    +0.000 C 
ATOM     25  O   UNL     1       1.605   4.173  17.882  0.00  0.00    +0.000 OA
ATOM     26  H   UNL     1       2.846   1.705  19.659  0.00  0.00    +0.000 HD
ENDBRANCH  18  20
BRANCH  17  27
ATOM     27  C   UNL     1       5.585   5.913  19.029  0.00  0.00    +0.000 C 
ATOM     28  C   UNL     1       6.808   5.107  19.401  0.00  0.00    +0.000 C 
ATOM     29  C   UNL     1       6.880   6.061  18.255  0.00  0.00    +0.000 C 
ENDBRANCH  17  27
ENDBRANCH   1  17
TORSDOF 10
ENDMDL
MODEL 3
REMARK VINA RESULT:      -6.7      1.457      1.913
REMARK  Name = 
REMARK  13 active torsions:
REMARK  status: ('A' for Active; 'I' for Inactive)
REMARK    1  A    between atoms: C_1  and  O_2
REMARK    2  A    between atoms: O_2  and  C_3
REMARK    3  A    between atoms: C_3  and  C_4
REMARK    4  A    between atoms: C_4  and  C_5
REMARK    5  A    between atoms: C_5  and  O_6
REMARK    6  A    between atoms: O_6  and  C_7
REMARK    7  A    between atoms: C_9  and  O_10
REMARK    8  A    between atoms: O_10  and  C_11
REMARK    9  A    between atoms: C_13  and  C_14
REMARK   10  A    between atoms: C_14  and  C_15
REMARK   11  A    between atoms: C_14  and  N_16
REMARK   12  A    between atoms: N_16  and  C_25
REMARK   13  A    between atoms: C_17  and  C_19
REMARK                            x       y       z     vdW  Elec       q    Type
REMARK                         _______ _______ _______ _____ _____    ______ ____
ROOT
ATOM      1  C   UNL     1       2.804   5.467  20.097  0.00  0.00    +0.000 C 
ATOM      2  C   UNL     1       2.220   4.750  21.326  0.00  0.00    +0.000 C 
ENDROOT
BRANCH   1   7
ATOM      3  C   UNL     1       0.624   8.573  20.779  0.00  0.00    +0.000 A 
ATOM      4  C   UNL     1       0.875   9.350  19.654  0.00  0.00    +0.000 A 
ATOM      5  C   UNL     1       1.777   8.919  18.682  0.00  0.00    +0.000 A 
ATOM      6  C   UNL     1       2.417   7.678  18.824  0.00  0.00    +0.000 A 
ATOM      7  C   UNL     1       2.231   6.892  19.978  0.00  0.00    +0.000 A 
ATOM      8  C   UNL     1       1.357   7.387  20.969  0.00  0.00    +0.000 A 
BRANCH   5   9
ATOM      9  O   UNL     1       1.909   9.771  17.620  0.00  0.00    +0.000 OA
ATOM     10  C   UNL     1       2.119  11.145  17.912  0.00  0.00    +0.000 C 
ENDBRANCH   5   9
BRANCH   3  11
ATOM     11  O   UNL     1      -0.317   8.858  21.733  0.00  0.00    +0.000 OA
BRANCH  11  12
ATOM     12  C   UNL     1       0.019   9.800  22.774  0.00  0.00    +0.000 C 
BRANCH  12  13
ATOM     13  C   UNL     1      -1.102  10.820  23.013  0.00  0.00    +0.000 C 
BRANCH  13  14
ATOM     14  C   UNL     1      -0.796  12.226  22.496  0.00  0.00    +0.000 C 
BRANCH  14  16
ATOM     15  C   UNL     1      -1.636  12.102  20.299  0.00  0.00    +0.000 C 
ATOM     16  O   UNL     1      -0.464  12.207  21.110  0.00  0.00    +0.000 OA
ENDBRANCH  14  16
ENDBRANCH  13  14
ENDBRANCH  12  13
ENDBRANCH  11  12
ENDBRANCH   3  11
ENDBRANCH   1   7
BRANCH   1  17
ATOM     17  N   UNL     1       2.725   4.610  18.867  0.00  0.00    +0.000 N 
ATOM     18  C   UNL     1       3.739   4.525  17.896  0.00  0.00    +0.000 C 
ATOM     19  O   UNL     1       3.608   3.869  16.855  0.00  0.00    +0.000 OA
BRANCH  18  20
ATOM     20  C   UNL     1       5.070   5.282  18.137  0.00  0.00    +0.000 C 
ATOM     21  C   UNL     1       6.310   4.369  17.913  0.00  0.00    +0.000 C 
ATOM     22  N   UNL     1       6.611   4.076  16.495  0.00  0.00    +0.000 NA
ATOM     23  C   UNL     1       6.625   5.337  15.737  0.00  0.00    +0.000 C 
ATOM     24  C   UNL     1       5.356   6.167  15.962  0.00  0.00    +0.000 C 
ATOM     25  O   UNL     1       5.191   6.476  17.355  0.00  0.00    +0.000 OA
ATOM     26  H   UNL     1       5.844   3.493  16.144  0.00  0.00    +0.000 HD
ENDBRANCH  18  20
BRANCH  17  27
ATOM     27  C   UNL     1       1.530   3.781  18.718  0.00  0.00    +0.000 C 
ATOM     28  C   UNL     1       1.453   2.372  18.178  0.00  0.00    +0.000 C 
ATOM     29  C   UNL     1       1.328   2.601  19.648  0.00  0.00    +0.000 C 
ENDBRANCH  17  27
ENDBRANCH   1  17
TORSDOF 10
ENDMDL
MODEL 4
REMARK VINA RESULT:      -6.7      1.481      1.905
REMARK  Name = 
REMARK  13 active torsions:
REMARK  status: ('A' for Active; 'I' for Inactive)
REMARK    1  A    between atoms: C_1  and  O_2
REMARK    2  A    between atoms: O_2  and  C_3
REMARK    3  A    between atoms: C_3  and  C_4
REMARK    4  A    between atoms: C_4  and  C_5
REMARK    5  A    between atoms: C_5  and  O_6
REMARK    6  A    between atoms: O_6  and  C_7
REMARK    7  A    between atoms: C_9  and  O_10
REMARK    8  A    between atoms: O_10  and  C_11
REMARK    9  A    between atoms: C_13  and  C_14
REMARK   10  A    between atoms: C_14  and  C_15
REMARK   11  A    between atoms: C_14  and  N_16
REMARK   12  A    between atoms: N_16  and  C_25
REMARK   13  A    between atoms: C_17  and  C_19
REMARK                            x       y       z     vdW  Elec       q    Type
REMARK                         _______ _______ _______ _____ _____    ______ ____
ROOT
ATOM      1  C   UNL     1       2.739   5.504  20.024  0.00  0.00    +0.000 C 
ATOM      2  C   UNL     1       2.139   4.822  21.265  0.00  0.00    +0.000 C 
ENDROOT
BRANCH   1   7
ATOM      3  C   UNL     1       0.736   8.720  20.739  0.00  0.00    +0.000 A 
ATOM      4  C   UNL     1       0.975   9.466  19.590  0.00  0.00    +0.000 A 
ATOM      5  C   UNL     1       1.814   8.977  18.589  0.00  0.00    +0.000 A 
ATOM      6  C   UNL     1       2.401   7.710  18.728  0.00  0.00    +0.000 A 
ATOM      7  C   UNL     1       2.228   6.953  19.902  0.00  0.00    +0.000 A 
ATOM      8  C   UNL     1       1.421   7.504  20.920  0.00  0.00    +0.000 A 
BRANCH   5   9
ATOM      9  O   UNL     1       1.939   9.804  17.507  0.00  0.00    +0.000 OA
ATOM     10  C   UNL     1       2.215  11.173  17.764  0.00  0.00    +0.000 C 
ENDBRANCH   5   9
BRANCH   3  11
ATOM     11  O   UNL     1      -0.149   9.065  21.726  0.00  0.00    +0.000 OA
BRANCH  11  12
ATOM     12  C   UNL     1      -0.712  10.395  21.714  0.00  0.00    +0.000 C 
BRANCH  12  13
ATOM     13  C   UNL     1      -0.980  10.920  23.130  0.00  0.00    +0.000 C 
BRANCH  13  14
ATOM     14  C   UNL     1      -1.813  12.201  23.181  0.00  0.00    +0.000 C 
BRANCH  14  16
ATOM     15  C   UNL     1      -3.898  12.579  24.210  0.00  0.00    +0.000 C 
ATOM     16  O   UNL     1      -3.208  11.913  23.150  0.00  0.00    +0.000 OA
ENDBRANCH  14  16
ENDBRANCH  13  14
ENDBRANCH  12  13
ENDBRANCH  11  12
ENDBRANCH   3  11
ENDBRANCH   1   7
BRANCH   1  17
ATOM     17  N   UNL     1       2.607   4.644  18.801  0.00  0.00    +0.000 N 
ATOM     18  C   UNL     1       3.622   4.469  17.844  0.00  0.00    +0.000 C 
ATOM     19  O   UNL     1       3.452   3.815  16.807  0.00  0.00    +0.000 OA
BRANCH  18  20
ATOM     20  C   UNL     1       5.007   5.119  18.095  0.00  0.00    +0.000 C 
ATOM     21  C   UNL     1       6.176   4.159  17.738  0.00  0.00    +0.000 C 
ATOM     22  N   UNL     1       6.407   3.980  16.288  0.00  0.00    +0.000 NA
ATOM     23  C   UNL     1       6.472   5.303  15.646  0.00  0.00    +0.000 C 
ATOM     24  C   UNL     1       5.268   6.183  15.998  0.00  0.00    +0.000 C 
ATOM     25  O   UNL     1       5.173   6.371  17.418  0.00  0.00    +0.000 OA
ATOM     26  H   UNL     1       5.591   3.479  15.918  0.00  0.00    +0.000 HD
ENDBRANCH  18  20
BRANCH  17  27
ATOM     27  C   UNL     1       1.351   3.912  18.645  0.00  0.00    +0.000 C 
ATOM     28  C   UNL     1       1.178   2.429  18.411  0.00  0.00    +0.000 C 
ATOM     29  C   UNL     1       0.885   2.997  19.760  0.00  0.00    +0.000 C 
ENDBRANCH  17  27
ENDBRANCH   1  17
TORSDOF 10
ENDMDL
MODEL 5
REMARK VINA RESULT:      -6.6      2.562      4.662
REMARK  Name = 
REMARK  13 active torsions:
REMARK  status: ('A' for Active; 'I' for Inactive)
REMARK    1  A    between atoms: C_1  and  O_2
REMARK    2  A    between atoms: O_2  and  C_3
REMARK    3  A    between atoms: C_3  and  C_4
REMARK    4  A    between atoms: C_4  and  C_5
REMARK    5  A    between atoms: C_5  and  O_6
REMARK    6  A    between atoms: O_6  and  C_7
REMARK    7  A    between atoms: C_9  and  O_10
REMARK    8  A    between atoms: O_10  and  C_11
REMARK    9  A    between atoms: C_13  and  C_14
REMARK   10  A    between atoms: C_14  and  C_15
REMARK   11  A    between atoms: C_14  and  N_16
REMARK   12  A    between atoms: N_16  and  C_25
REMARK   13  A    between atoms: C_17  and  C_19
REMARK                            x       y       z     vdW  Elec       q    Type
REMARK                         _______ _______ _______ _____ _____    ______ ____
ROOT
ATOM      1  C   UNL     1       3.404   6.681  17.585  0.00  0.00    +0.000 C 
ATOM      2  C   UNL     1       4.311   7.573  16.721  0.00  0.00    +0.000 C 
ENDROOT
BRANCH   1   7
ATOM      3  C   UNL     1       1.079   9.579  18.613  0.00  0.00    +0.000 A 
ATOM      4  C   UNL     1       0.939   9.361  19.979  0.00  0.00    +0.000 A 
ATOM      5  C   UNL     1       1.544   8.262  20.587  0.00  0.00    +0.000 A 
ATOM      6  C   UNL     1       2.325   7.383  19.822  0.00  0.00    +0.000 A 
ATOM      7  C   UNL     1       2.442   7.540  18.427  0.00  0.00    +0.000 A 
ATOM      8  C   UNL     1       1.767   8.629  17.835  0.00  0.00    +0.000 A 
BRANCH   5   9
ATOM      9  O   UNL     1       1.342   8.186  21.938  0.00  0.00    +0.000 OA
ATOM     10  C   UNL     1       0.420   9.103  22.510  0.00  0.00    +0.000 C 
ENDBRANCH   5   9
BRANCH   3  11
ATOM     11  O   UNL     1       0.613  10.680  17.945  0.00  0.00    +0.000 OA
BRANCH  11  12
ATOM     12  C   UNL     1      -0.683  11.207  18.302  0.00  0.00    +0.000 C 
BRANCH  12  13
ATOM     13  C   UNL     1      -1.823  10.456  17.604  0.00  0.00    +0.000 C 
BRANCH  13  14
ATOM     14  C   UNL     1      -3.191  11.126  17.729  0.00  0.00    +0.000 C 
BRANCH  14  16
ATOM     15  C   UNL     1      -3.007  10.772  15.408  0.00  0.00    +0.000 C 
ATOM     16  O   UNL     1      -3.745  11.416  16.448  0.00  0.00    +0.000 OA
ENDBRANCH  14  16
ENDBRANCH  13  14
ENDBRANCH  12  13
ENDBRANCH  11  12
ENDBRANCH   3  11
ENDBRANCH   1   7
BRANCH   1  17
ATOM     17  N   UNL     1       4.193   5.641  18.325  0.00  0.00    +0.000 N 
ATOM     18  C   UNL     1       3.810   4.293  18.445  0.00  0.00    +0.000 C 
ATOM     19  O   UNL     1       4.445   3.480  19.129  0.00  0.00    +0.000 OA
BRANCH  18  20
ATOM     20  C   UNL     1       2.545   3.806  17.694  0.00  0.00    +0.000 C 
ATOM     21  C   UNL     1       2.483   2.255  17.599  0.00  0.00    +0.000 C 
ATOM     22  N   UNL     1       2.123   1.574  18.861  0.00  0.00    +0.000 NA
ATOM     23  C   UNL     1       0.920   2.210  19.422  0.00  0.00    +0.000 C 
ATOM     24  C   UNL     1       1.063   3.731  19.535  0.00  0.00    +0.000 C 
ATOM     25  O   UNL     1       1.327   4.314  18.250  0.00  0.00    +0.000 OA
ATOM     26  H   UNL     1       2.903   1.723  19.511  0.00  0.00    +0.000 HD
ENDBRANCH  18  20
BRANCH  17  27
ATOM     27  C   UNL     1       5.464   6.071  18.907  0.00  0.00    +0.000 C 
ATOM     28  C   UNL     1       6.633   5.198  19.304  0.00  0.00    +0.000 C 
ATOM     29  C   UNL     1       6.720   6.019  18.060  0.00  0.00    +0.000 C 
ENDBRANCH  17  27
ENDBRANCH   1  17
TORSDOF 10
ENDMDL
MODEL 6
REMARK VINA RESULT:      -6.5      2.085      4.372
REMARK  Name = 
REMARK  13 active torsions:
REMARK  status: ('A' for Active; 'I' for Inactive)
REMARK    1  A    between atoms: C_1  and  O_2
REMARK    2  A    between atoms: O_2  and  C_3
REMARK    3  A    between atoms: C_3  and  C_4
REMARK    4  A    between atoms: C_4  and  C_5
REMARK    5  A    between atoms: C_5  and  O_6
REMARK    6  A    between atoms: O_6  and  C_7
REMARK    7  A    between atoms: C_9  and  O_10
REMARK    8  A    between atoms: O_10  and  C_11
REMARK    9  A    between atoms: C_13  and  C_14
REMARK   10  A    between atoms: C_14  and  C_15
REMARK   11  A    between atoms: C_14  and  N_16
REMARK   12  A    between atoms: N_16  and  C_25
REMARK   13  A    between atoms: C_17  and  C_19
REMARK                            x       y       z     vdW  Elec       q    Type
REMARK                         _______ _______ _______ _____ _____    ______ ____
ROOT
ATOM      1  C   UNL     1       3.621   6.506  17.510  0.00  0.00    +0.000 C 
ATOM      2  C   UNL     1       4.566   7.299  16.592  0.00  0.00    +0.000 C 
ENDROOT
BRANCH   1   7
ATOM      3  C   UNL     1       1.734   9.712  18.522  0.00  0.00    +0.000 A 
ATOM      4  C   UNL     1       1.297   9.393  19.803  0.00  0.00    +0.000 A 
ATOM      5  C   UNL     1       1.556   8.136  20.348  0.00  0.00    +0.000 A 
ATOM      6  C   UNL     1       2.288   7.193  19.610  0.00  0.00    +0.000 A 
ATOM      7  C   UNL     1       2.696   7.460  18.289  0.00  0.00    +0.000 A 
ATOM      8  C   UNL     1       2.365   8.721  17.747  0.00  0.00    +0.000 A 
BRANCH   5   9
ATOM      9  O   UNL     1       1.090   7.969  21.623  0.00  0.00    +0.000 OA
ATOM     10  C   UNL     1       0.209   8.963  22.127  0.00  0.00    +0.000 C 
ENDBRANCH   5   9
BRANCH   3  11
ATOM     11  O   UNL     1       1.621  10.948  17.942  0.00  0.00    +0.000 OA
BRANCH  11  12
ATOM     12  C   UNL     1       1.490  12.103  18.799  0.00  0.00    +0.000 C 
BRANCH  12  13
ATOM     13  C   UNL     1       0.326  13.007  18.372  0.00  0.00    +0.000 C 
BRANCH  13  14
ATOM     14  C   UNL     1      -1.054  12.499  18.789  0.00  0.00    +0.000 C 
BRANCH  14  16
ATOM     15  C   UNL     1      -1.921  10.443  18.033  0.00  0.00    +0.000 C 
ATOM     16  O   UNL     1      -1.700  11.818  17.716  0.00  0.00    +0.000 OA
ENDBRANCH  14  16
ENDBRANCH  13  14
ENDBRANCH  12  13
ENDBRANCH  11  12
ENDBRANCH   3  11
ENDBRANCH   1   7
BRANCH   1  17
ATOM     17  N   UNL     1       4.363   5.484  18.321  0.00  0.00    +0.000 N 
ATOM     18  C   UNL     1       3.985   4.134  18.430  0.00  0.00    +0.000 C 
ATOM     19  O   UNL     1       4.575   3.337  19.170  0.00  0.00    +0.000 OA
BRANCH  18  20
ATOM     20  C   UNL     1       2.784   3.623  17.593  0.00  0.00    +0.000 C 
ATOM     21  C   UNL     1       2.695   2.071  17.587  0.00  0.00    +0.000 C 
ATOM     22  N   UNL     1       2.202   1.477  18.848  0.00  0.00    +0.000 NA
ATOM     23  C   UNL     1       0.967   2.169  19.254  0.00  0.00    +0.000 C 
ATOM     24  C   UNL     1       1.136   3.691  19.287  0.00  0.00    +0.000 C 
ATOM     25  O   UNL     1       1.532   4.188  18.000  0.00  0.00    +0.000 OA
ATOM     26  H   UNL     1       2.921   1.652  19.559  0.00  0.00    +0.000 HD
ENDBRANCH  18  20
BRANCH  17  27
ATOM     27  C   UNL     1       5.582   5.935  18.989  0.00  0.00    +0.000 C 
ATOM     28  C   UNL     1       6.764   5.091  19.408  0.00  0.00    +0.000 C 
ATOM     29  C   UNL     1       6.882   5.973  18.210  0.00  0.00    +0.000 C 
ENDBRANCH  17  27
ENDBRANCH   1  17
TORSDOF 10
ENDMDL
MODEL 7
REMARK VINA RESULT:      -6.3      6.722     10.602
REMARK  Name = 
REMARK  13 active torsions:
REMARK  status: ('A' for Active; 'I' for Inactive)
REMARK    1  A    between atoms: C_1  and  O_2
REMARK    2  A    between atoms: O_2  and  C_3
REMARK    3  A    between atoms: C_3  and  C_4
REMARK    4  A    between atoms: C_4  and  C_5
REMARK    5  A    between atoms: C_5  and  O_6
REMARK    6  A    between atoms: O_6  and  C_7
REMARK    7  A    between atoms: C_9  and  O_10
REMARK    8  A    between atoms: O_10  and  C_11
REMARK    9  A    between atoms: C_13  and  C_14
REMARK   10  A    between atoms: C_14  and  C_15
REMARK   11  A    between atoms: C_14  and  N_16
REMARK   12  A    between atoms: N_16  and  C_25
REMARK   13  A    between atoms: C_17  and  C_19
REMARK                            x       y       z     vdW  Elec       q    Type
REMARK                         _______ _______ _______ _____ _____    ______ ____
ROOT
ATOM      1  C   UNL     1      -5.969  12.718  18.882  0.00  0.00    +0.000 C 
ATOM      2  C   UNL     1      -6.998  13.077  17.798  0.00  0.00    +0.000 C 
ENDROOT
BRANCH   1   7
ATOM      3  C   UNL     1      -2.363  11.416  18.467  0.00  0.00    +0.000 A 
ATOM      4  C   UNL     1      -2.312  11.150  17.103  0.00  0.00    +0.000 A 
ATOM      5  C   UNL     1      -3.438  11.336  16.302  0.00  0.00    +0.000 A 
ATOM      6  C   UNL     1      -4.626  11.824  16.868  0.00  0.00    +0.000 A 
ATOM      7  C   UNL     1      -4.731  12.049  18.255  0.00  0.00    +0.000 A 
ATOM      8  C   UNL     1      -3.590  11.793  19.045  0.00  0.00    +0.000 A 
BRANCH   5   9
ATOM      9  O   UNL     1      -3.237  11.058  14.978  0.00  0.00    +0.000 OA
ATOM     10  C   UNL     1      -3.879   9.905  14.452  0.00  0.00    +0.000 C 
ENDBRANCH   5   9
BRANCH   3  11
ATOM     11  O   UNL     1      -1.289  11.364  19.315  0.00  0.00    +0.000 OA
BRANCH  11  12
ATOM     12  C   UNL     1      -0.637  10.094  19.526  0.00  0.00    +0.000 C 
BRANCH  12  13
ATOM     13  C   UNL     1       0.778  10.260  20.095  0.00  0.00    +0.000 C 
BRANCH  13  14
ATOM     14  C   UNL     1       0.893   9.978  21.593  0.00  0.00    +0.000 C 
BRANCH  14  16
ATOM     15  C   UNL     1      -0.812  10.264  23.193  0.00  0.00    +0.000 C 
ATOM     16  O   UNL     1       0.143  10.920  22.356  0.00  0.00    +0.000 OA
ENDBRANCH  14  16
ENDBRANCH  13  14
ENDBRANCH  12  13
ENDBRANCH  11  12
ENDBRANCH   3  11
ENDBRANCH   1   7
BRANCH   1  17
ATOM     17  N   UNL     1      -6.606  11.998  20.034  0.00  0.00    +0.000 N 
ATOM     18  C   UNL     1      -6.478  12.388  21.380  0.00  0.00    +0.000 C 
ATOM     19  O   UNL     1      -6.953  11.726  22.311  0.00  0.00    +0.000 OA
BRANCH  18  20
ATOM     20  C   UNL     1      -5.715  13.697  21.710  0.00  0.00    +0.000 C 
ATOM     21  C   UNL     1      -6.186  14.324  23.053  0.00  0.00    +0.000 C 
ATOM     22  N   UNL     1      -5.710  13.619  24.262  0.00  0.00    +0.000 NA
ATOM     23  C   UNL     1      -4.258  13.404  24.152  0.00  0.00    +0.000 C 
ATOM     24  C   UNL     1      -3.866  12.739  22.829  0.00  0.00    +0.000 C 
ATOM     25  O   UNL     1      -4.292  13.535  21.713  0.00  0.00    +0.000 OA
ATOM     26  H   UNL     1      -6.175  12.704  24.273  0.00  0.00    +0.000 HD
ENDBRANCH  18  20
BRANCH  17  27
ATOM     27  C   UNL     1      -7.449  10.850  19.706  0.00  0.00    +0.000 C 
ATOM     28  C   UNL     1      -7.063   9.626  18.909  0.00  0.00    +0.000 C 
ATOM     29  C   UNL     1      -7.192   9.523  20.392  0.00  0.00    +0.000 C 
ENDBRANCH  17  27
ENDBRANCH   1  17
TORSDOF 10
ENDMDL
MODEL 8
REMARK VINA RESULT:      -6.3      3.946      8.363
REMARK  Name = 
REMARK  13 active torsions:
REMARK  status: ('A' for Active; 'I' for Inactive)
REMARK    1  A    between atoms: C_1  and  O_2
REMARK    2  A    between atoms: O_2  and  C_3
REMARK    3  A    between atoms: C_3  and  C_4
REMARK    4  A    between atoms: C_4  and  C_5
REMARK    5  A    between atoms: C_5  and  O_6
REMARK    6  A    between atoms: O_6  and  C_7
REMARK    7  A    between atoms: C_9  and  O_10
REMARK    8  A    between atoms: O_10  and  C_11
REMARK    9  A    between atoms: C_13  and  C_14
REMARK   10  A    between atoms: C_14  and  C_15
REMARK   11  A    between atoms: C_14  and  N_16
REMARK   12  A    between atoms: N_16  and  C_25
REMARK   13  A    between atoms: C_17  and  C_19
REMARK                            x       y       z     vdW  Elec       q    Type
REMARK                         _______ _______ _______ _____ _____    ______ ____
ROOT
ATOM      1  C   UNL     1      -0.184  10.458  20.364  0.00  0.00    +0.000 C 
ATOM      2  C   UNL     1       0.289  10.887  21.764  0.00  0.00    +0.000 C 
ENDROOT
BRANCH   1   7
ATOM      3  C   UNL     1       1.689   7.088  20.348  0.00  0.00    +0.000 A 
ATOM      4  C   UNL     1       2.407   7.167  19.159  0.00  0.00    +0.000 A 
ATOM      5  C   UNL     1       2.271   8.273  18.322  0.00  0.00    +0.000 A 
ATOM      6  C   UNL     1       1.426   9.331  18.692  0.00  0.00    +0.000 A 
ATOM      7  C   UNL     1       0.640   9.259  19.858  0.00  0.00    +0.000 A 
ATOM      8  C   UNL     1       0.758   8.098  20.653  0.00  0.00    +0.000 A 
BRANCH   5   9
ATOM      9  O   UNL     1       3.054   8.229  17.200  0.00  0.00    +0.000 OA
ATOM     10  C   UNL     1       4.049   7.216  17.143  0.00  0.00    +0.000 C 
ENDBRANCH   5   9
BRANCH   3  11
ATOM     11  O   UNL     1       1.831   6.098  21.283  0.00  0.00    +0.000 OA
BRANCH  11  12
ATOM     12  C   UNL     1       2.310   4.805  20.852  0.00  0.00    +0.000 C 
BRANCH  12  13
ATOM     13  C   UNL     1       1.161   3.823  20.593  0.00  0.00    +0.000 C 
BRANCH  13  14
ATOM     14  C   UNL     1       1.134   3.242  19.179  0.00  0.00    +0.000 C 
BRANCH  14  16
ATOM     15  C   UNL     1       2.954   1.905  18.508  0.00  0.00    +0.000 C 
ATOM     16  O   UNL     1       1.677   1.924  19.150  0.00  0.00    +0.000 OA
ENDBRANCH  14  16
ENDBRANCH  13  14
ENDBRANCH  12  13
ENDBRANCH  11  12
ENDBRANCH   3  11
ENDBRANCH   1   7
BRANCH   1  17
ATOM     17  N   UNL     1      -0.297  11.631  19.435  0.00  0.00    +0.000 N 
ATOM     18  C   UNL     1      -1.290  11.765  18.448  0.00  0.00    +0.000 C 
ATOM     19  O   UNL     1      -1.307  12.708  17.647  0.00  0.00    +0.000 OA
BRANCH  18  20
ATOM     20  C   UNL     1      -2.405  10.692  18.359  0.00  0.00    +0.000 C 
ATOM     21  C   UNL     1      -3.819  11.328  18.236  0.00  0.00    +0.000 C 
ATOM     22  N   UNL     1      -4.122  11.904  16.908  0.00  0.00    +0.000 NA
ATOM     23  C   UNL     1      -3.795  10.914  15.870  0.00  0.00    +0.000 C 
ATOM     24  C   UNL     1      -2.373  10.362  16.017  0.00  0.00    +0.000 C 
ATOM     25  O   UNL     1      -2.196   9.747  17.303  0.00  0.00    +0.000 OA
ATOM     26  H   UNL     1      -3.506  12.716  16.790  0.00  0.00    +0.000 HD
ENDBRANCH  18  20
BRANCH  17  27
ATOM     27  C   UNL     1       0.667  12.713  19.622  0.00  0.00    +0.000 C 
ATOM     28  C   UNL     1       2.103  12.594  20.078  0.00  0.00    +0.000 C 
ATOM     29  C   UNL     1       1.812  12.862  18.639  0.00  0.00    +0.000 C 
ENDBRANCH  17  27
ENDBRANCH   1  17
TORSDOF 10
ENDMDL
MODEL 9
REMARK VINA RESULT:      -6.2      2.172      4.328
REMARK  Name = 
REMARK  13 active torsions:
REMARK  status: ('A' for Active; 'I' for Inactive)
REMARK    1  A    between atoms: C_1  and  O_2
REMARK    2  A    between atoms: O_2  and  C_3
REMARK    3  A    between atoms: C_3  and  C_4
REMARK    4  A    between atoms: C_4  and  C_5
REMARK    5  A    between atoms: C_5  and  O_6
REMARK    6  A    between atoms: O_6  and  C_7
REMARK    7  A    between atoms: C_9  and  O_10
REMARK    8  A    between atoms: O_10  and  C_11
REMARK    9  A    between atoms: C_13  and  C_14
REMARK   10  A    between atoms: C_14  and  C_15
REMARK   11  A    between atoms: C_14  and  N_16
REMARK   12  A    between atoms: N_16  and  C_25
REMARK   13  A    between atoms: C_17  and  C_19
REMARK                            x       y       z     vdW  Elec       q    Type
REMARK                         _______ _______ _______ _____ _____    ______ ____
ROOT
ATOM      1  C   UNL     1       3.840   6.320  17.455  0.00  0.00    +0.000 C 
ATOM      2  C   UNL     1       4.711   7.108  16.461  0.00  0.00    +0.000 C 
ENDROOT
BRANCH   1   7
ATOM      3  C   UNL     1       1.851   9.493  18.367  0.00  0.00    +0.000 A 
ATOM      4  C   UNL     1       1.400   9.188  19.648  0.00  0.00    +0.000 A 
ATOM      5  C   UNL     1       1.683   7.950  20.222  0.00  0.00    +0.000 A 
ATOM      6  C   UNL     1       2.453   7.012  19.518  0.00  0.00    +0.000 A 
ATOM      7  C   UNL     1       2.877   7.264  18.198  0.00  0.00    +0.000 A 
ATOM      8  C   UNL     1       2.521   8.504  17.625  0.00  0.00    +0.000 A 
BRANCH   5   9
ATOM      9  O   UNL     1       1.199   7.797  21.493  0.00  0.00    +0.000 OA
ATOM     10  C   UNL     1       0.878   8.979  22.213  0.00  0.00    +0.000 C 
ENDBRANCH   5   9
BRANCH   3  11
ATOM     11  O   UNL     1       1.715  10.713  17.760  0.00  0.00    +0.000 OA
BRANCH  11  12
ATOM     12  C   UNL     1       1.788  11.902  18.576  0.00  0.00    +0.000 C 
BRANCH  12  13
ATOM     13  C   UNL     1       0.407  12.342  19.079  0.00  0.00    +0.000 C 
BRANCH  13  14
ATOM     14  C   UNL     1      -0.233  13.467  18.266  0.00  0.00    +0.000 C 
BRANCH  14  16
ATOM     15  C   UNL     1       0.702  15.479  19.055  0.00  0.00    +0.000 C 
ATOM     16  O   UNL     1      -0.445  14.628  19.065  0.00  0.00    +0.000 OA
ENDBRANCH  14  16
ENDBRANCH  13  14
ENDBRANCH  12  13
ENDBRANCH  11  12
ENDBRANCH   3  11
ENDBRANCH   1   7
BRANCH   1  17
ATOM     17  N   UNL     1       4.666   5.401  18.307  0.00  0.00    +0.000 N 
ATOM     18  C   UNL     1       4.423   4.024  18.452  0.00  0.00    +0.000 C 
ATOM     19  O   UNL     1       5.076   3.312  19.225  0.00  0.00    +0.000 OA
BRANCH  18  20
ATOM     20  C   UNL     1       3.293   3.372  17.614  0.00  0.00    +0.000 C 
ATOM     21  C   UNL     1       3.279   1.823  17.758  0.00  0.00    +0.000 C 
ATOM     22  N   UNL     1       2.749   1.330  19.048  0.00  0.00    +0.000 NA
ATOM     23  C   UNL     1       1.464   1.991  19.323  0.00  0.00    +0.000 C 
ATOM     24  C   UNL     1       1.557   3.517  19.213  0.00  0.00    +0.000 C 
ATOM     25  O   UNL     1       1.996   3.906  17.903  0.00  0.00    +0.000 OA
ATOM     26  H   UNL     1       3.421   1.610  19.771  0.00  0.00    +0.000 HD
ENDBRANCH  18  20
BRANCH  17  27
ATOM     27  C   UNL     1       5.823   5.991  18.979  0.00  0.00    +0.000 C 
ATOM     28  C   UNL     1       7.082   5.284  19.427  0.00  0.00    +0.000 C 
ATOM     29  C   UNL     1       7.121   6.151  18.213  0.00  0.00    +0.000 C 
ENDBRANCH  17  27
ENDBRANCH   1  17
TORSDOF 10
ENDMDL
