MODEL 1
REMARK VINA RESULT:      -8.0      0.000      0.000
REMARK  Name = 
REMARK  6 active torsions:
REMARK  status: ('A' for Active; 'I' for Inactive)
REMARK    1  A    between atoms: C_1  and  C_2
REMARK    2  A    between atoms: C_2  and  C_3
REMARK    3  A    between atoms: C_7  and  C_8
REMARK    4  A    between atoms: N_10  and  C_11
REMARK    5  A    between atoms: C_11  and  C_12
REMARK    6  A    between atoms: C_25  and  C_26
REMARK                            x       y       z     vdW  Elec       q    Type
REMARK                         _______ _______ _______ _____ _____    ______ ____
ROOT
ATOM      1  C   UNL     1      -2.444  11.107  17.285  0.00  0.00    +0.000 C 
ATOM      2  N   UNL     1      -1.237  10.667  17.503  0.00  0.00    +0.000 NA
ATOM      3  C   UNL     1      -0.629  10.568  18.769  0.00  0.00    +0.000 A 
ATOM      4  C   UNL     1       0.126   9.415  19.026  0.00  0.00    +0.000 A 
ATOM      5  C   UNL     1       0.799   9.240  20.246  0.00  0.00    +0.000 A 
ATOM      6  C   UNL     1       0.730  10.241  21.221  0.00  0.00    +0.000 A 
ATOM      7  C   UNL     1       0.023  11.415  20.961  0.00  0.00    +0.000 A 
ATOM      8  C   UNL     1      -0.630  11.591  19.732  0.00  0.00    +0.000 A 
ATOM      9  S   UNL     1      -1.467  13.140  19.459  0.00  0.00    +0.000 S 
ATOM     10  C   UNL     1      -3.099  12.456  19.310  0.00  0.00    +0.000 A 
ATOM     11  C   UNL     1      -4.052  12.843  20.260  0.00  0.00    +0.000 A 
ATOM     12  C   UNL     1      -5.364  12.383  20.174  0.00  0.00    +0.000 A 
ATOM     13  C   UNL     1      -5.746  11.532  19.134  0.00  0.00    +0.000 A 
ATOM     14  C   UNL     1      -7.182  11.121  18.987  0.00  0.00    +0.000 C 
ATOM     15  C   UNL     1      -4.779  11.099  18.213  0.00  0.00    +0.000 A 
ATOM     16  C   UNL     1      -3.450  11.551  18.301  0.00  0.00    +0.000 A 
ENDROOT
BRANCH   5  17
ATOM     17  C   UNL     1       1.638   8.027  20.501  0.00  0.00    +0.000 C 
ATOM     18  O   UNL     1       1.759   7.584  21.631  0.00  0.00    +0.000 OA
ATOM     19  N   UNL     1       2.226   7.464  19.385  0.00  0.00    +0.000 N 
ATOM     20  H   UNL     1       1.851   7.699  18.478  0.00  0.00    +0.000 HD
BRANCH  19  21
ATOM     21  C   UNL     1       3.049   6.271  19.468  0.00  0.00    +0.000 C 
BRANCH  21  22
ATOM     22  C   UNL     1       2.227   5.026  19.262  0.00  0.00    +0.000 A 
ATOM     23  C   UNL     1       1.701   4.293  20.330  0.00  0.00    +0.000 A 
ATOM     24  C   UNL     1       0.991   3.117  20.083  0.00  0.00    +0.000 A 
ATOM     25  C   UNL     1       0.815   2.720  18.769  0.00  0.00    +0.000 A 
ATOM     26  N   UNL     1       1.270   3.420  17.710  0.00  0.00    +0.000 NA
ATOM     27  C   UNL     1       1.956   4.556  17.980  0.00  0.00    +0.000 A 
ENDBRANCH  21  22
ENDBRANCH  19  21
ENDBRANCH   5  17
BRANCH   1  29
ATOM     28  C   UNL     1      -2.996   9.807  15.221  0.00  0.00    +0.000 C 
ATOM     29  C   UNL     1      -2.870  11.200  15.821  0.00  0.00    +0.000 C 
ENDBRANCH   1  29
TORSDOF 4
ENDMDL
MODEL 2
REMARK VINA RESULT:      -7.9      3.310      5.378
REMARK  Name = 
REMARK  6 active torsions:
REMARK  status: ('A' for Active; 'I' for Inactive)
REMARK    1  A    between atoms: C_1  and  C_2
REMARK    2  A    between atoms: C_2  and  C_3
REMARK    3  A    between atoms: C_7  and  C_8
REMARK    4  A    between atoms: N_10  and  C_11
REMARK    5  A    between atoms: C_11  and  C_12
REMARK    6  A    between atoms: C_25  and  C_26
REMARK                            x       y       z     vdW  Elec       q    Type
REMARK                         _______ _______ _______ _____ _____    ______ ____
ROOT
ATOM      1  C   UNL     1      -0.072  11.074  21.566  0.00  0.00    +0.000 C 
ATOM      2  N   UNL     1       0.075   9.817  21.253  0.00  0.00    +0.000 NA
ATOM      3  C   UNL     1       0.716   9.343  20.093  0.00  0.00    +0.000 A 
ATOM      4  C   UNL     1       1.557   8.230  20.238  0.00  0.00    +0.000 A 
ATOM      5  C   UNL     1       2.214   7.662  19.135  0.00  0.00    +0.000 A 
ATOM      6  C   UNL     1       2.015   8.205  17.861  0.00  0.00    +0.000 A 
ATOM      7  C   UNL     1       1.144   9.281  17.693  0.00  0.00    +0.000 A 
ATOM      8  C   UNL     1       0.476   9.830  18.797  0.00  0.00    +0.000 A 
ATOM      9  S   UNL     1      -0.660  11.168  18.490  0.00  0.00    +0.000 S 
ATOM     10  C   UNL     1       0.218  12.389  19.436  0.00  0.00    +0.000 A 
ATOM     11  C   UNL     1       0.715  13.504  18.751  0.00  0.00    +0.000 A 
ATOM     12  C   UNL     1       1.370  14.523  19.439  0.00  0.00    +0.000 A 
ATOM     13  C   UNL     1       1.535  14.445  20.824  0.00  0.00    +0.000 A 
ATOM     14  C   UNL     1       2.149  15.592  21.574  0.00  0.00    +0.000 C 
ATOM     15  C   UNL     1       1.086  13.303  21.505  0.00  0.00    +0.000 A 
ATOM     16  C   UNL     1       0.434  12.265  20.815  0.00  0.00    +0.000 A 
ENDROOT
BRANCH   5  17
ATOM     17  C   UNL     1       3.078   6.451  19.287  0.00  0.00    +0.000 C 
ATOM     18  O   UNL     1       2.885   5.662  20.197  0.00  0.00    +0.000 OA
ATOM     19  N   UNL     1       4.065   6.298  18.331  0.00  0.00    +0.000 N 
ATOM     20  H   UNL     1       3.974   6.811  17.466  0.00  0.00    +0.000 HD
BRANCH  19  21
ATOM     21  C   UNL     1       4.967   5.161  18.331  0.00  0.00    +0.000 C 
BRANCH  21  22
ATOM     22  C   UNL     1       5.660   5.015  17.002  0.00  0.00    +0.000 A 
ATOM     23  C   UNL     1       5.253   4.080  16.045  0.00  0.00    +0.000 A 
ATOM     24  C   UNL     1       5.965   3.952  14.852  0.00  0.00    +0.000 A 
ATOM     25  C   UNL     1       7.055   4.778  14.645  0.00  0.00    +0.000 A 
ATOM     26  N   UNL     1       7.455   5.720  15.523  0.00  0.00    +0.000 NA
ATOM     27  C   UNL     1       6.746   5.821  16.673  0.00  0.00    +0.000 A 
ENDBRANCH  21  22
ENDBRANCH  19  21
ENDBRANCH   5  17
BRANCH   1  29
ATOM     28  C   UNL     1      -2.181  12.052  22.488  0.00  0.00    +0.000 C 
ATOM     29  C   UNL     1      -0.871  11.359  22.836  0.00  0.00    +0.000 C 
ENDBRANCH   1  29
TORSDOF 4
ENDMDL
MODEL 3
REMARK VINA RESULT:      -7.5      2.908      4.623
REMARK  Name = 
REMARK  6 active torsions:
REMARK  status: ('A' for Active; 'I' for Inactive)
REMARK    1  A    between atoms: C_1  and  C_2
REMARK    2  A    between atoms: C_2  and  C_3
REMARK    3  A    between atoms: C_7  and  C_8
REMARK    4  A    between atoms: N_10  and  C_11
REMARK    5  A    between atoms: C_11  and  C_12
REMARK    6  A    between atoms: C_25  and  C_26
REMARK                            x       y       z     vdW  Elec       q    Type
REMARK                         _______ _______ _______ _____ _____    ______ ____
ROOT
ATOM      1  C   UNL     1      -0.375  11.952  21.710  0.00  0.00    +0.000 C 
ATOM      2  N   UNL     1      -0.345  10.670  21.475  0.00  0.00    +0.000 NA
ATOM      3  C   UNL     1       0.288  10.065  20.374  0.00  0.00    +0.000 A 
ATOM      4  C   UNL     1       1.005   8.885  20.618  0.00  0.00    +0.000 A 
ATOM      5  C   UNL     1       1.643   8.188  19.579  0.00  0.00    +0.000 A 
ATOM      6  C   UNL     1       1.549   8.670  18.269  0.00  0.00    +0.000 A 
ATOM      7  C   UNL     1       0.798   9.814  18.002  0.00  0.00    +0.000 A 
ATOM      8  C   UNL     1       0.148  10.493  19.043  0.00  0.00    +0.000 A 
ATOM      9  S   UNL     1      -0.833  11.916  18.611  0.00  0.00    +0.000 S 
ATOM     10  C   UNL     1       0.127  13.099  19.524  0.00  0.00    +0.000 A 
ATOM     11  C   UNL     1       0.760  14.116  18.799  0.00  0.00    +0.000 A 
ATOM     12  C   UNL     1       1.489  15.105  19.455  0.00  0.00    +0.000 A 
ATOM     13  C   UNL     1       1.593  15.096  20.849  0.00  0.00    +0.000 A 
ATOM     14  C   UNL     1       2.292  16.219  21.559  0.00  0.00    +0.000 C 
ATOM     15  C   UNL     1       1.004  14.047  21.573  0.00  0.00    +0.000 A 
ATOM     16  C   UNL     1       0.277  13.039  20.915  0.00  0.00    +0.000 A 
ENDROOT
BRANCH   5  17
ATOM     17  C   UNL     1       2.372   6.909  19.837  0.00  0.00    +0.000 C 
ATOM     18  O   UNL     1       3.381   6.632  19.210  0.00  0.00    +0.000 OA
ATOM     19  N   UNL     1       1.835   6.105  20.825  0.00  0.00    +0.000 N 
ATOM     20  H   UNL     1       1.196   6.522  21.485  0.00  0.00    +0.000 HD
BRANCH  19  21
ATOM     21  C   UNL     1       2.443   4.842  21.206  0.00  0.00    +0.000 C 
BRANCH  21  22
ATOM     22  C   UNL     1       2.234   3.794  20.146  0.00  0.00    +0.000 A 
ATOM     23  C   UNL     1       0.961   3.430  19.696  0.00  0.00    +0.000 A 
ATOM     24  C   UNL     1       0.823   2.413  18.749  0.00  0.00    +0.000 A 
ATOM     25  C   UNL     1       1.968   1.804  18.268  0.00  0.00    +0.000 A 
ATOM     26  N   UNL     1       3.215   2.154  18.644  0.00  0.00    +0.000 NA
ATOM     27  C   UNL     1       3.318   3.143  19.565  0.00  0.00    +0.000 A 
ENDBRANCH  21  22
ENDBRANCH  19  21
ENDBRANCH   5  17
BRANCH   1  29
ATOM     28  C   UNL     1      -2.678  12.291  22.626  0.00  0.00    +0.000 C 
ATOM     29  C   UNL     1      -1.189  12.392  22.926  0.00  0.00    +0.000 C 
ENDBRANCH   1  29
TORSDOF 4
ENDMDL
MODEL 4
REMARK VINA RESULT:      -7.4      1.581      2.224
REMARK  Name = 
REMARK  6 active torsions:
REMARK  status: ('A' for Active; 'I' for Inactive)
REMARK    1  A    between atoms: C_1  and  C_2
REMARK    2  A    between atoms: C_2  and  C_3
REMARK    3  A    between atoms: C_7  and  C_8
REMARK    4  A    between atoms: N_10  and  C_11
REMARK    5  A    between atoms: C_11  and  C_12
REMARK    6  A    between atoms: C_25  and  C_26
REMARK                            x       y       z     vdW  Elec       q    Type
REMARK                         _______ _______ _______ _____ _____    ______ ____
ROOT
ATOM      1  C   UNL     1      -2.348  11.032  17.175  0.00  0.00    +0.000 C 
ATOM      2  N   UNL     1      -1.149  10.552  17.350  0.00  0.00    +0.000 NA
ATOM      3  C   UNL     1      -0.504  10.420  18.594  0.00  0.00    +0.000 A 
ATOM      4  C   UNL     1       0.224   9.242  18.814  0.00  0.00    +0.000 A 
ATOM      5  C   UNL     1       0.929   9.032  20.010  0.00  0.00    +0.000 A 
ATOM      6  C   UNL     1       0.922  10.022  20.997  0.00  0.00    +0.000 A 
ATOM      7  C   UNL     1       0.243  11.220  20.773  0.00  0.00    +0.000 A 
ATOM      8  C   UNL     1      -0.442  11.431  19.569  0.00  0.00    +0.000 A 
ATOM      9  S   UNL     1      -1.240  13.008  19.340  0.00  0.00    +0.000 S 
ATOM     10  C   UNL     1      -2.896  12.375  19.235  0.00  0.00    +0.000 A 
ATOM     11  C   UNL     1      -3.807  12.780  20.219  0.00  0.00    +0.000 A 
ATOM     12  C   UNL     1      -5.134  12.361  20.171  0.00  0.00    +0.000 A 
ATOM     13  C   UNL     1      -5.575  11.534  19.134  0.00  0.00    +0.000 A 
ATOM     14  C   UNL     1      -7.027  11.169  19.028  0.00  0.00    +0.000 C 
ATOM     15  C   UNL     1      -4.651  11.083  18.177  0.00  0.00    +0.000 A 
ATOM     16  C   UNL     1      -3.306  11.493  18.227  0.00  0.00    +0.000 A 
ENDROOT
BRANCH   5  17
ATOM     17  C   UNL     1       1.738   7.791  20.225  0.00  0.00    +0.000 C 
ATOM     18  O   UNL     1       1.775   7.257  21.321  0.00  0.00    +0.000 OA
ATOM     19  N   UNL     1       2.399   7.311  19.110  0.00  0.00    +0.000 N 
ATOM     20  H   UNL     1       2.091   7.622  18.202  0.00  0.00    +0.000 HD
BRANCH  19  21
ATOM     21  C   UNL     1       3.205   6.104  19.155  0.00  0.00    +0.000 C 
BRANCH  21  22
ATOM     22  C   UNL     1       3.952   5.899  17.864  0.00  0.00    +0.000 A 
ATOM     23  C   UNL     1       4.173   4.630  17.320  0.00  0.00    +0.000 A 
ATOM     24  C   UNL     1       4.919   4.496  16.148  0.00  0.00    +0.000 A 
ATOM     25  C   UNL     1       5.406   5.642  15.545  0.00  0.00    +0.000 A 
ATOM     26  N   UNL     1       5.181   6.886  16.013  0.00  0.00    +0.000 NA
ATOM     27  C   UNL     1       4.455   6.986  17.153  0.00  0.00    +0.000 A 
ENDBRANCH  21  22
ENDBRANCH  19  21
ENDBRANCH   5  17
BRANCH   1  29
ATOM     28  C   UNL     1      -3.003   9.774  15.116  0.00  0.00    +0.000 C 
ATOM     29  C   UNL     1      -2.816  11.155  15.727  0.00  0.00    +0.000 C 
ENDBRANCH   1  29
TORSDOF 4
ENDMDL
MODEL 5
REMARK VINA RESULT:      -7.4      0.998      1.000
REMARK  Name = 
REMARK  6 active torsions:
REMARK  status: ('A' for Active; 'I' for Inactive)
REMARK    1  A    between atoms: C_1  and  C_2
REMARK    2  A    between atoms: C_2  and  C_3
REMARK    3  A    between atoms: C_7  and  C_8
REMARK    4  A    between atoms: N_10  and  C_11
REMARK    5  A    between atoms: C_11  and  C_12
REMARK    6  A    between atoms: C_25  and  C_26
REMARK                            x       y       z     vdW  Elec       q    Type
REMARK                         _______ _______ _______ _____ _____    ______ ____
ROOT
ATOM      1  C   UNL     1      -2.978  11.162  17.133  0.00  0.00    +0.000 C 
ATOM      2  N   UNL     1      -1.732  10.798  17.019  0.00  0.00    +0.000 NA
ATOM      3  C   UNL     1      -0.819  10.694  18.085  0.00  0.00    +0.000 A 
ATOM      4  C   UNL     1       0.042   9.588  18.083  0.00  0.00    +0.000 A 
ATOM      5  C   UNL     1       1.011   9.414  19.085  0.00  0.00    +0.000 A 
ATOM      6  C   UNL     1       1.134  10.372  20.097  0.00  0.00    +0.000 A 
ATOM      7  C   UNL     1       0.319  11.503  20.085  0.00  0.00    +0.000 A 
ATOM      8  C   UNL     1      -0.633  11.679  19.070  0.00  0.00    +0.000 A 
ATOM      9  S   UNL     1      -1.599  13.176  19.097  0.00  0.00    +0.000 S 
ATOM     10  C   UNL     1      -3.174  12.388  19.326  0.00  0.00    +0.000 A 
ATOM     11  C   UNL     1      -3.876  12.674  20.502  0.00  0.00    +0.000 A 
ATOM     12  C   UNL     1      -5.139  12.129  20.724  0.00  0.00    +0.000 A 
ATOM     13  C   UNL     1      -5.722  11.292  19.769  0.00  0.00    +0.000 A 
ATOM     14  C   UNL     1      -7.123  10.790  19.965  0.00  0.00    +0.000 C 
ATOM     15  C   UNL     1      -4.997  10.960  18.614  0.00  0.00    +0.000 A 
ATOM     16  C   UNL     1      -3.717  11.498  18.390  0.00  0.00    +0.000 A 
ENDROOT
BRANCH   5  17
ATOM     17  C   UNL     1       1.954   8.253  19.058  0.00  0.00    +0.000 C 
ATOM     18  O   UNL     1       2.808   8.168  18.191  0.00  0.00    +0.000 OA
ATOM     19  N   UNL     1       1.793   7.331  20.074  0.00  0.00    +0.000 N 
ATOM     20  H   UNL     1       1.283   7.613  20.898  0.00  0.00    +0.000 HD
BRANCH  19  21
ATOM     21  C   UNL     1       2.647   6.163  20.196  0.00  0.00    +0.000 C 
BRANCH  21  22
ATOM     22  C   UNL     1       1.953   4.925  19.695  0.00  0.00    +0.000 A 
ATOM     23  C   UNL     1       1.339   4.010  20.557  0.00  0.00    +0.000 A 
ATOM     24  C   UNL     1       0.757   2.852  20.041  0.00  0.00    +0.000 A 
ATOM     25  C   UNL     1       0.790   2.653  18.672  0.00  0.00    +0.000 A 
ATOM     26  N   UNL     1       1.333   3.530  17.804  0.00  0.00    +0.000 NA
ATOM     27  C   UNL     1       1.893   4.644  18.333  0.00  0.00    +0.000 A 
ENDBRANCH  21  22
ENDBRANCH  19  21
ENDBRANCH   5  17
BRANCH   1  29
ATOM     28  C   UNL     1      -3.192  10.333  14.783  0.00  0.00    +0.000 C 
ATOM     29  C   UNL     1      -3.765  11.279  15.829  0.00  0.00    +0.000 C 
ENDBRANCH   1  29
TORSDOF 4
ENDMDL
MODEL 6
REMARK VINA RESULT:      -7.3      3.203      5.195
REMARK  Name = 
REMARK  6 active torsions:
REMARK  status: ('A' for Active; 'I' for Inactive)
REMARK    1  A    between atoms: C_1  and  C_2
REMARK    2  A    between atoms: C_2  and  C_3
REMARK    3  A    between atoms: C_7  and  C_8
REMARK    4  A    between atoms: N_10  and  C_11
REMARK    5  A    between atoms: C_11  and  C_12
REMARK    6  A    between atoms: C_25  and  C_26
REMARK                            x       y       z     vdW  Elec       q    Type
REMARK                         _______ _______ _______ _____ _____    ______ ____
ROOT
ATOM      1  C   UNL     1      -0.189  11.540  21.555  0.00  0.00    +0.000 C 
ATOM      2  N   UNL     1      -0.156  10.259  21.321  0.00  0.00    +0.000 NA
ATOM      3  C   UNL     1       0.522   9.650  20.249  0.00  0.00    +0.000 A 
ATOM      4  C   UNL     1       1.220   8.466  20.524  0.00  0.00    +0.000 A 
ATOM      5  C   UNL     1       1.900   7.767  19.513  0.00  0.00    +0.000 A 
ATOM      6  C   UNL     1       1.867   8.249  18.201  0.00  0.00    +0.000 A 
ATOM      7  C   UNL     1       1.135   9.398  17.902  0.00  0.00    +0.000 A 
ATOM      8  C   UNL     1       0.443  10.080  18.913  0.00  0.00    +0.000 A 
ATOM      9  S   UNL     1      -0.510  11.509  18.439  0.00  0.00    +0.000 S 
ATOM     10  C   UNL     1       0.416  12.686  19.394  0.00  0.00    +0.000 A 
ATOM     11  C   UNL     1       1.087  13.700  18.699  0.00  0.00    +0.000 A 
ATOM     12  C   UNL     1       1.791  14.684  19.388  0.00  0.00    +0.000 A 
ATOM     13  C   UNL     1       1.833  14.674  20.785  0.00  0.00    +0.000 A 
ATOM     14  C   UNL     1       2.506  15.792  21.525  0.00  0.00    +0.000 C 
ATOM     15  C   UNL     1       1.207  13.628  21.481  0.00  0.00    +0.000 A 
ATOM     16  C   UNL     1       0.504  12.624  20.791  0.00  0.00    +0.000 A 
ENDROOT
BRANCH   5  17
ATOM     17  C   UNL     1       2.610   6.482  19.803  0.00  0.00    +0.000 C 
ATOM     18  O   UNL     1       2.194   5.723  20.662  0.00  0.00    +0.000 OA
ATOM     19  N   UNL     1       3.727   6.231  19.029  0.00  0.00    +0.000 N 
ATOM     20  H   UNL     1       3.833   6.742  18.165  0.00  0.00    +0.000 HD
BRANCH  19  21
ATOM     21  C   UNL     1       4.508   5.016  19.176  0.00  0.00    +0.000 C 
BRANCH  21  22
ATOM     22  C   UNL     1       5.306   4.728  17.932  0.00  0.00    +0.000 A 
ATOM     23  C   UNL     1       6.703   4.773  17.912  0.00  0.00    +0.000 A 
ATOM     24  C   UNL     1       7.389   4.549  16.718  0.00  0.00    +0.000 A 
ATOM     25  C   UNL     1       6.653   4.268  15.581  0.00  0.00    +0.000 A 
ATOM     26  N   UNL     1       5.309   4.173  15.566  0.00  0.00    +0.000 NA
ATOM     27  C   UNL     1       4.669   4.397  16.739  0.00  0.00    +0.000 A 
ENDBRANCH  21  22
ENDBRANCH  19  21
ENDBRANCH   5  17
BRANCH   1  29
ATOM     28  C   UNL     1      -2.363  12.577  22.232  0.00  0.00    +0.000 C 
ATOM     29  C   UNL     1      -1.053  11.985  22.734  0.00  0.00    +0.000 C 
ENDBRANCH   1  29
TORSDOF 4
ENDMDL
MODEL 7
REMARK VINA RESULT:      -7.3      5.800      7.711
REMARK  Name = 
REMARK  6 active torsions:
REMARK  status: ('A' for Active; 'I' for Inactive)
REMARK    1  A    between atoms: C_1  and  C_2
REMARK    2  A    between atoms: C_2  and  C_3
REMARK    3  A    between atoms: C_7  and  C_8
REMARK    4  A    between atoms: N_10  and  C_11
REMARK    5  A    between atoms: C_11  and  C_12
REMARK    6  A    between atoms: C_25  and  C_26
REMARK                            x       y       z     vdW  Elec       q    Type
REMARK                         _______ _______ _______ _____ _____    ______ ____
ROOT
ATOM      1  C   UNL     1       1.213  10.776  18.700  0.00  0.00    +0.000 C 
ATOM      2  N   UNL     1       1.941  11.617  18.021  0.00  0.00    +0.000 NA
ATOM      3  C   UNL     1       2.103  12.980  18.332  0.00  0.00    +0.000 A 
ATOM      4  C   UNL     1       3.392  13.515  18.204  0.00  0.00    +0.000 A 
ATOM      5  C   UNL     1       3.648  14.872  18.458  0.00  0.00    +0.000 A 
ATOM      6  C   UNL     1       2.595  15.714  18.832  0.00  0.00    +0.000 A 
ATOM      7  C   UNL     1       1.298  15.207  18.915  0.00  0.00    +0.000 A 
ATOM      8  C   UNL     1       1.047  13.856  18.640  0.00  0.00    +0.000 A 
ATOM      9  S   UNL     1      -0.644  13.299  18.719  0.00  0.00    +0.000 S 
ATOM     10  C   UNL     1      -0.409  12.150  20.053  0.00  0.00    +0.000 A 
ATOM     11  C   UNL     1      -1.106  12.389  21.243  0.00  0.00    +0.000 A 
ATOM     12  C   UNL     1      -1.006  11.502  22.313  0.00  0.00    +0.000 A 
ATOM     13  C   UNL     1      -0.211  10.357  22.207  0.00  0.00    +0.000 A 
ATOM     14  C   UNL     1      -0.187   9.353  23.321  0.00  0.00    +0.000 C 
ATOM     15  C   UNL     1       0.531  10.144  21.034  0.00  0.00    +0.000 A 
ATOM     16  C   UNL     1       0.443  11.043  19.955  0.00  0.00    +0.000 A 
ENDROOT
BRANCH   5  17
ATOM     17  C   UNL     1       5.017  15.449  18.282  0.00  0.00    +0.000 C 
ATOM     18  O   UNL     1       5.220  16.636  18.473  0.00  0.00    +0.000 OA
ATOM     19  N   UNL     1       6.000  14.549  17.914  0.00  0.00    +0.000 N 
ATOM     20  H   UNL     1       5.826  13.566  18.062  0.00  0.00    +0.000 HD
BRANCH  19  21
ATOM     21  C   UNL     1       7.382  14.953  17.727  0.00  0.00    +0.000 C 
BRANCH  21  22
ATOM     22  C   UNL     1       8.330  13.857  18.135  0.00  0.00    +0.000 A 
ATOM     23  C   UNL     1       8.335  12.603  17.515  0.00  0.00    +0.000 A 
ATOM     24  C   UNL     1       9.199  11.606  17.971  0.00  0.00    +0.000 A 
ATOM     25  C   UNL     1      10.047  11.902  19.024  0.00  0.00    +0.000 A 
ATOM     26  N   UNL     1      10.102  13.110  19.621  0.00  0.00    +0.000 NA
ATOM     27  C   UNL     1       9.251  14.057  19.159  0.00  0.00    +0.000 A 
ENDBRANCH  21  22
ENDBRANCH  19  21
ENDBRANCH   5  17
BRANCH   1  29
ATOM     28  C   UNL     1       2.512   8.771  17.960  0.00  0.00    +0.000 C 
ATOM     29  C   UNL     1       1.120   9.360  18.133  0.00  0.00    +0.000 C 
ENDBRANCH   1  29
TORSDOF 4
ENDMDL
MODEL 8
REMARK VINA RESULT:      -7.3      3.126      5.200
REMARK  Name = 
REMARK  6 active torsions:
REMARK  status: ('A' for Active; 'I' for Inactive)
REMARK    1  A    between atoms: C_1  and  C_2
REMARK    2  A    between atoms: C_2  and  C_3
REMARK    3  A    between atoms: C_7  and  C_8
REMARK    4  A    between atoms: N_10  and  C_11
REMARK    5  A    between atoms: C_11  and  C_12
REMARK    6  A    between atoms: C_25  and  C_26
REMARK                            x       y       z     vdW  Elec       q    Type
REMARK                         _______ _______ _______ _____ _____    ______ ____
ROOT
ATOM      1  C   UNL     1      -0.573  11.680  21.785  0.00  0.00    +0.000 C 
ATOM      2  N   UNL     1      -0.438  10.439  21.408  0.00  0.00    +0.000 NA
ATOM      3  C   UNL     1       0.149  10.020  20.200  0.00  0.00    +0.000 A 
ATOM      4  C   UNL     1       0.998   8.906  20.255  0.00  0.00    +0.000 A 
ATOM      5  C   UNL     1       1.604   8.391  19.098  0.00  0.00    +0.000 A 
ATOM      6  C   UNL     1       1.345   8.989  17.861  0.00  0.00    +0.000 A 
ATOM      7  C   UNL     1       0.464  10.067  17.782  0.00  0.00    +0.000 A 
ATOM      8  C   UNL     1      -0.153  10.564  18.939  0.00  0.00    +0.000 A 
ATOM      9  S   UNL     1      -1.304  11.910  18.747  0.00  0.00    +0.000 S 
ATOM     10  C   UNL     1      -0.386  13.090  19.705  0.00  0.00    +0.000 A 
ATOM     11  C   UNL     1       0.075  14.238  19.049  0.00  0.00    +0.000 A 
ATOM     12  C   UNL     1       0.760  15.227  19.750  0.00  0.00    +0.000 A 
ATOM     13  C   UNL     1       0.989  15.088  21.122  0.00  0.00    +0.000 A 
ATOM     14  C   UNL     1       1.635  16.202  21.892  0.00  0.00    +0.000 C 
ATOM     15  C   UNL     1       0.575  13.914  21.770  0.00  0.00    +0.000 A 
ATOM     16  C   UNL     1      -0.106  12.906  21.065  0.00  0.00    +0.000 A 
ENDROOT
BRANCH   5  17
ATOM     17  C   UNL     1       2.477   7.177  19.155  0.00  0.00    +0.000 C 
ATOM     18  O   UNL     1       2.641   6.580  20.206  0.00  0.00    +0.000 OA
ATOM     19  N   UNL     1       3.045   6.795  17.955  0.00  0.00    +0.000 N 
ATOM     20  H   UNL     1       2.638   7.146  17.101  0.00  0.00    +0.000 HD
BRANCH  19  21
ATOM     21  C   UNL     1       3.897   5.624  17.844  0.00  0.00    +0.000 C 
BRANCH  21  22
ATOM     22  C   UNL     1       5.350   5.992  17.988  0.00  0.00    +0.000 A 
ATOM     23  C   UNL     1       6.169   5.435  18.975  0.00  0.00    +0.000 A 
ATOM     24  C   UNL     1       7.494   5.853  19.097  0.00  0.00    +0.000 A 
ATOM     25  C   UNL     1       7.966   6.806  18.212  0.00  0.00    +0.000 A 
ATOM     26  N   UNL     1       7.223   7.337  17.220  0.00  0.00    +0.000 NA
ATOM     27  C   UNL     1       5.939   6.914  17.127  0.00  0.00    +0.000 A 
ENDBRANCH  21  22
ENDBRANCH  19  21
ENDBRANCH   5  17
BRANCH   1  29
ATOM     28  C   UNL     1      -2.757  12.304  22.833  0.00  0.00    +0.000 C 
ATOM     29  C   UNL     1      -1.313  11.904  23.102  0.00  0.00    +0.000 C 
ENDBRANCH   1  29
TORSDOF 4
ENDMDL
MODEL 9
REMARK VINA RESULT:      -7.3      3.018      4.542
REMARK  Name = 
REMARK  6 active torsions:
REMARK  status: ('A' for Active; 'I' for Inactive)
REMARK    1  A    between atoms: C_1  and  C_2
REMARK    2  A    between atoms: C_2  and  C_3
REMARK    3  A    between atoms: C_7  and  C_8
REMARK    4  A    between atoms: N_10  and  C_11
REMARK    5  A    between atoms: C_11  and  C_12
REMARK    6  A    between atoms: C_25  and  C_26
REMARK                            x       y       z     vdW  Elec       q    Type
REMARK                         _______ _______ _______ _____ _____    ______ ____
ROOT
ATOM      1  C   UNL     1      -0.370  11.238  21.625  0.00  0.00    +0.000 C 
ATOM      2  N   UNL     1      -0.149   9.993  21.312  0.00  0.00    +0.000 NA
ATOM      3  C   UNL     1       0.474   9.555  20.128  0.00  0.00    +0.000 A 
ATOM      4  C   UNL     1       1.396   8.506  20.241  0.00  0.00    +0.000 A 
ATOM      5  C   UNL     1       2.044   7.977  19.113  0.00  0.00    +0.000 A 
ATOM      6  C   UNL     1       1.752   8.494  17.846  0.00  0.00    +0.000 A 
ATOM      7  C   UNL     1       0.800   9.504  17.711  0.00  0.00    +0.000 A 
ATOM      8  C   UNL     1       0.143  10.013  18.841  0.00  0.00    +0.000 A 
ATOM      9  S   UNL     1      -1.097  11.266  18.578  0.00  0.00    +0.000 S 
ATOM     10  C   UNL     1      -0.268  12.553  19.478  0.00  0.00    +0.000 A 
ATOM     11  C   UNL     1       0.118  13.695  18.767  0.00  0.00    +0.000 A 
ATOM     12  C   UNL     1       0.729  14.763  19.419  0.00  0.00    +0.000 A 
ATOM     13  C   UNL     1       0.959  14.709  20.797  0.00  0.00    +0.000 A 
ATOM     14  C   UNL     1       1.522  15.902  21.513  0.00  0.00    +0.000 C 
ATOM     15  C   UNL     1       0.622  13.543  21.502  0.00  0.00    +0.000 A 
ATOM     16  C   UNL     1       0.016  12.456  20.847  0.00  0.00    +0.000 A 
ENDROOT
BRANCH   5  17
ATOM     17  C   UNL     1       2.997   6.831  19.233  0.00  0.00    +0.000 C 
ATOM     18  O   UNL     1       2.987   6.117  20.221  0.00  0.00    +0.000 OA
ATOM     19  N   UNL     1       3.846   6.647  18.157  0.00  0.00    +0.000 N 
ATOM     20  H   UNL     1       3.601   7.076  17.278  0.00  0.00    +0.000 HD
BRANCH  19  21
ATOM     21  C   UNL     1       4.812   5.563  18.116  0.00  0.00    +0.000 C 
BRANCH  21  22
ATOM     22  C   UNL     1       4.131   4.223  18.204  0.00  0.00    +0.000 A 
ATOM     23  C   UNL     1       3.092   3.854  17.344  0.00  0.00    +0.000 A 
ATOM     24  C   UNL     1       2.461   2.620  17.506  0.00  0.00    +0.000 A 
ATOM     25  C   UNL     1       2.904   1.783  18.514  0.00  0.00    +0.000 A 
ATOM     26  N   UNL     1       3.930   2.083  19.337  0.00  0.00    +0.000 NA
ATOM     27  C   UNL     1       4.522   3.288  19.158  0.00  0.00    +0.000 A 
ENDBRANCH  21  22
ENDBRANCH  19  21
ENDBRANCH   5  17
BRANCH   1  29
ATOM     28  C   UNL     1      -2.445  12.193  22.645  0.00  0.00    +0.000 C 
ATOM     29  C   UNL     1      -1.132  11.477  22.928  0.00  0.00    +0.000 C 
ENDBRANCH   1  29
TORSDOF 4
ENDMDL
