MODEL 1
REMARK VINA RESULT:      -7.3      0.000      0.000
REMARK  Name = 
REMARK  4 active torsions:
REMARK  status: ('A' for Active; 'I' for Inactive)
REMARK    1  A    between atoms: C_1  and  C_2
REMARK    2  A    between atoms: C_2  and  N_3
REMARK    3  A    between atoms: N_7  and  C_8
REMARK    4  A    between atoms: N_7  and  C_9
REMARK                            x       y       z     vdW  Elec       q    Type
REMARK                         _______ _______ _______ _____ _____    ______ ____
ROOT
ATOM      1  N   UNL     1       2.616   6.014  19.775  0.00  0.00    +0.000 N 
ATOM      2  C   UNL     1       2.109   7.316  19.629  0.00  0.00    +0.000 A 
ATOM      3  N   UNL     1       1.309   7.834  20.517  0.00  0.00    +0.000 NA
ATOM      4  C   UNL     1       0.828   9.110  20.377  0.00  0.00    +0.000 A 
ATOM      5  N   UNL     1      -0.006   9.601  21.366  0.00  0.00    +0.000 N 
ATOM      6  C   UNL     1      -0.394   8.832  22.534  0.00  0.00    +0.000 C 
ATOM      7  C   UNL     1      -0.556  10.950  21.309  0.00  0.00    +0.000 C 
ATOM      8  N   UNL     1       1.120   9.871  19.370  0.00  0.00    +0.000 NA
ATOM      9  C   UNL     1       1.930   9.483  18.354  0.00  0.00    +0.000 A 
ATOM     10  O   UNL     1       2.199  10.206  17.398  0.00  0.00    +0.000 OA
ATOM     11  C   UNL     1       2.476   8.131  18.459  0.00  0.00    +0.000 A 
ATOM     12  C   UNL     1       3.287   7.619  17.524  0.00  0.00    +0.000 A 
ATOM     13  C   UNL     1       3.807   6.256  17.651  0.00  0.00    +0.000 A 
ATOM     14  C   UNL     1       4.642   5.756  16.641  0.00  0.00    +0.000 A 
ATOM     15  C   UNL     1       5.147   4.463  16.724  0.00  0.00    +0.000 A 
ATOM     16  C   UNL     1       4.819   3.666  17.814  0.00  0.00    +0.000 A 
ATOM     17  C   UNL     1       3.986   4.162  18.824  0.00  0.00    +0.000 A 
ATOM     18  C   UNL     1       3.460   5.465  18.775  0.00  0.00    +0.000 A 
ENDROOT
BRANCH   1  20
ATOM     19  C   UNL     1       1.057   4.261  20.517  0.00  0.00    +0.000 C 
ATOM     20  C   UNL     1       2.201   5.184  20.910  0.00  0.00    +0.000 C 
ENDBRANCH   1  20
TORSDOF 1
ENDMDL
MODEL 2
REMARK VINA RESULT:      -6.6      2.988      5.183
REMARK  Name = 
REMARK  4 active torsions:
REMARK  status: ('A' for Active; 'I' for Inactive)
REMARK    1  A    between atoms: C_1  and  C_2
REMARK    2  A    between atoms: C_2  and  N_3
REMARK    3  A    between atoms: N_7  and  C_8
REMARK    4  A    between atoms: N_7  and  C_9
REMARK                            x       y       z     vdW  Elec       q    Type
REMARK                         _______ _______ _______ _____ _____    ______ ____
ROOT
ATOM      1  N   UNL     1       0.007  10.401  19.384  0.00  0.00    +0.000 N 
ATOM      2  C   UNL     1      -0.396  10.650  20.705  0.00  0.00    +0.000 A 
ATOM      3  N   UNL     1      -1.203  11.631  20.994  0.00  0.00    +0.000 NA
ATOM      4  C   UNL     1      -1.605  11.862  22.284  0.00  0.00    +0.000 A 
ATOM      5  N   UNL     1      -2.474  12.913  22.515  0.00  0.00    +0.000 N 
ATOM      6  C   UNL     1      -2.975  13.778  21.462  0.00  0.00    +0.000 C 
ATOM      7  C   UNL     1      -2.965  13.226  23.852  0.00  0.00    +0.000 C 
ATOM      8  N   UNL     1      -1.213  11.142  23.288  0.00  0.00    +0.000 NA
ATOM      9  C   UNL     1      -0.365  10.090  23.163  0.00  0.00    +0.000 A 
ATOM     10  O   UNL     1       0.009   9.415  24.119  0.00  0.00    +0.000 OA
ATOM     11  C   UNL     1       0.088   9.798  21.804  0.00  0.00    +0.000 A 
ATOM     12  C   UNL     1       0.928   8.790  21.539  0.00  0.00    +0.000 A 
ATOM     13  C   UNL     1       1.374   8.530  20.169  0.00  0.00    +0.000 A 
ATOM     14  C   UNL     1       2.266   7.472  19.939  0.00  0.00    +0.000 A 
ATOM     15  C   UNL     1       2.718   7.202  18.651  0.00  0.00    +0.000 A 
ATOM     16  C   UNL     1       2.283   7.988  17.592  0.00  0.00    +0.000 A 
ATOM     17  C   UNL     1       1.393   9.045  17.818  0.00  0.00    +0.000 A 
ATOM     18  C   UNL     1       0.913   9.344  19.105  0.00  0.00    +0.000 A 
ENDROOT
BRANCH   1  20
ATOM     19  C   UNL     1      -1.724  10.788  17.678  0.00  0.00    +0.000 C 
ATOM     20  C   UNL     1      -0.428  11.288  18.300  0.00  0.00    +0.000 C 
ENDBRANCH   1  20
TORSDOF 1
ENDMDL
MODEL 3
REMARK VINA RESULT:      -6.5      3.523      6.464
REMARK  Name = 
REMARK  4 active torsions:
REMARK  status: ('A' for Active; 'I' for Inactive)
REMARK    1  A    between atoms: C_1  and  C_2
REMARK    2  A    between atoms: C_2  and  N_3
REMARK    3  A    between atoms: N_7  and  C_8
REMARK    4  A    between atoms: N_7  and  C_9
REMARK                            x       y       z     vdW  Elec       q    Type
REMARK                         _______ _______ _______ _____ _____    ______ ____
ROOT
ATOM      1  N   UNL     1       3.298   4.074  17.428  0.00  0.00    +0.000 N 
ATOM      2  C   UNL     1       4.355   4.775  16.825  0.00  0.00    +0.000 A 
ATOM      3  N   UNL     1       4.962   4.310  15.771  0.00  0.00    +0.000 NA
ATOM      4  C   UNL     1       5.984   5.004  15.178  0.00  0.00    +0.000 A 
ATOM      5  N   UNL     1       6.574   4.458  14.052  0.00  0.00    +0.000 N 
ATOM      6  C   UNL     1       6.165   3.190  13.476  0.00  0.00    +0.000 C 
ATOM      7  C   UNL     1       7.660   5.130  13.348  0.00  0.00    +0.000 C 
ATOM      8  N   UNL     1       6.417   6.144  15.619  0.00  0.00    +0.000 NA
ATOM      9  C   UNL     1       5.902   6.762  16.712  0.00  0.00    +0.000 A 
ATOM     10  O   UNL     1       6.320   7.839  17.130  0.00  0.00    +0.000 OA
ATOM     11  C   UNL     1       4.803   6.064  17.377  0.00  0.00    +0.000 A 
ATOM     12  C   UNL     1       4.206   6.560  18.468  0.00  0.00    +0.000 A 
ATOM     13  C   UNL     1       3.116   5.831  19.120  0.00  0.00    +0.000 A 
ATOM     14  C   UNL     1       2.528   6.382  20.269  0.00  0.00    +0.000 A 
ATOM     15  C   UNL     1       1.497   5.713  20.919  0.00  0.00    +0.000 A 
ATOM     16  C   UNL     1       1.052   4.493  20.426  0.00  0.00    +0.000 A 
ATOM     17  C   UNL     1       1.636   3.940  19.280  0.00  0.00    +0.000 A 
ATOM     18  C   UNL     1       2.677   4.590  18.595  0.00  0.00    +0.000 A 
ENDROOT
BRANCH   1  20
ATOM     19  C   UNL     1       3.453   1.643  17.778  0.00  0.00    +0.000 C 
ATOM     20  C   UNL     1       2.894   2.762  16.911  0.00  0.00    +0.000 C 
ENDBRANCH   1  20
TORSDOF 1
ENDMDL
MODEL 4
REMARK VINA RESULT:      -6.5      2.722      4.927
REMARK  Name = 
REMARK  4 active torsions:
REMARK  status: ('A' for Active; 'I' for Inactive)
REMARK    1  A    between atoms: C_1  and  C_2
REMARK    2  A    between atoms: C_2  and  N_3
REMARK    3  A    between atoms: N_7  and  C_8
REMARK    4  A    between atoms: N_7  and  C_9
REMARK                            x       y       z     vdW  Elec       q    Type
REMARK                         _______ _______ _______ _____ _____    ______ ____
ROOT
ATOM      1  N   UNL     1       0.996  10.304  19.375  0.00  0.00    +0.000 N 
ATOM      2  C   UNL     1       0.475  10.644  20.634  0.00  0.00    +0.000 A 
ATOM      3  N   UNL     1      -0.054  11.814  20.856  0.00  0.00    +0.000 NA
ATOM      4  C   UNL     1      -0.574  12.136  22.082  0.00  0.00    +0.000 A 
ATOM      5  N   UNL     1      -1.133  13.391  22.241  0.00  0.00    +0.000 N 
ATOM      6  C   UNL     1      -1.190  14.377  21.178  0.00  0.00    +0.000 C 
ATOM      7  C   UNL     1      -1.720  13.817  23.506  0.00  0.00    +0.000 C 
ATOM      8  N   UNL     1      -0.569  11.321  23.090  0.00  0.00    +0.000 NA
ATOM      9  C   UNL     1      -0.048  10.069  23.033  0.00  0.00    +0.000 A 
ATOM     10  O   UNL     1      -0.040   9.303  23.992  0.00  0.00    +0.000 OA
ATOM     11  C   UNL     1       0.513   9.675  21.742  0.00  0.00    +0.000 A 
ATOM     12  C   UNL     1       1.062   8.469  21.547  0.00  0.00    +0.000 A 
ATOM     13  C   UNL     1       1.629   8.108  20.246  0.00  0.00    +0.000 A 
ATOM     14  C   UNL     1       2.207   6.838  20.091  0.00  0.00    +0.000 A 
ATOM     15  C   UNL     1       2.762   6.464  18.872  0.00  0.00    +0.000 A 
ATOM     16  C   UNL     1       2.745   7.356  17.807  0.00  0.00    +0.000 A 
ATOM     17  C   UNL     1       2.169   8.623  17.958  0.00  0.00    +0.000 A 
ATOM     18  C   UNL     1       1.595   9.034  19.174  0.00  0.00    +0.000 A 
ENDROOT
BRANCH   1  20
ATOM     19  C   UNL     1       2.261  12.158  18.363  0.00  0.00    +0.000 C 
ATOM     20  C   UNL     1       1.011  11.293  18.292  0.00  0.00    +0.000 C 
ENDBRANCH   1  20
TORSDOF 1
ENDMDL
MODEL 5
REMARK VINA RESULT:      -6.0      2.600      4.551
REMARK  Name = 
REMARK  4 active torsions:
REMARK  status: ('A' for Active; 'I' for Inactive)
REMARK    1  A    between atoms: C_1  and  C_2
REMARK    2  A    between atoms: C_2  and  N_3
REMARK    3  A    between atoms: N_7  and  C_8
REMARK    4  A    between atoms: N_7  and  C_9
REMARK                            x       y       z     vdW  Elec       q    Type
REMARK                         _______ _______ _______ _____ _____    ______ ____
ROOT
ATOM      1  N   UNL     1       0.026   9.572  20.940  0.00  0.00    +0.000 N 
ATOM      2  C   UNL     1      -0.553  10.802  20.589  0.00  0.00    +0.000 A 
ATOM      3  N   UNL     1      -1.413  11.393  21.368  0.00  0.00    +0.000 NA
ATOM      4  C   UNL     1      -1.965  12.601  21.028  0.00  0.00    +0.000 A 
ATOM      5  N   UNL     1      -2.860  13.178  21.910  0.00  0.00    +0.000 N 
ATOM      6  C   UNL     1      -3.242  12.566  23.171  0.00  0.00    +0.000 C 
ATOM      7  C   UNL     1      -3.489  14.465  21.638  0.00  0.00    +0.000 C 
ATOM      8  N   UNL     1      -1.684  13.223  19.926  0.00  0.00    +0.000 NA
ATOM      9  C   UNL     1      -0.818  12.742  19.000  0.00  0.00    +0.000 A 
ATOM     10  O   UNL     1      -0.560  13.332  17.954  0.00  0.00    +0.000 OA
ATOM     11  C   UNL     1      -0.196  11.458  19.320  0.00  0.00    +0.000 A 
ATOM     12  C   UNL     1       0.676  10.868  18.493  0.00  0.00    +0.000 A 
ATOM     13  C   UNL     1       1.273   9.575  18.835  0.00  0.00    +0.000 A 
ATOM     14  C   UNL     1       2.171   8.985  17.933  0.00  0.00    +0.000 A 
ATOM     15  C   UNL     1       2.750   7.754  18.221  0.00  0.00    +0.000 A 
ATOM     16  C   UNL     1       2.432   7.108  19.409  0.00  0.00    +0.000 A 
ATOM     17  C   UNL     1       1.537   7.692  20.312  0.00  0.00    +0.000 A 
ATOM     18  C   UNL     1       0.936   8.937  20.055  0.00  0.00    +0.000 A 
ENDROOT
BRANCH   1  20
ATOM     19  C   UNL     1       0.364   9.465  23.376  0.00  0.00    +0.000 C 
ATOM     20  C   UNL     1      -0.377   8.894  22.176  0.00  0.00    +0.000 C 
ENDBRANCH   1  20
TORSDOF 1
ENDMDL
MODEL 6
REMARK VINA RESULT:      -6.0      5.039      9.252
REMARK  Name = 
REMARK  4 active torsions:
REMARK  status: ('A' for Active; 'I' for Inactive)
REMARK    1  A    between atoms: C_1  and  C_2
REMARK    2  A    between atoms: C_2  and  N_3
REMARK    3  A    between atoms: N_7  and  C_8
REMARK    4  A    between atoms: N_7  and  C_9
REMARK                            x       y       z     vdW  Elec       q    Type
REMARK                         _______ _______ _______ _____ _____    ______ ____
ROOT
ATOM      1  N   UNL     1      -3.920  12.318  19.612  0.00  0.00    +0.000 N 
ATOM      2  C   UNL     1      -3.068  11.569  18.784  0.00  0.00    +0.000 A 
ATOM      3  N   UNL     1      -1.858  11.262  19.157  0.00  0.00    +0.000 NA
ATOM      4  C   UNL     1      -1.035  10.519  18.351  0.00  0.00    +0.000 A 
ATOM      5  N   UNL     1       0.232  10.219  18.818  0.00  0.00    +0.000 N 
ATOM      6  C   UNL     1       0.728  10.654  20.111  0.00  0.00    +0.000 C 
ATOM      7  C   UNL     1       1.172   9.424  18.036  0.00  0.00    +0.000 C 
ATOM      8  N   UNL     1      -1.390  10.086  17.183  0.00  0.00    +0.000 NA
ATOM      9  C   UNL     1      -2.611  10.324  16.640  0.00  0.00    +0.000 A 
ATOM     10  O   UNL     1      -2.940   9.917  15.529  0.00  0.00    +0.000 OA
ATOM     11  C   UNL     1      -3.529  11.108  17.464  0.00  0.00    +0.000 A 
ATOM     12  C   UNL     1      -4.764  11.419  17.049  0.00  0.00    +0.000 A 
ATOM     13  C   UNL     1      -5.656  12.217  17.892  0.00  0.00    +0.000 A 
ATOM     14  C   UNL     1      -6.937  12.531  17.411  0.00  0.00    +0.000 A 
ATOM     15  C   UNL     1      -7.808  13.294  18.181  0.00  0.00    +0.000 A 
ATOM     16  C   UNL     1      -7.403  13.747  19.431  0.00  0.00    +0.000 A 
ATOM     17  C   UNL     1      -6.127  13.436  19.913  0.00  0.00    +0.000 A 
ATOM     18  C   UNL     1      -5.221  12.664  19.165  0.00  0.00    +0.000 A 
ENDROOT
BRANCH   1  20
ATOM     19  C   UNL     1      -2.724  14.160  20.724  0.00  0.00    +0.000 C 
ATOM     20  C   UNL     1      -3.436  12.826  20.900  0.00  0.00    +0.000 C 
ENDBRANCH   1  20
TORSDOF 1
ENDMDL
MODEL 7
REMARK VINA RESULT:      -5.8      6.388      8.039
REMARK  Name = 
REMARK  4 active torsions:
REMARK  status: ('A' for Active; 'I' for Inactive)
REMARK    1  A    between atoms: C_1  and  C_2
REMARK    2  A    between atoms: C_2  and  N_3
REMARK    3  A    between atoms: N_7  and  C_8
REMARK    4  A    between atoms: N_7  and  C_9
REMARK                            x       y       z     vdW  Elec       q    Type
REMARK                         _______ _______ _______ _____ _____    ______ ____
ROOT
ATOM      1  N   UNL     1      -3.909  12.380  19.648  0.00  0.00    +0.000 N 
ATOM      2  C   UNL     1      -3.052  12.702  20.712  0.00  0.00    +0.000 A 
ATOM      3  N   UNL     1      -3.450  13.453  21.699  0.00  0.00    +0.000 NA
ATOM      4  C   UNL     1      -2.614  13.754  22.743  0.00  0.00    +0.000 A 
ATOM      5  N   UNL     1      -3.108  14.545  23.764  0.00  0.00    +0.000 N 
ATOM      6  C   UNL     1      -4.461  15.071  23.780  0.00  0.00    +0.000 C 
ATOM      7  C   UNL     1      -2.296  14.906  24.920  0.00  0.00    +0.000 C 
ATOM      8  N   UNL     1      -1.392  13.329  22.817  0.00  0.00    +0.000 NA
ATOM      9  C   UNL     1      -0.817  12.546  21.869  0.00  0.00    +0.000 A 
ATOM     10  O   UNL     1       0.344  12.152  21.940  0.00  0.00    +0.000 OA
ATOM     11  C   UNL     1      -1.671  12.192  20.737  0.00  0.00    +0.000 A 
ATOM     12  C   UNL     1      -1.230  11.427  19.730  0.00  0.00    +0.000 A 
ATOM     13  C   UNL     1      -2.106  11.100  18.602  0.00  0.00    +0.000 A 
ATOM     14  C   UNL     1      -1.598  10.308  17.561  0.00  0.00    +0.000 A 
ATOM     15  C   UNL     1      -2.398   9.984  16.470  0.00  0.00    +0.000 A 
ATOM     16  C   UNL     1      -3.705  10.452  16.415  0.00  0.00    +0.000 A 
ATOM     17  C   UNL     1      -4.215  11.243  17.451  0.00  0.00    +0.000 A 
ATOM     18  C   UNL     1      -3.436  11.586  18.571  0.00  0.00    +0.000 A 
ENDROOT
BRANCH   1  20
ATOM     19  C   UNL     1      -6.260  12.011  20.275  0.00  0.00    +0.000 C 
ATOM     20  C   UNL     1      -5.263  12.940  19.597  0.00  0.00    +0.000 C 
ENDBRANCH   1  20
TORSDOF 1
ENDMDL
MODEL 8
REMARK VINA RESULT:      -5.8      3.072      8.355
REMARK  Name = 
REMARK  4 active torsions:
REMARK  status: ('A' for Active; 'I' for Inactive)
REMARK    1  A    between atoms: C_1  and  C_2
REMARK    2  A    between atoms: C_2  and  N_3
REMARK    3  A    between atoms: N_7  and  C_8
REMARK    4  A    between atoms: N_7  and  C_9
REMARK                            x       y       z     vdW  Elec       q    Type
REMARK                         _______ _______ _______ _____ _____    ______ ____
ROOT
ATOM      1  N   UNL     1      -1.628  12.093  20.300  0.00  0.00    +0.000 N 
ATOM      2  C   UNL     1      -0.775  11.069  20.745  0.00  0.00    +0.000 A 
ATOM      3  N   UNL     1      -0.091  10.345  19.906  0.00  0.00    +0.000 NA
ATOM      4  C   UNL     1       0.751   9.357  20.345  0.00  0.00    +0.000 A 
ATOM      5  N   UNL     1       1.457   8.636  19.399  0.00  0.00    +0.000 N 
ATOM      6  C   UNL     1       1.346   8.875  17.971  0.00  0.00    +0.000 C 
ATOM      7  C   UNL     1       2.384   7.575  19.773  0.00  0.00    +0.000 C 
ATOM      8  N   UNL     1       0.916   9.072  21.599  0.00  0.00    +0.000 NA
ATOM      9  C   UNL     1       0.273   9.722  22.601  0.00  0.00    +0.000 A 
ATOM     10  O   UNL     1       0.428   9.445  23.787  0.00  0.00    +0.000 OA
ATOM     11  C   UNL     1      -0.633  10.792  22.184  0.00  0.00    +0.000 A 
ATOM     12  C   UNL     1      -1.333  11.512  23.069  0.00  0.00    +0.000 A 
ATOM     13  C   UNL     1      -2.242  12.568  22.620  0.00  0.00    +0.000 A 
ATOM     14  C   UNL     1      -2.967  13.289  23.582  0.00  0.00    +0.000 A 
ATOM     15  C   UNL     1      -3.846  14.293  23.191  0.00  0.00    +0.000 A 
ATOM     16  C   UNL     1      -4.006  14.579  21.841  0.00  0.00    +0.000 A 
ATOM     17  C   UNL     1      -3.285  13.862  20.879  0.00  0.00    +0.000 A 
ATOM     18  C   UNL     1      -2.385  12.843  21.237  0.00  0.00    +0.000 A 
ENDROOT
BRANCH   1  20
ATOM     19  C   UNL     1      -2.953  11.478  18.320  0.00  0.00    +0.000 C 
ATOM     20  C   UNL     1      -1.813  12.326  18.865  0.00  0.00    +0.000 C 
ENDBRANCH   1  20
TORSDOF 1
ENDMDL
MODEL 9
REMARK VINA RESULT:      -5.7      1.991      6.453
REMARK  Name = 
REMARK  4 active torsions:
REMARK  status: ('A' for Active; 'I' for Inactive)
REMARK    1  A    between atoms: C_1  and  C_2
REMARK    2  A    between atoms: C_2  and  N_3
REMARK    3  A    between atoms: N_7  and  C_8
REMARK    4  A    between atoms: N_7  and  C_9
REMARK                            x       y       z     vdW  Elec       q    Type
REMARK                         _______ _______ _______ _____ _____    ______ ____
ROOT
ATOM      1  N   UNL     1       1.745   9.055  18.895  0.00  0.00    +0.000 N 
ATOM      2  C   UNL     1       2.347   7.787  18.929  0.00  0.00    +0.000 A 
ATOM      3  N   UNL     1       3.124   7.380  17.966  0.00  0.00    +0.000 NA
ATOM      4  C   UNL     1       3.721   6.147  18.011  0.00  0.00    +0.000 A 
ATOM      5  N   UNL     1       4.546   5.786  16.961  0.00  0.00    +0.000 N 
ATOM      6  C   UNL     1       4.805   6.646  15.820  0.00  0.00    +0.000 C 
ATOM      7  C   UNL     1       5.232   4.500  16.927  0.00  0.00    +0.000 C 
ATOM      8  N   UNL     1       3.550   5.312  18.987  0.00  0.00    +0.000 NA
ATOM      9  C   UNL     1       2.765   5.574  20.062  0.00  0.00    +0.000 A 
ATOM     10  O   UNL     1       2.602   4.777  20.982  0.00  0.00    +0.000 OA
ATOM     11  C   UNL     1       2.111   6.881  20.065  0.00  0.00    +0.000 A 
ATOM     12  C   UNL     1       1.306   7.268  21.063  0.00  0.00    +0.000 A 
ATOM     13  C   UNL     1       0.654   8.579  21.032  0.00  0.00    +0.000 A 
ATOM     14  C   UNL     1      -0.192   8.937  22.092  0.00  0.00    +0.000 A 
ATOM     15  C   UNL     1      -0.835  10.170  22.092  0.00  0.00    +0.000 A 
ATOM     16  C   UNL     1      -0.636  11.048  21.033  0.00  0.00    +0.000 A 
ATOM     17  C   UNL     1       0.208  10.694  19.974  0.00  0.00    +0.000 A 
ATOM     18  C   UNL     1       0.876   9.457  19.943  0.00  0.00    +0.000 A 
ENDROOT
BRANCH   1  20
ATOM     19  C   UNL     1       2.429  11.303  18.163  0.00  0.00    +0.000 C 
ATOM     20  C   UNL     1       1.934   9.929  17.733  0.00  0.00    +0.000 C 
ENDBRANCH   1  20
TORSDOF 1
ENDMDL
