MODEL 1
REMARK VINA RESULT:      -8.1      0.000      0.000
REMARK  Name = 
REMARK  9 active torsions:
REMARK  status: ('A' for Active; 'I' for Inactive)
REMARK    1  A    between atoms: C_1  and  O_2
REMARK    2  A    between atoms: O_2  and  C_3
REMARK    3  A    between atoms: C_6  and  C_7
REMARK    4  A    between atoms: C_7  and  C_8
REMARK    5  A    between atoms: C_8  and  N_9
REMARK    6  A    between atoms: C_8  and  C_10
REMARK    7  A    between atoms: N_17  and  C_18
REMARK    8  A    between atoms: C_23  and  C_24
REMARK    9  A    between atoms: C_24  and  C_25
REMARK                            x       y       z     vdW  Elec       q    Type
REMARK                         _______ _______ _______ _____ _____    ______ ____
ROOT
ATOM      1  C   UNL     1       0.930   9.388  19.580  0.00  0.00    +0.000 A 
ATOM      2  C   UNL     1       1.067  10.161  20.722  0.00  0.00    +0.000 A 
ATOM      3  S   UNL     1       1.338   9.148  22.097  0.00  0.00    +0.000 S 
ATOM      4  C   UNL     1       1.349   7.803  21.065  0.00  0.00    +0.000 A 
ATOM      5  N   UNL     1       1.654   6.583  21.590  0.00  0.00    +0.000 N 
ATOM      6  C   UNL     1       1.859   5.459  20.822  0.00  0.00    +0.000 C 
ATOM      7  O   UNL     1       2.136   4.397  21.376  0.00  0.00    +0.000 OA
ATOM      8  N   UNL     1       1.730   5.625  19.458  0.00  0.00    +0.000 N 
ATOM      9  N   UNL     1       1.125   8.041  19.803  0.00  0.00    +0.000 NA
ATOM     10  H   UNL     1       1.788   6.488  22.584  0.00  0.00    +0.000 HD
ATOM     11  H   UNL     1       1.920   6.588  19.184  0.00  0.00    +0.000 HD
ENDROOT
BRANCH   8  12
ATOM     12  C   UNL     1       2.187   4.675  18.537  0.00  0.00    +0.000 A 
ATOM     13  C   UNL     1       1.668   3.379  18.594  0.00  0.00    +0.000 A 
ATOM     14  C   UNL     1       2.138   2.404  17.717  0.00  0.00    +0.000 A 
ATOM     15  C   UNL     1       3.139   2.722  16.803  0.00  0.00    +0.000 A 
ATOM     16  C   UNL     1       3.704   4.000  16.795  0.00  0.00    +0.000 A 
ATOM     17  C   UNL     1       3.252   4.992  17.679  0.00  0.00    +0.000 A 
BRANCH  17  18
ATOM     18  C   UNL     1       3.942   6.341  17.713  0.00  0.00    +0.000 C 
BRANCH  18  19
ATOM     19  C   UNL     1       5.435   6.342  18.012  0.00  0.00    +0.000 A 
ATOM     20  C   UNL     1       6.267   7.227  17.304  0.00  0.00    +0.000 A 
ATOM     21  C   UNL     1       7.624   7.348  17.617  0.00  0.00    +0.000 A 
ATOM     22  C   UNL     1       8.174   6.590  18.647  0.00  0.00    +0.000 A 
ATOM     23  C   UNL     1       7.366   5.699  19.351  0.00  0.00    +0.000 A 
ATOM     24  C   UNL     1       6.007   5.584  19.044  0.00  0.00    +0.000 A 
ENDBRANCH  18  19
ENDBRANCH  17  18
ENDBRANCH   8  12
BRANCH   1  25
ATOM     25  C   UNL     1       0.675   9.782  18.148  0.00  0.00    +0.000 C 
BRANCH  25  26
ATOM     26  N   UNL     1       1.978   9.776  17.461  0.00  0.00    +0.000 NA
ATOM     27  H   UNL     1       2.152  10.685  17.042  0.00  0.00    +0.000 HD
ATOM     28  H   UNL     1       1.972   9.092  16.709  0.00  0.00    +0.000 HD
ENDBRANCH  25  26
BRANCH  25  29
ATOM     29  C   UNL     1      -0.079  11.104  17.932  0.00  0.00    +0.000 C 
BRANCH  29  33
ATOM     30  C   UNL     1      -4.395  10.782  17.918  0.00  0.00    +0.000 A 
ATOM     31  C   UNL     1      -3.757  11.727  18.719  0.00  0.00    +0.000 A 
ATOM     32  C   UNL     1      -2.364  11.838  18.714  0.00  0.00    +0.000 A 
ATOM     33  C   UNL     1      -1.588  10.981  17.922  0.00  0.00    +0.000 A 
ATOM     34  C   UNL     1      -2.235  10.029  17.125  0.00  0.00    +0.000 A 
ATOM     35  C   UNL     1      -3.630   9.926  17.129  0.00  0.00    +0.000 A 
BRANCH  30  37
ATOM     36  C   UNL     1      -6.304  11.460  19.135  0.00  0.00    +0.000 C 
ATOM     37  O   UNL     1      -5.758  10.760  18.022  0.00  0.00    +0.000 OA
ENDBRANCH  30  37
ENDBRANCH  29  33
ENDBRANCH  25  29
ENDBRANCH   1  25
TORSDOF 8
ENDMDL
MODEL 2
REMARK VINA RESULT:      -7.6      4.674      9.773
REMARK  Name = 
REMARK  9 active torsions:
REMARK  status: ('A' for Active; 'I' for Inactive)
REMARK    1  A    between atoms: C_1  and  O_2
REMARK    2  A    between atoms: O_2  and  C_3
REMARK    3  A    between atoms: C_6  and  C_7
REMARK    4  A    between atoms: C_7  and  C_8
REMARK    5  A    between atoms: C_8  and  N_9
REMARK    6  A    between atoms: C_8  and  C_10
REMARK    7  A    between atoms: N_17  and  C_18
REMARK    8  A    between atoms: C_23  and  C_24
REMARK    9  A    between atoms: C_24  and  C_25
REMARK                            x       y       z     vdW  Elec       q    Type
REMARK                         _______ _______ _______ _____ _____    ______ ____
ROOT
ATOM      1  C   UNL     1      -2.229  14.224  23.455  0.00  0.00    +0.000 A 
ATOM      2  C   UNL     1      -2.134  15.239  24.393  0.00  0.00    +0.000 A 
ATOM      3  S   UNL     1      -3.511  16.279  24.287  0.00  0.00    +0.000 S 
ATOM      4  C   UNL     1      -4.151  15.258  23.095  0.00  0.00    +0.000 A 
ATOM      5  N   UNL     1      -5.408  15.508  22.630  0.00  0.00    +0.000 N 
ATOM      6  C   UNL     1      -6.090  14.654  21.795  0.00  0.00    +0.000 C 
ATOM      7  O   UNL     1      -7.224  14.954  21.425  0.00  0.00    +0.000 OA
ATOM      8  N   UNL     1      -5.422  13.502  21.430  0.00  0.00    +0.000 N 
ATOM      9  N   UNL     1      -3.411  14.244  22.743  0.00  0.00    +0.000 NA
ATOM     10  H   UNL     1      -5.899  16.332  22.940  0.00  0.00    +0.000 HD
ATOM     11  H   UNL     1      -4.730  13.239  22.130  0.00  0.00    +0.000 HD
ENDROOT
BRANCH   8  12
ATOM     12  C   UNL     1      -6.070  12.410  20.840  0.00  0.00    +0.000 A 
ATOM     13  C   UNL     1      -7.185  11.864  21.480  0.00  0.00    +0.000 A 
ATOM     14  C   UNL     1      -7.822  10.751  20.937  0.00  0.00    +0.000 A 
ATOM     15  C   UNL     1      -7.327  10.174  19.769  0.00  0.00    +0.000 A 
ATOM     16  C   UNL     1      -6.171  10.680  19.169  0.00  0.00    +0.000 A 
ATOM     17  C   UNL     1      -5.510  11.795  19.709  0.00  0.00    +0.000 A 
BRANCH  17  18
ATOM     18  C   UNL     1      -4.209  12.268  19.093  0.00  0.00    +0.000 C 
BRANCH  18  19
ATOM     19  C   UNL     1      -3.708  11.507  17.874  0.00  0.00    +0.000 A 
ATOM     20  C   UNL     1      -2.647  10.598  18.030  0.00  0.00    +0.000 A 
ATOM     21  C   UNL     1      -2.223   9.794  16.969  0.00  0.00    +0.000 A 
ATOM     22  C   UNL     1      -2.854   9.879  15.731  0.00  0.00    +0.000 A 
ATOM     23  C   UNL     1      -3.899  10.784  15.555  0.00  0.00    +0.000 A 
ATOM     24  C   UNL     1      -4.329  11.582  16.619  0.00  0.00    +0.000 A 
ENDBRANCH  18  19
ENDBRANCH  17  18
ENDBRANCH   8  12
BRANCH   1  25
ATOM     25  C   UNL     1      -1.297  13.083  23.139  0.00  0.00    +0.000 C 
BRANCH  25  26
ATOM     26  N   UNL     1      -0.052  13.675  22.619  0.00  0.00    +0.000 NA
ATOM     27  H   UNL     1       0.706  13.514  23.276  0.00  0.00    +0.000 HD
ATOM     28  H   UNL     1      -0.160  14.681  22.521  0.00  0.00    +0.000 HD
ENDBRANCH  25  26
BRANCH  25  29
ATOM     29  C   UNL     1      -1.848  11.996  22.202  0.00  0.00    +0.000 C 
BRANCH  29  33
ATOM     30  C   UNL     1       1.028   8.989  21.012  0.00  0.00    +0.000 A 
ATOM     31  C   UNL     1       0.529   9.899  20.083  0.00  0.00    +0.000 A 
ATOM     32  C   UNL     1      -0.391  10.877  20.471  0.00  0.00    +0.000 A 
ATOM     33  C   UNL     1      -0.844  10.938  21.795  0.00  0.00    +0.000 A 
ATOM     34  C   UNL     1      -0.344  10.016  22.722  0.00  0.00    +0.000 A 
ATOM     35  C   UNL     1       0.582   9.042  22.330  0.00  0.00    +0.000 A 
BRANCH  30  37
ATOM     36  C   UNL     1       1.552   6.706  20.694  0.00  0.00    +0.000 C 
ATOM     37  O   UNL     1       1.908   8.071  20.508  0.00  0.00    +0.000 OA
ENDBRANCH  30  37
ENDBRANCH  29  33
ENDBRANCH  25  29
ENDBRANCH   1  25
TORSDOF 8
ENDMDL
MODEL 3
REMARK VINA RESULT:      -7.6      4.989      7.618
REMARK  Name = 
REMARK  9 active torsions:
REMARK  status: ('A' for Active; 'I' for Inactive)
REMARK    1  A    between atoms: C_1  and  O_2
REMARK    2  A    between atoms: O_2  and  C_3
REMARK    3  A    between atoms: C_6  and  C_7
REMARK    4  A    between atoms: C_7  and  C_8
REMARK    5  A    between atoms: C_8  and  N_9
REMARK    6  A    between atoms: C_8  and  C_10
REMARK    7  A    between atoms: N_17  and  C_18
REMARK    8  A    between atoms: C_23  and  C_24
REMARK    9  A    between atoms: C_24  and  C_25
REMARK                            x       y       z     vdW  Elec       q    Type
REMARK                         _______ _______ _______ _____ _____    ______ ____
ROOT
ATOM      1  C   UNL     1      -4.419  13.262  21.884  0.00  0.00    +0.000 A 
ATOM      2  C   UNL     1      -4.824  13.697  23.135  0.00  0.00    +0.000 A 
ATOM      3  S   UNL     1      -3.824  12.998  24.361  0.00  0.00    +0.000 S 
ATOM      4  C   UNL     1      -2.896  12.270  23.144  0.00  0.00    +0.000 A 
ATOM      5  N   UNL     1      -1.769  11.592  23.503  0.00  0.00    +0.000 N 
ATOM      6  C   UNL     1      -0.853  11.112  22.595  0.00  0.00    +0.000 C 
ATOM      7  O   UNL     1       0.140  10.514  23.004  0.00  0.00    +0.000 OA
ATOM      8  N   UNL     1      -1.139  11.345  21.265  0.00  0.00    +0.000 N 
ATOM      9  N   UNL     1      -3.292  12.467  21.918  0.00  0.00    +0.000 NA
ATOM     10  H   UNL     1      -1.552  11.468  24.479  0.00  0.00    +0.000 HD
ATOM     11  H   UNL     1      -1.726  12.171  21.153  0.00  0.00    +0.000 HD
ENDROOT
BRANCH   8  12
ATOM     12  C   UNL     1      -0.187  11.188  20.251  0.00  0.00    +0.000 A 
ATOM     13  C   UNL     1       0.046   9.908  19.739  0.00  0.00    +0.000 A 
ATOM     14  C   UNL     1       1.018   9.718  18.761  0.00  0.00    +0.000 A 
ATOM     15  C   UNL     1       1.770  10.803  18.315  0.00  0.00    +0.000 A 
ATOM     16  C   UNL     1       1.583  12.068  18.877  0.00  0.00    +0.000 A 
ATOM     17  C   UNL     1       0.615  12.277  19.872  0.00  0.00    +0.000 A 
BRANCH  17  18
ATOM     18  C   UNL     1       0.494  13.636  20.530  0.00  0.00    +0.000 C 
BRANCH  18  19
ATOM     19  C   UNL     1       0.642  14.853  19.628  0.00  0.00    +0.000 A 
ATOM     20  C   UNL     1      -0.515  15.440  19.087  0.00  0.00    +0.000 A 
ATOM     21  C   UNL     1      -0.445  16.622  18.345  0.00  0.00    +0.000 A 
ATOM     22  C   UNL     1       0.783  17.243  18.133  0.00  0.00    +0.000 A 
ATOM     23  C   UNL     1       1.941  16.668  18.652  0.00  0.00    +0.000 A 
ATOM     24  C   UNL     1       1.870  15.490  19.402  0.00  0.00    +0.000 A 
ENDBRANCH  18  19
ENDBRANCH  17  18
ENDBRANCH   8  12
BRANCH   1  25
ATOM     25  C   UNL     1      -4.960  13.568  20.511  0.00  0.00    +0.000 C 
BRANCH  25  26
ATOM     26  N   UNL     1      -5.921  14.673  20.664  0.00  0.00    +0.000 NA
ATOM     27  H   UNL     1      -5.468  15.557  20.450  0.00  0.00    +0.000 HD
ATOM     28  H   UNL     1      -6.245  14.723  21.626  0.00  0.00    +0.000 HD
ENDBRANCH  25  26
BRANCH  25  29
ATOM     29  C   UNL     1      -5.568  12.383  19.742  0.00  0.00    +0.000 C 
BRANCH  29  33
ATOM     30  C   UNL     1      -3.272  11.098  16.305  0.00  0.00    +0.000 A 
ATOM     31  C   UNL     1      -2.640  11.382  17.514  0.00  0.00    +0.000 A 
ATOM     32  C   UNL     1      -3.384  11.785  18.627  0.00  0.00    +0.000 A 
ATOM     33  C   UNL     1      -4.774  11.936  18.533  0.00  0.00    +0.000 A 
ATOM     34  C   UNL     1      -5.401  11.657  17.313  0.00  0.00    +0.000 A 
ATOM     35  C   UNL     1      -4.653  11.247  16.204  0.00  0.00    +0.000 A 
BRANCH  30  37
ATOM     36  C   UNL     1      -3.041  10.005  14.222  0.00  0.00    +0.000 C 
ATOM     37  O   UNL     1      -2.436  10.730  15.287  0.00  0.00    +0.000 OA
ENDBRANCH  30  37
ENDBRANCH  29  33
ENDBRANCH  25  29
ENDBRANCH   1  25
TORSDOF 8
ENDMDL
MODEL 4
REMARK VINA RESULT:      -7.5      0.880      1.433
REMARK  Name = 
REMARK  9 active torsions:
REMARK  status: ('A' for Active; 'I' for Inactive)
REMARK    1  A    between atoms: C_1  and  O_2
REMARK    2  A    between atoms: O_2  and  C_3
REMARK    3  A    between atoms: C_6  and  C_7
REMARK    4  A    between atoms: C_7  and  C_8
REMARK    5  A    between atoms: C_8  and  N_9
REMARK    6  A    between atoms: C_8  and  C_10
REMARK    7  A    between atoms: N_17  and  C_18
REMARK    8  A    between atoms: C_23  and  C_24
REMARK    9  A    between atoms: C_24  and  C_25
REMARK                            x       y       z     vdW  Elec       q    Type
REMARK                         _______ _______ _______ _____ _____    ______ ____
ROOT
ATOM      1  C   UNL     1       0.813   9.641  19.517  0.00  0.00    +0.000 A 
ATOM      2  C   UNL     1       0.965  10.431  20.646  0.00  0.00    +0.000 A 
ATOM      3  S   UNL     1       1.290   9.441  22.026  0.00  0.00    +0.000 S 
ATOM      4  C   UNL     1       1.299   8.084  21.010  0.00  0.00    +0.000 A 
ATOM      5  N   UNL     1       1.640   6.875  21.542  0.00  0.00    +0.000 N 
ATOM      6  C   UNL     1       1.846   5.746  20.783  0.00  0.00    +0.000 C 
ATOM      7  O   UNL     1       2.157   4.696  21.343  0.00  0.00    +0.000 OA
ATOM      8  N   UNL     1       1.679   5.892  19.421  0.00  0.00    +0.000 N 
ATOM      9  N   UNL     1       1.039   8.301  19.751  0.00  0.00    +0.000 NA
ATOM     10  H   UNL     1       1.802   6.795  22.533  0.00  0.00    +0.000 HD
ATOM     11  H   UNL     1       1.844   6.855  19.130  0.00  0.00    +0.000 HD
ENDROOT
BRANCH   8  12
ATOM     12  C   UNL     1       2.129   4.939  18.500  0.00  0.00    +0.000 A 
ATOM     13  C   UNL     1       1.591   3.650  18.548  0.00  0.00    +0.000 A 
ATOM     14  C   UNL     1       2.053   2.672  17.671  0.00  0.00    +0.000 A 
ATOM     15  C   UNL     1       3.067   2.979  16.766  0.00  0.00    +0.000 A 
ATOM     16  C   UNL     1       3.651   4.248  16.768  0.00  0.00    +0.000 A 
ATOM     17  C   UNL     1       3.206   5.244  17.651  0.00  0.00    +0.000 A 
BRANCH  17  18
ATOM     18  C   UNL     1       3.915   6.582  17.696  0.00  0.00    +0.000 C 
BRANCH  18  19
ATOM     19  C   UNL     1       5.385   6.568  18.092  0.00  0.00    +0.000 A 
ATOM     20  C   UNL     1       5.804   5.698  19.114  0.00  0.00    +0.000 A 
ATOM     21  C   UNL     1       7.157   5.564  19.439  0.00  0.00    +0.000 A 
ATOM     22  C   UNL     1       8.118   6.296  18.746  0.00  0.00    +0.000 A 
ATOM     23  C   UNL     1       7.719   7.172  17.739  0.00  0.00    +0.000 A 
ATOM     24  C   UNL     1       6.367   7.299  17.408  0.00  0.00    +0.000 A 
ENDBRANCH  18  19
ENDBRANCH  17  18
ENDBRANCH   8  12
BRANCH   1  25
ATOM     25  C   UNL     1       0.514  10.013  18.088  0.00  0.00    +0.000 C 
BRANCH  25  26
ATOM     26  N   UNL     1       0.285  11.467  18.059  0.00  0.00    +0.000 NA
ATOM     27  H   UNL     1       0.654  11.891  18.906  0.00  0.00    +0.000 HD
ATOM     28  H   UNL     1      -0.711  11.663  18.031  0.00  0.00    +0.000 HD
ENDBRANCH  25  26
BRANCH  25  29
ATOM     29  C   UNL     1      -0.630   9.240  17.411  0.00  0.00    +0.000 C 
BRANCH  29  33
ATOM     30  C   UNL     1      -4.335  11.438  16.995  0.00  0.00    +0.000 A 
ATOM     31  C   UNL     1      -3.603  11.063  15.870  0.00  0.00    +0.000 A 
ATOM     32  C   UNL     1      -2.413  10.342  16.005  0.00  0.00    +0.000 A 
ATOM     33  C   UNL     1      -1.926  10.012  17.277  0.00  0.00    +0.000 A 
ATOM     34  C   UNL     1      -2.662  10.399  18.402  0.00  0.00    +0.000 A 
ATOM     35  C   UNL     1      -3.857  11.115  18.262  0.00  0.00    +0.000 A 
BRANCH  30  37
ATOM     36  C   UNL     1      -6.040  12.839  17.844  0.00  0.00    +0.000 C 
ATOM     37  O   UNL     1      -5.472  12.152  16.733  0.00  0.00    +0.000 OA
ENDBRANCH  30  37
ENDBRANCH  29  33
ENDBRANCH  25  29
ENDBRANCH   1  25
TORSDOF 8
ENDMDL
MODEL 5
REMARK VINA RESULT:      -7.5      5.659      8.643
REMARK  Name = 
REMARK  9 active torsions:
REMARK  status: ('A' for Active; 'I' for Inactive)
REMARK    1  A    between atoms: C_1  and  O_2
REMARK    2  A    between atoms: O_2  and  C_3
REMARK    3  A    between atoms: C_6  and  C_7
REMARK    4  A    between atoms: C_7  and  C_8
REMARK    5  A    between atoms: C_8  and  N_9
REMARK    6  A    between atoms: C_8  and  C_10
REMARK    7  A    between atoms: N_17  and  C_18
REMARK    8  A    between atoms: C_23  and  C_24
REMARK    9  A    between atoms: C_24  and  C_25
REMARK                            x       y       z     vdW  Elec       q    Type
REMARK                         _______ _______ _______ _____ _____    ______ ____
ROOT
ATOM      1  C   UNL     1      -4.580  11.210  18.072  0.00  0.00    +0.000 A 
ATOM      2  C   UNL     1      -4.416  10.231  17.105  0.00  0.00    +0.000 A 
ATOM      3  S   UNL     1      -2.857  10.375  16.371  0.00  0.00    +0.000 S 
ATOM      4  C   UNL     1      -2.502  11.637  17.446  0.00  0.00    +0.000 A 
ATOM      5  N   UNL     1      -1.244  12.161  17.442  0.00  0.00    +0.000 N 
ATOM      6  C   UNL     1      -0.797  13.063  18.380  0.00  0.00    +0.000 C 
ATOM      7  O   UNL     1       0.357  13.483  18.306  0.00  0.00    +0.000 OA
ATOM      8  N   UNL     1      -1.708  13.432  19.348  0.00  0.00    +0.000 N 
ATOM      9  N   UNL     1      -3.455  11.984  18.266  0.00  0.00    +0.000 NA
ATOM     10  H   UNL     1      -0.576  11.848  16.754  0.00  0.00    +0.000 HD
ATOM     11  H   UNL     1      -2.407  12.705  19.493  0.00  0.00    +0.000 HD
ENDROOT
BRANCH   8  12
ATOM     12  C   UNL     1      -1.333  14.096  20.522  0.00  0.00    +0.000 A 
ATOM     13  C   UNL     1      -0.696  15.336  20.419  0.00  0.00    +0.000 A 
ATOM     14  C   UNL     1      -0.274  15.997  21.570  0.00  0.00    +0.000 A 
ATOM     15  C   UNL     1      -0.468  15.406  22.816  0.00  0.00    +0.000 A 
ATOM     16  C   UNL     1      -1.042  14.136  22.911  0.00  0.00    +0.000 A 
ATOM     17  C   UNL     1      -1.464  13.450  21.762  0.00  0.00    +0.000 A 
BRANCH  17  18
ATOM     18  C   UNL     1      -1.999  12.038  21.883  0.00  0.00    +0.000 C 
BRANCH  18  19
ATOM     19  C   UNL     1      -0.971  10.921  22.005  0.00  0.00    +0.000 A 
ATOM     20  C   UNL     1      -0.159  10.623  20.897  0.00  0.00    +0.000 A 
ATOM     21  C   UNL     1       0.873   9.686  20.990  0.00  0.00    +0.000 A 
ATOM     22  C   UNL     1       1.116   9.030  22.194  0.00  0.00    +0.000 A 
ATOM     23  C   UNL     1       0.312   9.304  23.299  0.00  0.00    +0.000 A 
ATOM     24  C   UNL     1      -0.715  10.248  23.208  0.00  0.00    +0.000 A 
ENDBRANCH  18  19
ENDBRANCH  17  18
ENDBRANCH   8  12
BRANCH   1  25
ATOM     25  C   UNL     1      -5.745  11.516  18.978  0.00  0.00    +0.000 C 
BRANCH  25  26
ATOM     26  N   UNL     1      -6.895  10.743  18.476  0.00  0.00    +0.000 NA
ATOM     27  H   UNL     1      -6.582  10.075  17.777  0.00  0.00    +0.000 HD
ATOM     28  H   UNL     1      -7.561  11.364  18.025  0.00  0.00    +0.000 HD
ENDBRANCH  25  26
BRANCH  25  29
ATOM     29  C   UNL     1      -6.091  13.002  19.161  0.00  0.00    +0.000 C 
BRANCH  29  33
ATOM     30  C   UNL     1      -4.707  14.717  22.886  0.00  0.00    +0.000 A 
ATOM     31  C   UNL     1      -5.306  13.459  22.864  0.00  0.00    +0.000 A 
ATOM     32  C   UNL     1      -5.741  12.901  21.658  0.00  0.00    +0.000 A 
ATOM     33  C   UNL     1      -5.606  13.613  20.459  0.00  0.00    +0.000 A 
ATOM     34  C   UNL     1      -5.011  14.879  20.489  0.00  0.00    +0.000 A 
ATOM     35  C   UNL     1      -4.570  15.431  21.698  0.00  0.00    +0.000 A 
BRANCH  30  37
ATOM     36  C   UNL     1      -4.925  16.388  24.543  0.00  0.00    +0.000 C 
ATOM     37  O   UNL     1      -4.338  15.161  24.126  0.00  0.00    +0.000 OA
ENDBRANCH  30  37
ENDBRANCH  29  33
ENDBRANCH  25  29
ENDBRANCH   1  25
TORSDOF 8
ENDMDL
MODEL 6
REMARK VINA RESULT:      -7.4      3.979      8.703
REMARK  Name = 
REMARK  9 active torsions:
REMARK  status: ('A' for Active; 'I' for Inactive)
REMARK    1  A    between atoms: C_1  and  O_2
REMARK    2  A    between atoms: O_2  and  C_3
REMARK    3  A    between atoms: C_6  and  C_7
REMARK    4  A    between atoms: C_7  and  C_8
REMARK    5  A    between atoms: C_8  and  N_9
REMARK    6  A    between atoms: C_8  and  C_10
REMARK    7  A    between atoms: N_17  and  C_18
REMARK    8  A    between atoms: C_23  and  C_24
REMARK    9  A    between atoms: C_24  and  C_25
REMARK                            x       y       z     vdW  Elec       q    Type
REMARK                         _______ _______ _______ _____ _____    ______ ____
ROOT
ATOM      1  C   UNL     1       7.125   5.892  16.996  0.00  0.00    +0.000 A 
ATOM      2  C   UNL     1       7.545   5.030  15.996  0.00  0.00    +0.000 A 
ATOM      3  S   UNL     1       6.261   3.958  15.558  0.00  0.00    +0.000 S 
ATOM      4  C   UNL     1       5.249   4.777  16.643  0.00  0.00    +0.000 A 
ATOM      5  N   UNL     1       3.930   4.435  16.688  0.00  0.00    +0.000 N 
ATOM      6  C   UNL     1       2.988   5.142  17.399  0.00  0.00    +0.000 C 
ATOM      7  O   UNL     1       1.817   4.767  17.383  0.00  0.00    +0.000 OA
ATOM      8  N   UNL     1       3.453   6.240  18.094  0.00  0.00    +0.000 N 
ATOM      9  N   UNL     1       5.795   5.742  17.328  0.00  0.00    +0.000 NA
ATOM     10  H   UNL     1       3.598   3.656  16.140  0.00  0.00    +0.000 HD
ATOM     11  H   UNL     1       4.297   6.618  17.666  0.00  0.00    +0.000 HD
ENDROOT
BRANCH   8  12
ATOM     12  C   UNL     1       2.598   7.218  18.616  0.00  0.00    +0.000 A 
ATOM     13  C   UNL     1       2.241   8.300  17.806  0.00  0.00    +0.000 A 
ATOM     14  C   UNL     1       1.428   9.309  18.315  0.00  0.00    +0.000 A 
ATOM     15  C   UNL     1       0.994   9.246  19.637  0.00  0.00    +0.000 A 
ATOM     16  C   UNL     1       1.408   8.199  20.464  0.00  0.00    +0.000 A 
ATOM     17  C   UNL     1       2.237   7.178  19.972  0.00  0.00    +0.000 A 
BRANCH  17  18
ATOM     18  C   UNL     1       2.747   6.105  20.912  0.00  0.00    +0.000 C 
BRANCH  18  19
ATOM     19  C   UNL     1       2.315   4.674  20.621  0.00  0.00    +0.000 A 
ATOM     20  C   UNL     1       0.945   4.397  20.472  0.00  0.00    +0.000 A 
ATOM     21  C   UNL     1       0.502   3.126  20.096  0.00  0.00    +0.000 A 
ATOM     22  C   UNL     1       1.421   2.108  19.856  0.00  0.00    +0.000 A 
ATOM     23  C   UNL     1       2.782   2.362  20.011  0.00  0.00    +0.000 A 
ATOM     24  C   UNL     1       3.225   3.636  20.379  0.00  0.00    +0.000 A 
ENDBRANCH  18  19
ENDBRANCH  17  18
ENDBRANCH   8  12
BRANCH   1  25
ATOM     25  C   UNL     1       7.858   6.993  17.720  0.00  0.00    +0.000 C 
BRANCH  25  26
ATOM     26  N   UNL     1       8.032   6.550  19.114  0.00  0.00    +0.000 NA
ATOM     27  H   UNL     1       8.184   7.355  19.715  0.00  0.00    +0.000 HD
ATOM     28  H   UNL     1       8.853   5.955  19.190  0.00  0.00    +0.000 HD
ENDBRANCH  25  26
BRANCH  25  29
ATOM     29  C   UNL     1       7.229   8.394  17.639  0.00  0.00    +0.000 C 
BRANCH  29  33
ATOM     30  C   UNL     1       9.783  11.639  18.934  0.00  0.00    +0.000 A 
ATOM     31  C   UNL     1       8.920  11.805  17.853  0.00  0.00    +0.000 A 
ATOM     32  C   UNL     1       8.087  10.760  17.443  0.00  0.00    +0.000 A 
ATOM     33  C   UNL     1       8.129   9.521  18.098  0.00  0.00    +0.000 A 
ATOM     34  C   UNL     1       9.004   9.360  19.179  0.00  0.00    +0.000 A 
ATOM     35  C   UNL     1       9.831  10.412  19.590  0.00  0.00    +0.000 A 
BRANCH  30  37
ATOM     36  C   UNL     1      11.847  12.443  19.759  0.00  0.00    +0.000 C 
ATOM     37  O   UNL     1      10.557  12.728  19.228  0.00  0.00    +0.000 OA
ENDBRANCH  30  37
ENDBRANCH  29  33
ENDBRANCH  25  29
ENDBRANCH   1  25
TORSDOF 8
ENDMDL
MODEL 7
REMARK VINA RESULT:      -7.4      4.380      8.538
REMARK  Name = 
REMARK  9 active torsions:
REMARK  status: ('A' for Active; 'I' for Inactive)
REMARK    1  A    between atoms: C_1  and  O_2
REMARK    2  A    between atoms: O_2  and  C_3
REMARK    3  A    between atoms: C_6  and  C_7
REMARK    4  A    between atoms: C_7  and  C_8
REMARK    5  A    between atoms: C_8  and  N_9
REMARK    6  A    between atoms: C_8  and  C_10
REMARK    7  A    between atoms: N_17  and  C_18
REMARK    8  A    between atoms: C_23  and  C_24
REMARK    9  A    between atoms: C_24  and  C_25
REMARK                            x       y       z     vdW  Elec       q    Type
REMARK                         _______ _______ _______ _____ _____    ______ ____
ROOT
ATOM      1  C   UNL     1       7.242   5.783  16.654  0.00  0.00    +0.000 A 
ATOM      2  C   UNL     1       7.521   5.671  15.301  0.00  0.00    +0.000 A 
ATOM      3  S   UNL     1       6.707   4.297  14.637  0.00  0.00    +0.000 S 
ATOM      4  C   UNL     1       5.991   4.030  16.150  0.00  0.00    +0.000 A 
ATOM      5  N   UNL     1       5.056   3.044  16.263  0.00  0.00    +0.000 N 
ATOM      6  C   UNL     1       4.291   2.852  17.390  0.00  0.00    +0.000 C 
ATOM      7  O   UNL     1       3.466   1.940  17.407  0.00  0.00    +0.000 OA
ATOM      8  N   UNL     1       4.524   3.722  18.436  0.00  0.00    +0.000 N 
ATOM      9  N   UNL     1       6.339   4.844  17.107  0.00  0.00    +0.000 NA
ATOM     10  H   UNL     1       4.867   2.445  15.475  0.00  0.00    +0.000 HD
ATOM     11  H   UNL     1       4.896   4.609  18.101  0.00  0.00    +0.000 HD
ENDROOT
BRANCH   8  12
ATOM     12  C   UNL     1       3.646   3.850  19.519  0.00  0.00    +0.000 A 
ATOM     13  C   UNL     1       3.498   2.773  20.397  0.00  0.00    +0.000 A 
ATOM     14  C   UNL     1       2.599   2.859  21.457  0.00  0.00    +0.000 A 
ATOM     15  C   UNL     1       1.834   4.012  21.621  0.00  0.00    +0.000 A 
ATOM     16  C   UNL     1       1.934   5.059  20.702  0.00  0.00    +0.000 A 
ATOM     17  C   UNL     1       2.826   4.986  19.621  0.00  0.00    +0.000 A 
BRANCH  17  18
ATOM     18  C   UNL     1       2.850   6.094  18.588  0.00  0.00    +0.000 C 
BRANCH  18  19
ATOM     19  C   UNL     1       2.235   7.426  18.994  0.00  0.00    +0.000 A 
ATOM     20  C   UNL     1       1.964   8.380  17.998  0.00  0.00    +0.000 A 
ATOM     21  C   UNL     1       1.300   9.572  18.300  0.00  0.00    +0.000 A 
ATOM     22  C   UNL     1       0.890   9.832  19.605  0.00  0.00    +0.000 A 
ATOM     23  C   UNL     1       1.161   8.903  20.608  0.00  0.00    +0.000 A 
ATOM     24  C   UNL     1       1.818   7.707  20.303  0.00  0.00    +0.000 A 
ENDBRANCH  18  19
ENDBRANCH  17  18
ENDBRANCH   8  12
BRANCH   1  25
ATOM     25  C   UNL     1       7.706   6.788  17.676  0.00  0.00    +0.000 C 
BRANCH  25  26
ATOM     26  N   UNL     1       7.453   6.201  19.003  0.00  0.00    +0.000 NA
ATOM     27  H   UNL     1       6.697   6.701  19.462  0.00  0.00    +0.000 HD
ATOM     28  H   UNL     1       8.278   6.295  19.588  0.00  0.00    +0.000 HD
ENDBRANCH  25  26
BRANCH  25  29
ATOM     29  C   UNL     1       7.116   8.202  17.553  0.00  0.00    +0.000 C 
BRANCH  29  33
ATOM     30  C   UNL     1       9.697  11.403  18.906  0.00  0.00    +0.000 A 
ATOM     31  C   UNL     1       8.815  11.603  17.846  0.00  0.00    +0.000 A 
ATOM     32  C   UNL     1       7.973  10.573  17.418  0.00  0.00    +0.000 A 
ATOM     33  C   UNL     1       8.025   9.314  18.032  0.00  0.00    +0.000 A 
ATOM     34  C   UNL     1       8.919   9.118  19.091  0.00  0.00    +0.000 A 
ATOM     35  C   UNL     1       9.755  10.155  19.521  0.00  0.00    +0.000 A 
BRANCH  30  37
ATOM     36  C   UNL     1      11.646  12.196  19.982  0.00  0.00    +0.000 C 
ATOM     37  O   UNL     1      10.478  12.481  19.221  0.00  0.00    +0.000 OA
ENDBRANCH  30  37
ENDBRANCH  29  33
ENDBRANCH  25  29
ENDBRANCH   1  25
TORSDOF 8
ENDMDL
MODEL 8
REMARK VINA RESULT:      -7.3      5.947      8.767
REMARK  Name = 
REMARK  9 active torsions:
REMARK  status: ('A' for Active; 'I' for Inactive)
REMARK    1  A    between atoms: C_1  and  O_2
REMARK    2  A    between atoms: O_2  and  C_3
REMARK    3  A    between atoms: C_6  and  C_7
REMARK    4  A    between atoms: C_7  and  C_8
REMARK    5  A    between atoms: C_8  and  N_9
REMARK    6  A    between atoms: C_8  and  C_10
REMARK    7  A    between atoms: N_17  and  C_18
REMARK    8  A    between atoms: C_23  and  C_24
REMARK    9  A    between atoms: C_24  and  C_25
REMARK                            x       y       z     vdW  Elec       q    Type
REMARK                         _______ _______ _______ _____ _____    ______ ____
ROOT
ATOM      1  C   UNL     1      -1.357  16.185  21.137  0.00  0.00    +0.000 A 
ATOM      2  C   UNL     1      -1.347  16.646  22.444  0.00  0.00    +0.000 A 
ATOM      3  S   UNL     1      -2.582  15.858  23.363  0.00  0.00    +0.000 S 
ATOM      4  C   UNL     1      -2.953  14.920  22.000  0.00  0.00    +0.000 A 
ATOM      5  N   UNL     1      -3.876  13.925  22.127  0.00  0.00    +0.000 N 
ATOM      6  C   UNL     1      -4.128  12.997  21.143  0.00  0.00    +0.000 C 
ATOM      7  O   UNL     1      -4.975  12.128  21.340  0.00  0.00    +0.000 OA
ATOM      8  N   UNL     1      -3.391  13.128  19.983  0.00  0.00    +0.000 N 
ATOM      9  N   UNL     1      -2.270  15.174  20.919  0.00  0.00    +0.000 NA
ATOM     10  H   UNL     1      -4.374  13.816  22.996  0.00  0.00    +0.000 HD
ATOM     11  H   UNL     1      -2.502  13.594  20.162  0.00  0.00    +0.000 HD
ENDROOT
BRANCH   8  12
ATOM     12  C   UNL     1      -3.312  12.113  19.022  0.00  0.00    +0.000 A 
ATOM     13  C   UNL     1      -4.483  11.707  18.375  0.00  0.00    +0.000 A 
ATOM     14  C   UNL     1      -4.440  10.671  17.446  0.00  0.00    +0.000 A 
ATOM     15  C   UNL     1      -3.232  10.029  17.184  0.00  0.00    +0.000 A 
ATOM     16  C   UNL     1      -2.077  10.391  17.882  0.00  0.00    +0.000 A 
ATOM     17  C   UNL     1      -2.103  11.426  18.830  0.00  0.00    +0.000 A 
BRANCH  17  18
ATOM     18  C   UNL     1      -0.860  11.738  19.638  0.00  0.00    +0.000 C 
BRANCH  18  19
ATOM     19  C   UNL     1      -0.609  10.882  20.872  0.00  0.00    +0.000 A 
ATOM     20  C   UNL     1       0.262   9.783  20.769  0.00  0.00    +0.000 A 
ATOM     21  C   UNL     1       0.613   9.033  21.895  0.00  0.00    +0.000 A 
ATOM     22  C   UNL     1       0.104   9.369  23.146  0.00  0.00    +0.000 A 
ATOM     23  C   UNL     1      -0.771  10.447  23.264  0.00  0.00    +0.000 A 
ATOM     24  C   UNL     1      -1.116  11.203  22.139  0.00  0.00    +0.000 A 
ENDBRANCH  18  19
ENDBRANCH  17  18
ENDBRANCH   8  12
BRANCH   1  25
ATOM     25  C   UNL     1      -0.499  16.555  19.955  0.00  0.00    +0.000 C 
BRANCH  25  26
ATOM     26  N   UNL     1      -1.138  17.713  19.306  0.00  0.00    +0.000 NA
ATOM     27  H   UNL     1      -0.688  17.900  18.414  0.00  0.00    +0.000 HD
ATOM     28  H   UNL     1      -1.025  18.542  19.882  0.00  0.00    +0.000 HD
ENDBRANCH  25  26
BRANCH  25  29
ATOM     29  C   UNL     1      -0.202  15.428  18.952  0.00  0.00    +0.000 C 
BRANCH  29  33
ATOM     30  C   UNL     1       3.993  14.927  18.010  0.00  0.00    +0.000 A 
ATOM     31  C   UNL     1       3.398  16.186  17.949  0.00  0.00    +0.000 A 
ATOM     32  C   UNL     1       2.046  16.348  18.266  0.00  0.00    +0.000 A 
ATOM     33  C   UNL     1       1.264  15.241  18.622  0.00  0.00    +0.000 A 
ATOM     34  C   UNL     1       1.866  13.979  18.673  0.00  0.00    +0.000 A 
ATOM     35  C   UNL     1       3.222  13.822  18.363  0.00  0.00    +0.000 A 
BRANCH  30  37
ATOM     36  C   UNL     1       6.202  15.578  18.542  0.00  0.00    +0.000 C 
ATOM     37  O   UNL     1       5.315  14.895  17.663  0.00  0.00    +0.000 OA
ENDBRANCH  30  37
ENDBRANCH  29  33
ENDBRANCH  25  29
ENDBRANCH   1  25
TORSDOF 8
ENDMDL
MODEL 9
REMARK VINA RESULT:      -7.3      5.939      8.537
REMARK  Name = 
REMARK  9 active torsions:
REMARK  status: ('A' for Active; 'I' for Inactive)
REMARK    1  A    between atoms: C_1  and  O_2
REMARK    2  A    between atoms: O_2  and  C_3
REMARK    3  A    between atoms: C_6  and  C_7
REMARK    4  A    between atoms: C_7  and  C_8
REMARK    5  A    between atoms: C_8  and  N_9
REMARK    6  A    between atoms: C_8  and  C_10
REMARK    7  A    between atoms: N_17  and  C_18
REMARK    8  A    between atoms: C_23  and  C_24
REMARK    9  A    between atoms: C_24  and  C_25
REMARK                            x       y       z     vdW  Elec       q    Type
REMARK                         _______ _______ _______ _____ _____    ______ ____
ROOT
ATOM      1  C   UNL     1      -2.479  14.709  22.786  0.00  0.00    +0.000 A 
ATOM      2  C   UNL     1      -3.349  15.060  23.805  0.00  0.00    +0.000 A 
ATOM      3  S   UNL     1      -4.982  14.752  23.327  0.00  0.00    +0.000 S 
ATOM      4  C   UNL     1      -4.400  14.100  21.875  0.00  0.00    +0.000 A 
ATOM      5  N   UNL     1      -5.290  13.525  21.017  0.00  0.00    +0.000 N 
ATOM      6  C   UNL     1      -4.914  12.817  19.898  0.00  0.00    +0.000 C 
ATOM      7  O   UNL     1      -5.782  12.325  19.179  0.00  0.00    +0.000 OA
ATOM      8  N   UNL     1      -3.556  12.721  19.671  0.00  0.00    +0.000 N 
ATOM      9  N   UNL     1      -3.108  14.134  21.702  0.00  0.00    +0.000 NA
ATOM     10  H   UNL     1      -6.276  13.566  21.220  0.00  0.00    +0.000 HD
ATOM     11  H   UNL     1      -3.029  12.804  20.539  0.00  0.00    +0.000 HD
ENDROOT
BRANCH   8  12
ATOM     12  C   UNL     1      -3.006  11.806  18.764  0.00  0.00    +0.000 A 
ATOM     13  C   UNL     1      -3.863  11.121  17.898  0.00  0.00    +0.000 A 
ATOM     14  C   UNL     1      -3.347  10.174  17.017  0.00  0.00    +0.000 A 
ATOM     15  C   UNL     1      -1.982   9.900  17.020  0.00  0.00    +0.000 A 
ATOM     16  C   UNL     1      -1.138  10.536  17.933  0.00  0.00    +0.000 A 
ATOM     17  C   UNL     1      -1.642  11.485  18.837  0.00  0.00    +0.000 A 
BRANCH  17  18
ATOM     18  C   UNL     1      -0.724  12.093  19.878  0.00  0.00    +0.000 C 
BRANCH  18  19
ATOM     19  C   UNL     1      -0.318  11.202  21.043  0.00  0.00    +0.000 A 
ATOM     20  C   UNL     1      -1.120  11.189  22.198  0.00  0.00    +0.000 A 
ATOM     21  C   UNL     1      -0.856  10.308  23.250  0.00  0.00    +0.000 A 
ATOM     22  C   UNL     1       0.212   9.419  23.166  0.00  0.00    +0.000 A 
ATOM     23  C   UNL     1       1.024   9.426  22.034  0.00  0.00    +0.000 A 
ATOM     24  C   UNL     1       0.755  10.302  20.977  0.00  0.00    +0.000 A 
ENDBRANCH  18  19
ENDBRANCH  17  18
ENDBRANCH   8  12
BRANCH   1  25
ATOM     25  C   UNL     1      -0.976  14.789  22.701  0.00  0.00    +0.000 C 
BRANCH  25  26
ATOM     26  N   UNL     1      -0.483  15.069  24.060  0.00  0.00    +0.000 NA
ATOM     27  H   UNL     1       0.447  15.477  24.012  0.00  0.00    +0.000 HD
ATOM     28  H   UNL     1      -0.407  14.205  24.588  0.00  0.00    +0.000 HD
ENDBRANCH  25  26
BRANCH  25  29
ATOM     29  C   UNL     1      -0.407  15.778  21.670  0.00  0.00    +0.000 C 
BRANCH  29  33
ATOM     30  C   UNL     1       2.788  14.227  19.196  0.00  0.00    +0.000 A 
ATOM     31  C   UNL     1       1.811  15.060  18.653  0.00  0.00    +0.000 A 
ATOM     32  C   UNL     1       0.787  15.570  19.456  0.00  0.00    +0.000 A 
ATOM     33  C   UNL     1       0.713  15.228  20.813  0.00  0.00    +0.000 A 
ATOM     34  C   UNL     1       1.693  14.385  21.350  0.00  0.00    +0.000 A 
ATOM     35  C   UNL     1       2.721  13.882  20.544  0.00  0.00    +0.000 A 
BRANCH  30  37
ATOM     36  C   UNL     1       4.792  14.683  18.028  0.00  0.00    +0.000 C 
ATOM     37  O   UNL     1       3.727  13.781  18.308  0.00  0.00    +0.000 OA
ENDBRANCH  30  37
ENDBRANCH  29  33
ENDBRANCH  25  29
ENDBRANCH   1  25
TORSDOF 8
ENDMDL
