MODEL 1
REMARK VINA RESULT:      -7.4      0.000      0.000
REMARK  Name = 
REMARK  6 active torsions:
REMARK  status: ('A' for Active; 'I' for Inactive)
REMARK    1  A    between atoms: C_1  and  C_2
REMARK    2  A    between atoms: C_7  and  N_8
REMARK    3  A    between atoms: C_9  and  C_11
REMARK    4  A    between atoms: C_11  and  C_12
REMARK    5  A    between atoms: C_11  and  O_13
REMARK    6  A    between atoms: C_11  and  C_14
REMARK                            x       y       z     vdW  Elec       q    Type
REMARK                         _______ _______ _______ _____ _____    ______ ____
ROOT
ATOM      1  N   UNL     1       4.242   3.526  18.308  0.00  0.00    +0.000 N 
ATOM      2  C   UNL     1       5.208   4.533  18.334  0.00  0.00    +0.000 C 
ATOM      3  O   UNL     1       5.370   5.337  19.252  0.00  0.00    +0.000 OA
ATOM      4  H   UNL     1       4.372   2.796  17.614  0.00  0.00    +0.000 HD
ENDROOT
BRANCH   1  11
ATOM      5  C   UNL     1       1.461   4.413  17.756  0.00  0.00    +0.000 C 
ATOM      6  C   UNL     1       1.899   3.758  19.036  0.00  0.00    +0.000 A 
ATOM      7  C   UNL     1       0.912   3.528  20.022  0.00  0.00    +0.000 A 
ATOM      8  C   UNL     1       1.225   2.914  21.229  0.00  0.00    +0.000 A 
ATOM      9  C   UNL     1       2.532   2.535  21.484  0.00  0.00    +0.000 A 
ATOM     10  C   UNL     1       3.520   2.754  20.525  0.00  0.00    +0.000 A 
ATOM     11  C   UNL     1       3.226   3.342  19.284  0.00  0.00    +0.000 A 
ENDBRANCH   1  11
BRANCH   2  12
ATOM     12  C   UNL     1       6.132   4.564  17.109  0.00  0.00    +0.000 C 
ATOM     13  C   UNL     1       7.595   4.620  17.584  0.00  0.00    +0.000 C 
BRANCH  12  14
ATOM     14  C   UNL     1       5.786   5.837  16.301  0.00  0.00    +0.000 C 
ATOM     15  F   UNL     1       6.457   6.937  16.707  0.00  0.00    +0.000 F 
ATOM     16  F   UNL     1       6.046   5.687  14.976  0.00  0.00    +0.000 F 
ATOM     17  F   UNL     1       4.464   6.137  16.395  0.00  0.00    +0.000 F 
ENDBRANCH  12  14
BRANCH  12  18
ATOM     18  O   UNL     1       5.957   3.340  16.357  0.00  0.00    +0.000 OA
ATOM     19  H   UNL     1       6.325   3.486  15.467  0.00  0.00    +0.000 HD
ENDBRANCH  12  18
ENDBRANCH   2  12
TORSDOF 4
ENDMDL
MODEL 2
REMARK VINA RESULT:      -7.2      1.388      2.448
REMARK  Name = 
REMARK  6 active torsions:
REMARK  status: ('A' for Active; 'I' for Inactive)
REMARK    1  A    between atoms: C_1  and  C_2
REMARK    2  A    between atoms: C_7  and  N_8
REMARK    3  A    between atoms: C_9  and  C_11
REMARK    4  A    between atoms: C_11  and  C_12
REMARK    5  A    between atoms: C_11  and  O_13
REMARK    6  A    between atoms: C_11  and  C_14
REMARK                            x       y       z     vdW  Elec       q    Type
REMARK                         _______ _______ _______ _____ _____    ______ ____
ROOT
ATOM      1  N   UNL     1       5.112   3.921  18.040  0.00  0.00    +0.000 N 
ATOM      2  C   UNL     1       5.791   4.948  18.697  0.00  0.00    +0.000 C 
ATOM      3  O   UNL     1       5.358   5.585  19.656  0.00  0.00    +0.000 OA
ATOM      4  H   UNL     1       5.670   3.329  17.431  0.00  0.00    +0.000 HD
ENDROOT
BRANCH   1  11
ATOM      5  C   UNL     1       4.536   1.929  20.168  0.00  0.00    +0.000 C 
ATOM      6  C   UNL     1       3.483   2.580  19.316  0.00  0.00    +0.000 A 
ATOM      7  C   UNL     1       2.135   2.238  19.568  0.00  0.00    +0.000 A 
ATOM      8  C   UNL     1       1.096   2.804  18.839  0.00  0.00    +0.000 A 
ATOM      9  C   UNL     1       1.382   3.706  17.829  0.00  0.00    +0.000 A 
ATOM     10  C   UNL     1       2.706   4.056  17.563  0.00  0.00    +0.000 A 
ATOM     11  C   UNL     1       3.773   3.526  18.306  0.00  0.00    +0.000 A 
ENDBRANCH   1  11
BRANCH   2  12
ATOM     12  C   UNL     1       7.198   5.232  18.154  0.00  0.00    +0.000 C 
ATOM     13  C   UNL     1       8.038   5.896  19.259  0.00  0.00    +0.000 C 
BRANCH  12  14
ATOM     14  C   UNL     1       7.044   6.193  16.951  0.00  0.00    +0.000 C 
ATOM     15  F   UNL     1       7.285   5.609  15.757  0.00  0.00    +0.000 F 
ATOM     16  F   UNL     1       5.798   6.728  16.881  0.00  0.00    +0.000 F 
ATOM     17  F   UNL     1       7.902   7.242  17.044  0.00  0.00    +0.000 F 
ENDBRANCH  12  14
BRANCH  12  18
ATOM     18  O   UNL     1       7.832   3.977  17.810  0.00  0.00    +0.000 OA
ATOM     19  H   UNL     1       7.748   3.385  18.578  0.00  0.00    +0.000 HD
ENDBRANCH  12  18
ENDBRANCH   2  12
TORSDOF 4
ENDMDL
MODEL 3
REMARK VINA RESULT:      -7.2      1.638      2.007
REMARK  Name = 
REMARK  6 active torsions:
REMARK  status: ('A' for Active; 'I' for Inactive)
REMARK    1  A    between atoms: C_1  and  C_2
REMARK    2  A    between atoms: C_7  and  N_8
REMARK    3  A    between atoms: C_9  and  C_11
REMARK    4  A    between atoms: C_11  and  C_12
REMARK    5  A    between atoms: C_11  and  O_13
REMARK    6  A    between atoms: C_11  and  C_14
REMARK                            x       y       z     vdW  Elec       q    Type
REMARK                         _______ _______ _______ _____ _____    ______ ____
ROOT
ATOM      1  N   UNL     1       4.291   4.949  17.893  0.00  0.00    +0.000 N 
ATOM      2  C   UNL     1       5.598   4.543  18.166  0.00  0.00    +0.000 C 
ATOM      3  O   UNL     1       5.940   3.845  19.120  0.00  0.00    +0.000 OA
ATOM      4  H   UNL     1       4.118   5.313  16.961  0.00  0.00    +0.000 HD
ENDROOT
BRANCH   1  11
ATOM      5  C   UNL     1       2.563   2.575  17.446  0.00  0.00    +0.000 C 
ATOM      6  C   UNL     1       2.339   3.587  18.533  0.00  0.00    +0.000 A 
ATOM      7  C   UNL     1       1.252   3.373  19.411  0.00  0.00    +0.000 A 
ATOM      8  C   UNL     1       0.981   4.250  20.455  0.00  0.00    +0.000 A 
ATOM      9  C   UNL     1       1.776   5.370  20.631  0.00  0.00    +0.000 A 
ATOM     10  C   UNL     1       2.853   5.599  19.775  0.00  0.00    +0.000 A 
ATOM     11  C   UNL     1       3.170   4.713  18.733  0.00  0.00    +0.000 A 
ENDBRANCH   1  11
BRANCH   2  12
ATOM     12  C   UNL     1       6.639   5.007  17.138  0.00  0.00    +0.000 C 
ATOM     13  C   UNL     1       6.675   6.545  17.117  0.00  0.00    +0.000 C 
BRANCH  12  14
ATOM     14  C   UNL     1       6.198   4.465  15.757  0.00  0.00    +0.000 C 
ATOM     15  F   UNL     1       5.226   5.200  15.172  0.00  0.00    +0.000 F 
ATOM     16  F   UNL     1       7.230   4.411  14.876  0.00  0.00    +0.000 F 
ATOM     17  F   UNL     1       5.715   3.200  15.854  0.00  0.00    +0.000 F 
ENDBRANCH  12  14
BRANCH  12  18
ATOM     18  O   UNL     1       7.946   4.538  17.548  0.00  0.00    +0.000 OA
ATOM     19  H   UNL     1       8.285   5.161  18.216  0.00  0.00    +0.000 HD
ENDBRANCH  12  18
ENDBRANCH   2  12
TORSDOF 4
ENDMDL
MODEL 4
REMARK VINA RESULT:      -7.2      1.696      2.283
REMARK  Name = 
REMARK  6 active torsions:
REMARK  status: ('A' for Active; 'I' for Inactive)
REMARK    1  A    between atoms: C_1  and  C_2
REMARK    2  A    between atoms: C_7  and  N_8
REMARK    3  A    between atoms: C_9  and  C_11
REMARK    4  A    between atoms: C_11  and  C_12
REMARK    5  A    between atoms: C_11  and  O_13
REMARK    6  A    between atoms: C_11  and  C_14
REMARK                            x       y       z     vdW  Elec       q    Type
REMARK                         _______ _______ _______ _____ _____    ______ ____
ROOT
ATOM      1  N   UNL     1       3.911   4.858  17.943  0.00  0.00    +0.000 N 
ATOM      2  C   UNL     1       5.273   4.976  18.222  0.00  0.00    +0.000 C 
ATOM      3  O   UNL     1       5.834   4.531  19.223  0.00  0.00    +0.000 OA
ATOM      4  H   UNL     1       3.628   5.054  16.988  0.00  0.00    +0.000 HD
ENDROOT
BRANCH   1  11
ATOM      5  C   UNL     1       3.326   1.946  17.878  0.00  0.00    +0.000 C 
ATOM      6  C   UNL     1       2.654   2.920  18.804  0.00  0.00    +0.000 A 
ATOM      7  C   UNL     1       1.705   2.405  19.717  0.00  0.00    +0.000 A 
ATOM      8  C   UNL     1       1.047   3.231  20.620  0.00  0.00    +0.000 A 
ATOM      9  C   UNL     1       1.307   4.591  20.617  0.00  0.00    +0.000 A 
ATOM     10  C   UNL     1       2.238   5.119  19.723  0.00  0.00    +0.000 A 
ATOM     11  C   UNL     1       2.942   4.303  18.823  0.00  0.00    +0.000 A 
ENDBRANCH   1  11
BRANCH   2  12
ATOM     12  C   UNL     1       6.087   5.697  17.138  0.00  0.00    +0.000 C 
ATOM     13  C   UNL     1       5.121   6.401  16.169  0.00  0.00    +0.000 C 
BRANCH  12  14
ATOM     14  C   UNL     1       6.907   4.622  16.385  0.00  0.00    +0.000 C 
ATOM     15  F   UNL     1       7.402   5.048  15.203  0.00  0.00    +0.000 F 
ATOM     16  F   UNL     1       7.964   4.183  17.116  0.00  0.00    +0.000 F 
ATOM     17  F   UNL     1       6.153   3.526  16.113  0.00  0.00    +0.000 F 
ENDBRANCH  12  14
BRANCH  12  18
ATOM     18  O   UNL     1       6.906   6.713  17.763  0.00  0.00    +0.000 OA
ATOM     19  H   UNL     1       6.867   6.571  18.726  0.00  0.00    +0.000 HD
ENDBRANCH  12  18
ENDBRANCH   2  12
TORSDOF 4
ENDMDL
MODEL 5
REMARK VINA RESULT:      -7.1      1.729      1.893
REMARK  Name = 
REMARK  6 active torsions:
REMARK  status: ('A' for Active; 'I' for Inactive)
REMARK    1  A    between atoms: C_1  and  C_2
REMARK    2  A    between atoms: C_7  and  N_8
REMARK    3  A    between atoms: C_9  and  C_11
REMARK    4  A    between atoms: C_11  and  C_12
REMARK    5  A    between atoms: C_11  and  O_13
REMARK    6  A    between atoms: C_11  and  C_14
REMARK                            x       y       z     vdW  Elec       q    Type
REMARK                         _______ _______ _______ _____ _____    ______ ____
ROOT
ATOM      1  N   UNL     1       5.146   4.089  17.688  0.00  0.00    +0.000 N 
ATOM      2  C   UNL     1       6.008   4.661  18.625  0.00  0.00    +0.000 C 
ATOM      3  O   UNL     1       5.802   4.718  19.837  0.00  0.00    +0.000 OA
ATOM      4  H   UNL     1       5.540   3.897  16.772  0.00  0.00    +0.000 HD
ENDROOT
BRANCH   1  11
ATOM      5  C   UNL     1       2.825   5.936  17.856  0.00  0.00    +0.000 C 
ATOM      6  C   UNL     1       2.735   4.450  18.055  0.00  0.00    +0.000 A 
ATOM      7  C   UNL     1       1.457   3.901  18.310  0.00  0.00    +0.000 A 
ATOM      8  C   UNL     1       1.279   2.535  18.490  0.00  0.00    +0.000 A 
ATOM      9  C   UNL     1       2.375   1.690  18.441  0.00  0.00    +0.000 A 
ATOM     10  C   UNL     1       3.644   2.212  18.192  0.00  0.00    +0.000 A 
ATOM     11  C   UNL     1       3.849   3.583  17.973  0.00  0.00    +0.000 A 
ENDBRANCH   1  11
BRANCH   2  12
ATOM     12  C   UNL     1       7.315   5.211  18.038  0.00  0.00    +0.000 C 
ATOM     13  C   UNL     1       8.205   5.722  19.184  0.00  0.00    +0.000 C 
BRANCH  12  14
ATOM     14  C   UNL     1       6.941   6.378  17.093  0.00  0.00    +0.000 C 
ATOM     15  F   UNL     1       7.915   7.306  16.966  0.00  0.00    +0.000 F 
ATOM     16  F   UNL     1       6.648   5.946  15.839  0.00  0.00    +0.000 F 
ATOM     17  F   UNL     1       5.839   7.037  17.534  0.00  0.00    +0.000 F 
ENDBRANCH  12  14
BRANCH  12  18
ATOM     18  O   UNL     1       8.021   4.137  17.373  0.00  0.00    +0.000 OA
ATOM     19  H   UNL     1       8.730   4.537  16.839  0.00  0.00    +0.000 HD
ENDBRANCH  12  18
ENDBRANCH   2  12
TORSDOF 4
ENDMDL
MODEL 6
REMARK VINA RESULT:      -7.1      1.590      1.877
REMARK  Name = 
REMARK  6 active torsions:
REMARK  status: ('A' for Active; 'I' for Inactive)
REMARK    1  A    between atoms: C_1  and  C_2
REMARK    2  A    between atoms: C_7  and  N_8
REMARK    3  A    between atoms: C_9  and  C_11
REMARK    4  A    between atoms: C_11  and  C_12
REMARK    5  A    between atoms: C_11  and  O_13
REMARK    6  A    between atoms: C_11  and  C_14
REMARK                            x       y       z     vdW  Elec       q    Type
REMARK                         _______ _______ _______ _____ _____    ______ ____
ROOT
ATOM      1  N   UNL     1       4.655   4.190  18.536  0.00  0.00    +0.000 N 
ATOM      2  C   UNL     1       5.091   5.248  17.738  0.00  0.00    +0.000 C 
ATOM      3  O   UNL     1       4.451   6.274  17.507  0.00  0.00    +0.000 OA
ATOM      4  H   UNL     1       5.365   3.527  18.833  0.00  0.00    +0.000 HD
ENDROOT
BRANCH   1  11
ATOM      5  C   UNL     1       2.711   2.204  17.484  0.00  0.00    +0.000 C 
ATOM      6  C   UNL     1       2.426   3.141  18.625  0.00  0.00    +0.000 A 
ATOM      7  C   UNL     1       1.161   3.044  19.248  0.00  0.00    +0.000 A 
ATOM      8  C   UNL     1       0.818   3.860  20.321  0.00  0.00    +0.000 A 
ATOM      9  C   UNL     1       1.723   4.802  20.778  0.00  0.00    +0.000 A 
ATOM     10  C   UNL     1       2.976   4.914  20.176  0.00  0.00    +0.000 A 
ATOM     11  C   UNL     1       3.361   4.081  19.113  0.00  0.00    +0.000 A 
ENDBRANCH   1  11
BRANCH   2  12
ATOM     12  C   UNL     1       6.504   5.076  17.164  0.00  0.00    +0.000 C 
ATOM     13  C   UNL     1       7.208   6.443  17.141  0.00  0.00    +0.000 C 
BRANCH  12  14
ATOM     14  C   UNL     1       6.354   4.529  15.724  0.00  0.00    +0.000 C 
ATOM     15  F   UNL     1       7.500   4.564  15.009  0.00  0.00    +0.000 F 
ATOM     16  F   UNL     1       5.923   3.242  15.709  0.00  0.00    +0.000 F 
ATOM     17  F   UNL     1       5.440   5.243  15.018  0.00  0.00    +0.000 F 
ENDBRANCH  12  14
BRANCH  12  18
ATOM     18  O   UNL     1       7.261   4.201  18.034  0.00  0.00    +0.000 OA
ATOM     19  H   UNL     1       7.211   4.567  18.935  0.00  0.00    +0.000 HD
ENDBRANCH  12  18
ENDBRANCH   2  12
TORSDOF 4
ENDMDL
MODEL 7
REMARK VINA RESULT:      -7.1      1.693      2.244
REMARK  Name = 
REMARK  6 active torsions:
REMARK  status: ('A' for Active; 'I' for Inactive)
REMARK    1  A    between atoms: C_1  and  C_2
REMARK    2  A    between atoms: C_7  and  N_8
REMARK    3  A    between atoms: C_9  and  C_11
REMARK    4  A    between atoms: C_11  and  C_12
REMARK    5  A    between atoms: C_11  and  O_13
REMARK    6  A    between atoms: C_11  and  C_14
REMARK                            x       y       z     vdW  Elec       q    Type
REMARK                         _______ _______ _______ _____ _____    ______ ____
ROOT
ATOM      1  N   UNL     1       3.923   4.816  17.930  0.00  0.00    +0.000 N 
ATOM      2  C   UNL     1       5.286   4.930  18.206  0.00  0.00    +0.000 C 
ATOM      3  O   UNL     1       5.852   4.461  19.193  0.00  0.00    +0.000 OA
ATOM      4  H   UNL     1       3.635   5.037  16.981  0.00  0.00    +0.000 HD
ENDROOT
BRANCH   1  11
ATOM      5  C   UNL     1       2.370   6.533  19.792  0.00  0.00    +0.000 C 
ATOM      6  C   UNL     1       2.211   5.043  19.690  0.00  0.00    +0.000 A 
ATOM      7  C   UNL     1       1.240   4.431  20.515  0.00  0.00    +0.000 A 
ATOM      8  C   UNL     1       1.015   3.061  20.475  0.00  0.00    +0.000 A 
ATOM      9  C   UNL     1       1.769   2.269  19.625  0.00  0.00    +0.000 A 
ATOM     10  C   UNL     1       2.733   2.853  18.803  0.00  0.00    +0.000 A 
ATOM     11  C   UNL     1       2.958   4.239  18.799  0.00  0.00    +0.000 A 
ENDBRANCH   1  11
BRANCH   2  12
ATOM     12  C   UNL     1       6.094   5.678  17.137  0.00  0.00    +0.000 C 
ATOM     13  C   UNL     1       5.124   6.414  16.197  0.00  0.00    +0.000 C 
BRANCH  12  14
ATOM     14  C   UNL     1       6.904   4.623  16.347  0.00  0.00    +0.000 C 
ATOM     15  F   UNL     1       6.189   3.524  16.019  0.00  0.00    +0.000 F 
ATOM     16  F   UNL     1       7.403   5.125  15.188  0.00  0.00    +0.000 F 
ATOM     17  F   UNL     1       7.973   4.185  17.061  0.00  0.00    +0.000 F 
ENDBRANCH  12  14
BRANCH  12  18
ATOM     18  O   UNL     1       6.923   6.672  17.784  0.00  0.00    +0.000 OA
ATOM     19  H   UNL     1       6.958   6.453  18.733  0.00  0.00    +0.000 HD
ENDBRANCH  12  18
ENDBRANCH   2  12
TORSDOF 4
ENDMDL
MODEL 8
REMARK VINA RESULT:      -7.0      1.540      1.924
REMARK  Name = 
REMARK  6 active torsions:
REMARK  status: ('A' for Active; 'I' for Inactive)
REMARK    1  A    between atoms: C_1  and  C_2
REMARK    2  A    between atoms: C_7  and  N_8
REMARK    3  A    between atoms: C_9  and  C_11
REMARK    4  A    between atoms: C_11  and  C_12
REMARK    5  A    between atoms: C_11  and  O_13
REMARK    6  A    between atoms: C_11  and  C_14
REMARK                            x       y       z     vdW  Elec       q    Type
REMARK                         _______ _______ _______ _____ _____    ______ ____
ROOT
ATOM      1  N   UNL     1       4.934   4.843  19.379  0.00  0.00    +0.000 N 
ATOM      2  C   UNL     1       5.575   4.517  18.184  0.00  0.00    +0.000 C 
ATOM      3  O   UNL     1       5.084   3.849  17.274  0.00  0.00    +0.000 OA
ATOM      4  H   UNL     1       5.356   5.586  19.928  0.00  0.00    +0.000 HD
ENDROOT
BRANCH   1  11
ATOM      5  C   UNL     1       2.607   6.687  19.478  0.00  0.00    +0.000 C 
ATOM      6  C   UNL     1       2.542   5.228  19.831  0.00  0.00    +0.000 A 
ATOM      7  C   UNL     1       1.284   4.702  20.206  0.00  0.00    +0.000 A 
ATOM      8  C   UNL     1       1.128   3.360  20.532  0.00  0.00    +0.000 A 
ATOM      9  C   UNL     1       2.229   2.520  20.513  0.00  0.00    +0.000 A 
ATOM     10  C   UNL     1       3.479   3.019  20.147  0.00  0.00    +0.000 A 
ATOM     11  C   UNL     1       3.658   4.363  19.780  0.00  0.00    +0.000 A 
ENDBRANCH   1  11
BRANCH   2  12
ATOM     12  C   UNL     1       6.988   5.097  18.037  0.00  0.00    +0.000 C 
ATOM     13  C   UNL     1       7.409   5.740  19.370  0.00  0.00    +0.000 C 
BRANCH  12  14
ATOM     14  C   UNL     1       6.934   6.169  16.922  0.00  0.00    +0.000 C 
ATOM     15  F   UNL     1       7.163   5.676  15.685  0.00  0.00    +0.000 F 
ATOM     16  F   UNL     1       5.732   6.798  16.876  0.00  0.00    +0.000 F 
ATOM     17  F   UNL     1       7.862   7.140  17.125  0.00  0.00    +0.000 F 
ENDBRANCH  12  14
BRANCH  12  18
ATOM     18  O   UNL     1       7.912   4.020  17.754  0.00  0.00    +0.000 OA
ATOM     19  H   UNL     1       7.874   3.843  16.797  0.00  0.00    +0.000 HD
ENDBRANCH  12  18
ENDBRANCH   2  12
TORSDOF 4
ENDMDL
MODEL 9
REMARK VINA RESULT:      -7.0      1.205      1.575
REMARK  Name = 
REMARK  6 active torsions:
REMARK  status: ('A' for Active; 'I' for Inactive)
REMARK    1  A    between atoms: C_1  and  C_2
REMARK    2  A    between atoms: C_7  and  N_8
REMARK    3  A    between atoms: C_9  and  C_11
REMARK    4  A    between atoms: C_11  and  C_12
REMARK    5  A    between atoms: C_11  and  O_13
REMARK    6  A    between atoms: C_11  and  C_14
REMARK                            x       y       z     vdW  Elec       q    Type
REMARK                         _______ _______ _______ _____ _____    ______ ____
ROOT
ATOM      1  N   UNL     1       4.909   3.566  18.496  0.00  0.00    +0.000 N 
ATOM      2  C   UNL     1       5.427   4.840  18.260  0.00  0.00    +0.000 C 
ATOM      3  O   UNL     1       4.985   5.886  18.736  0.00  0.00    +0.000 OA
ATOM      4  H   UNL     1       5.504   2.784  18.240  0.00  0.00    +0.000 HD
ENDROOT
BRANCH   1  11
ATOM      5  C   UNL     1       2.249   3.786  17.191  0.00  0.00    +0.000 C 
ATOM      6  C   UNL     1       2.454   3.388  18.625  0.00  0.00    +0.000 A 
ATOM      7  C   UNL     1       1.305   3.073  19.386  0.00  0.00    +0.000 A 
ATOM      8  C   UNL     1       1.402   2.679  20.716  0.00  0.00    +0.000 A 
ATOM      9  C   UNL     1       2.647   2.613  21.319  0.00  0.00    +0.000 A 
ATOM     10  C   UNL     1       3.793   2.921  20.586  0.00  0.00    +0.000 A 
ATOM     11  C   UNL     1       3.726   3.289  19.233  0.00  0.00    +0.000 A 
ENDBRANCH   1  11
BRANCH   2  12
ATOM     12  C   UNL     1       6.667   4.868  17.355  0.00  0.00    +0.000 C 
ATOM     13  C   UNL     1       7.302   6.268  17.417  0.00  0.00    +0.000 C 
BRANCH  12  14
ATOM     14  C   UNL     1       6.196   4.560  15.915  0.00  0.00    +0.000 C 
ATOM     15  F   UNL     1       6.055   3.240  15.661  0.00  0.00    +0.000 F 
ATOM     16  F   UNL     1       5.001   5.141  15.633  0.00  0.00    +0.000 F 
ATOM     17  F   UNL     1       7.074   5.035  14.995  0.00  0.00    +0.000 F 
ENDBRANCH  12  14
BRANCH  12  18
ATOM     18  O   UNL     1       7.637   3.919  17.858  0.00  0.00    +0.000 OA
ATOM     19  H   UNL     1       8.521   4.314  17.746  0.00  0.00    +0.000 HD
ENDBRANCH  12  18
ENDBRANCH   2  12
TORSDOF 4
ENDMDL
