MODEL 1
REMARK VINA RESULT:      -8.2      0.000      0.000
REMARK  Name = 
REMARK  6 active torsions:
REMARK  status: ('A' for Active; 'I' for Inactive)
REMARK    1  A    between atoms: C_1  and  O_2
REMARK    2  A    between atoms: O_2  and  C_3
REMARK    3  A    between atoms: C_5  and  C_6
REMARK    4  A    between atoms: C_10  and  N_11
REMARK    5  A    between atoms: C_13  and  C_14
REMARK    6  A    between atoms: C_16  and  C_17
REMARK                            x       y       z     vdW  Elec       q    Type
REMARK                         _______ _______ _______ _____ _____    ______ ____
ROOT
ATOM      1  C   UNL     1       2.006   7.616  19.558  0.00  0.00    +0.000 A 
ATOM      2  C   UNL     1       2.916   7.685  18.473  0.00  0.00    +0.000 A 
ATOM      3  N   UNL     1       3.770   6.731  18.008  0.00  0.00    +0.000 NA
ATOM      4  C   UNL     1       3.695   5.565  18.709  0.00  0.00    +0.000 A 
ATOM      5  C   UNL     1       4.564   4.500  18.511  0.00  0.00    +0.000 A 
ATOM      6  S   UNL     1       4.049   3.281  19.624  0.00  0.00    +0.000 S 
ATOM      7  N   UNL     1       2.832   4.130  20.344  0.00  0.00    +0.000 NA
ATOM      8  C   UNL     1       2.751   5.354  19.812  0.00  0.00    +0.000 A 
ATOM      9  C   UNL     1       1.885   6.389  20.239  0.00  0.00    +0.000 A 
ENDROOT
BRANCH   5  10
ATOM     10  N   UNL     1       5.620   4.353  17.643  0.00  0.00    +0.000 N 
ATOM     11  C   UNL     1       7.004   4.648  18.013  0.00  0.00    +0.000 C 
ATOM     12  C   UNL     1       7.614   5.730  17.090  0.00  0.00    +0.000 C 
ATOM     13  C   UNL     1       7.297   7.153  17.541  0.00  0.00    +0.000 C 
ATOM     14  O   UNL     1       7.349   5.541  15.688  0.00  0.00    +0.000 OA
ATOM     15  C   UNL     1       6.006   5.167  15.334  0.00  0.00    +0.000 C 
ATOM     16  C   UNL     1       5.085   6.373  15.196  0.00  0.00    +0.000 C 
ATOM     17  C   UNL     1       5.439   4.046  16.224  0.00  0.00    +0.000 C 
ENDBRANCH   5  10
BRANCH   1  20
ATOM     18  C   UNL     1       0.242  10.230  21.652  0.00  0.00    +0.000 A 
ATOM     19  C   UNL     1       0.941   9.073  21.322  0.00  0.00    +0.000 A 
ATOM     20  C   UNL     1       1.246   8.817  19.980  0.00  0.00    +0.000 A 
ATOM     21  C   UNL     1       0.822   9.771  19.040  0.00  0.00    +0.000 A 
ATOM     22  C   UNL     1       0.119  10.888  19.463  0.00  0.00    +0.000 A 
ATOM     23  N   UNL     1      -0.179  11.137  20.750  0.00  0.00    +0.000 NA
BRANCH  18  25
ATOM     24  C   UNL     1      -1.311  10.990  23.217  0.00  0.00    +0.000 C 
ATOM     25  O   UNL     1      -0.024  10.421  22.993  0.00  0.00    +0.000 OA
ENDBRANCH  18  25
ENDBRANCH   1  20
TORSDOF 3
ENDMDL
MODEL 2
REMARK VINA RESULT:      -8.0      0.995      1.624
REMARK  Name = 
REMARK  6 active torsions:
REMARK  status: ('A' for Active; 'I' for Inactive)
REMARK    1  A    between atoms: C_1  and  O_2
REMARK    2  A    between atoms: O_2  and  C_3
REMARK    3  A    between atoms: C_5  and  C_6
REMARK    4  A    between atoms: C_10  and  N_11
REMARK    5  A    between atoms: C_13  and  C_14
REMARK    6  A    between atoms: C_16  and  C_17
REMARK                            x       y       z     vdW  Elec       q    Type
REMARK                         _______ _______ _______ _____ _____    ______ ____
ROOT
ATOM      1  C   UNL     1       1.998   7.326  19.929  0.00  0.00    +0.000 A 
ATOM      2  C   UNL     1       2.857   7.506  18.816  0.00  0.00    +0.000 A 
ATOM      3  N   UNL     1       3.703   6.612  18.232  0.00  0.00    +0.000 NA
ATOM      4  C   UNL     1       3.676   5.388  18.830  0.00  0.00    +0.000 A 
ATOM      5  C   UNL     1       4.551   4.360  18.501  0.00  0.00    +0.000 A 
ATOM      6  S   UNL     1       4.103   3.040  19.524  0.00  0.00    +0.000 S 
ATOM      7  N   UNL     1       2.908   3.800  20.368  0.00  0.00    +0.000 NA
ATOM      8  C   UNL     1       2.786   5.064  19.950  0.00  0.00    +0.000 A 
ATOM      9  C   UNL     1       1.925   6.043  20.504  0.00  0.00    +0.000 A 
ENDROOT
BRANCH   5  10
ATOM     10  N   UNL     1       5.568   4.308  17.579  0.00  0.00    +0.000 N 
ATOM     11  C   UNL     1       6.969   4.551  17.922  0.00  0.00    +0.000 C 
ATOM     12  C   UNL     1       7.551   5.730  17.104  0.00  0.00    +0.000 C 
ATOM     13  C   UNL     1       7.266   7.093  17.728  0.00  0.00    +0.000 C 
ATOM     14  O   UNL     1       7.226   5.704  15.702  0.00  0.00    +0.000 OA
ATOM     15  C   UNL     1       5.866   5.380  15.364  0.00  0.00    +0.000 C 
ATOM     16  C   UNL     1       4.953   6.599  15.404  0.00  0.00    +0.000 C 
ATOM     17  C   UNL     1       5.326   4.168  16.143  0.00  0.00    +0.000 C 
ENDBRANCH   5  10
BRANCH   1  20
ATOM     18  C   UNL     1      -0.048  10.493  20.260  0.00  0.00    +0.000 A 
ATOM     19  C   UNL     1       0.667   9.454  19.672  0.00  0.00    +0.000 A 
ATOM     20  C   UNL     1       1.242   8.472  20.488  0.00  0.00    +0.000 A 
ATOM     21  C   UNL     1       1.048   8.604  21.873  0.00  0.00    +0.000 A 
ATOM     22  C   UNL     1       0.332   9.684  22.367  0.00  0.00    +0.000 A 
ATOM     23  N   UNL     1      -0.221  10.630  21.588  0.00  0.00    +0.000 NA
BRANCH  18  25
ATOM     24  C   UNL     1      -1.197  10.824  18.257  0.00  0.00    +0.000 C 
ATOM     25  O   UNL     1      -0.590  11.425  19.398  0.00  0.00    +0.000 OA
ENDBRANCH  18  25
ENDBRANCH   1  20
TORSDOF 3
ENDMDL
MODEL 3
REMARK VINA RESULT:      -7.7      3.045      8.328
REMARK  Name = 
REMARK  6 active torsions:
REMARK  status: ('A' for Active; 'I' for Inactive)
REMARK    1  A    between atoms: C_1  and  O_2
REMARK    2  A    between atoms: O_2  and  C_3
REMARK    3  A    between atoms: C_5  and  C_6
REMARK    4  A    between atoms: C_10  and  N_11
REMARK    5  A    between atoms: C_13  and  C_14
REMARK    6  A    between atoms: C_16  and  C_17
REMARK                            x       y       z     vdW  Elec       q    Type
REMARK                         _______ _______ _______ _____ _____    ______ ____
ROOT
ATOM      1  C   UNL     1       2.398   7.203  18.670  0.00  0.00    +0.000 A 
ATOM      2  C   UNL     1       2.077   8.354  17.907  0.00  0.00    +0.000 A 
ATOM      3  N   UNL     1       1.448   9.497  18.301  0.00  0.00    +0.000 NA
ATOM      4  C   UNL     1       1.111   9.487  19.622  0.00  0.00    +0.000 A 
ATOM      5  C   UNL     1       0.341  10.478  20.217  0.00  0.00    +0.000 A 
ATOM      6  S   UNL     1       0.208  10.011  21.877  0.00  0.00    +0.000 S 
ATOM      7  N   UNL     1       1.038   8.590  21.781  0.00  0.00    +0.000 NA
ATOM      8  C   UNL     1       1.443   8.381  20.525  0.00  0.00    +0.000 A 
ATOM      9  C   UNL     1       2.106   7.224  20.048  0.00  0.00    +0.000 A 
ENDROOT
BRANCH   5  10
ATOM     10  N   UNL     1      -0.224  11.614  19.690  0.00  0.00    +0.000 N 
ATOM     11  C   UNL     1       0.525  12.853  19.477  0.00  0.00    +0.000 C 
ATOM     12  C   UNL     1      -0.107  14.031  20.257  0.00  0.00    +0.000 C 
ATOM     13  C   UNL     1       0.363  14.114  21.706  0.00  0.00    +0.000 C 
ATOM     14  O   UNL     1      -1.539  14.119  20.152  0.00  0.00    +0.000 OA
ATOM     15  C   UNL     1      -2.269  12.886  20.275  0.00  0.00    +0.000 C 
ATOM     16  C   UNL     1      -2.544  12.518  21.729  0.00  0.00    +0.000 C 
ATOM     17  C   UNL     1      -1.661  11.742  19.445  0.00  0.00    +0.000 C 
ENDBRANCH   5  10
BRANCH   1  20
ATOM     18  C   UNL     1       2.922   3.689  17.364  0.00  0.00    +0.000 A 
ATOM     19  C   UNL     1       2.329   4.767  18.013  0.00  0.00    +0.000 A 
ATOM     20  C   UNL     1       2.981   6.006  18.017  0.00  0.00    +0.000 A 
ATOM     21  C   UNL     1       4.213   6.077  17.346  0.00  0.00    +0.000 A 
ATOM     22  C   UNL     1       4.731   4.944  16.739  0.00  0.00    +0.000 A 
ATOM     23  N   UNL     1       4.110   3.751  16.734  0.00  0.00    +0.000 NA
BRANCH  18  25
ATOM     24  C   UNL     1       1.377   2.394  18.539  0.00  0.00    +0.000 C 
ATOM     25  O   UNL     1       2.224   2.498  17.397  0.00  0.00    +0.000 OA
ENDBRANCH  18  25
ENDBRANCH   1  20
TORSDOF 3
ENDMDL
MODEL 4
REMARK VINA RESULT:      -7.6      2.520      8.441
REMARK  Name = 
REMARK  6 active torsions:
REMARK  status: ('A' for Active; 'I' for Inactive)
REMARK    1  A    between atoms: C_1  and  O_2
REMARK    2  A    between atoms: O_2  and  C_3
REMARK    3  A    between atoms: C_5  and  C_6
REMARK    4  A    between atoms: C_10  and  N_11
REMARK    5  A    between atoms: C_13  and  C_14
REMARK    6  A    between atoms: C_16  and  C_17
REMARK                            x       y       z     vdW  Elec       q    Type
REMARK                         _______ _______ _______ _____ _____    ______ ____
ROOT
ATOM      1  C   UNL     1       2.945   7.134  18.279  0.00  0.00    +0.000 A 
ATOM      2  C   UNL     1       2.652   8.352  17.615  0.00  0.00    +0.000 A 
ATOM      3  N   UNL     1       1.892   9.400  18.039  0.00  0.00    +0.000 NA
ATOM      4  C   UNL     1       1.371   9.207  19.283  0.00  0.00    +0.000 A 
ATOM      5  C   UNL     1       0.453  10.071  19.867  0.00  0.00    +0.000 A 
ATOM      6  S   UNL     1       0.119   9.393  21.422  0.00  0.00    +0.000 S 
ATOM      7  N   UNL     1       1.056   8.043  21.289  0.00  0.00    +0.000 NA
ATOM      8  C   UNL     1       1.651   8.016  20.092  0.00  0.00    +0.000 A 
ATOM      9  C   UNL     1       2.458   6.966  19.589  0.00  0.00    +0.000 A 
ENDROOT
BRANCH   5  10
ATOM     10  N   UNL     1      -0.112  11.231  19.396  0.00  0.00    +0.000 N 
ATOM     11  C   UNL     1       0.670  12.423  19.066  0.00  0.00    +0.000 C 
ATOM     12  C   UNL     1       0.209  13.644  19.898  0.00  0.00    +0.000 C 
ATOM     13  C   UNL     1       0.867  13.716  21.274  0.00  0.00    +0.000 C 
ATOM     14  O   UNL     1      -1.217  13.812  19.977  0.00  0.00    +0.000 OA
ATOM     15  C   UNL     1      -1.992  12.624  20.215  0.00  0.00    +0.000 C 
ATOM     16  C   UNL     1      -2.095  12.288  21.699  0.00  0.00    +0.000 C 
ATOM     17  C   UNL     1      -1.559  11.438  19.335  0.00  0.00    +0.000 C 
ENDBRANCH   5  10
BRANCH   1  20
ATOM     18  C   UNL     1       5.467   5.287  16.146  0.00  0.00    +0.000 A 
ATOM     19  C   UNL     1       4.788   6.340  16.749  0.00  0.00    +0.000 A 
ATOM     20  C   UNL     1       3.701   6.063  17.587  0.00  0.00    +0.000 A 
ATOM     21  C   UNL     1       3.368   4.711  17.768  0.00  0.00    +0.000 A 
ATOM     22  C   UNL     1       4.095   3.730  17.112  0.00  0.00    +0.000 A 
ATOM     23  N   UNL     1       5.139   3.991  16.305  0.00  0.00    +0.000 NA
BRANCH  18  25
ATOM     24  C   UNL     1       6.741   4.690  14.285  0.00  0.00    +0.000 C 
ATOM     25  O   UNL     1       6.530   5.631  15.335  0.00  0.00    +0.000 OA
ENDBRANCH  18  25
ENDBRANCH   1  20
TORSDOF 3
ENDMDL
MODEL 5
REMARK VINA RESULT:      -7.6      3.190      4.487
REMARK  Name = 
REMARK  6 active torsions:
REMARK  status: ('A' for Active; 'I' for Inactive)
REMARK    1  A    between atoms: C_1  and  O_2
REMARK    2  A    between atoms: O_2  and  C_3
REMARK    3  A    between atoms: C_5  and  C_6
REMARK    4  A    between atoms: C_10  and  N_11
REMARK    5  A    between atoms: C_13  and  C_14
REMARK    6  A    between atoms: C_16  and  C_17
REMARK                            x       y       z     vdW  Elec       q    Type
REMARK                         _______ _______ _______ _____ _____    ______ ____
ROOT
ATOM      1  C   UNL     1       1.211   9.386  19.007  0.00  0.00    +0.000 A 
ATOM      2  C   UNL     1       1.247   8.490  20.104  0.00  0.00    +0.000 A 
ATOM      3  N   UNL     1       1.946   7.329  20.242  0.00  0.00    +0.000 NA
ATOM      4  C   UNL     1       2.710   7.038  19.152  0.00  0.00    +0.000 A 
ATOM      5  C   UNL     1       3.399   5.841  19.002  0.00  0.00    +0.000 A 
ATOM      6  S   UNL     1       4.205   5.970  17.478  0.00  0.00    +0.000 S 
ATOM      7  N   UNL     1       3.625   7.450  17.038  0.00  0.00    +0.000 NA
ATOM      8  C   UNL     1       2.802   7.918  17.982  0.00  0.00    +0.000 A 
ATOM      9  C   UNL     1       2.051   9.116  17.909  0.00  0.00    +0.000 A 
ENDROOT
BRANCH   5  10
ATOM     10  N   UNL     1       3.487   4.748  19.829  0.00  0.00    +0.000 N 
ATOM     11  C   UNL     1       4.468   3.679  19.636  0.00  0.00    +0.000 C 
ATOM     12  C   UNL     1       3.773   2.307  19.452  0.00  0.00    +0.000 C 
ATOM     13  C   UNL     1       3.347   2.039  18.011  0.00  0.00    +0.000 C 
ATOM     14  O   UNL     1       2.709   2.044  20.383  0.00  0.00    +0.000 OA
ATOM     15  C   UNL     1       1.796   3.126  20.638  0.00  0.00    +0.000 C 
ATOM     16  C   UNL     1       0.678   3.196  19.604  0.00  0.00    +0.000 C 
ATOM     17  C   UNL     1       2.507   4.469  20.880  0.00  0.00    +0.000 C 
ENDBRANCH   5  10
BRANCH   1  20
ATOM     18  C   UNL     1      -1.720  11.672  18.295  0.00  0.00    +0.000 A 
ATOM     19  C   UNL     1      -0.881  10.565  18.231  0.00  0.00    +0.000 A 
ATOM     20  C   UNL     1       0.283  10.542  19.009  0.00  0.00    +0.000 A 
ATOM     21  C   UNL     1       0.524  11.661  19.823  0.00  0.00    +0.000 A 
ATOM     22  C   UNL     1      -0.365  12.725  19.810  0.00  0.00    +0.000 A 
ATOM     23  N   UNL     1      -1.482  12.753  19.062  0.00  0.00    +0.000 NA
BRANCH  18  25
ATOM     24  C   UNL     1      -2.634  10.923  16.284  0.00  0.00    +0.000 C 
ATOM     25  O   UNL     1      -2.851  11.628  17.503  0.00  0.00    +0.000 OA
ENDBRANCH  18  25
ENDBRANCH   1  20
TORSDOF 3
ENDMDL
MODEL 6
REMARK VINA RESULT:      -7.6      1.375      2.383
REMARK  Name = 
REMARK  6 active torsions:
REMARK  status: ('A' for Active; 'I' for Inactive)
REMARK    1  A    between atoms: C_1  and  O_2
REMARK    2  A    between atoms: O_2  and  C_3
REMARK    3  A    between atoms: C_5  and  C_6
REMARK    4  A    between atoms: C_10  and  N_11
REMARK    5  A    between atoms: C_13  and  C_14
REMARK    6  A    between atoms: C_16  and  C_17
REMARK                            x       y       z     vdW  Elec       q    Type
REMARK                         _______ _______ _______ _____ _____    ______ ____
ROOT
ATOM      1  C   UNL     1       1.078   9.234  19.218  0.00  0.00    +0.000 A 
ATOM      2  C   UNL     1       1.860   9.487  18.062  0.00  0.00    +0.000 A 
ATOM      3  N   UNL     1       2.857   8.734  17.519  0.00  0.00    +0.000 NA
ATOM      4  C   UNL     1       3.090   7.584  18.212  0.00  0.00    +0.000 A 
ATOM      5  C   UNL     1       4.147   6.728  17.933  0.00  0.00    +0.000 A 
ATOM      6  S   UNL     1       3.997   5.436  19.072  0.00  0.00    +0.000 S 
ATOM      7  N   UNL     1       2.691   6.011  19.898  0.00  0.00    +0.000 NA
ATOM      8  C   UNL     1       2.307   7.185  19.387  0.00  0.00    +0.000 A 
ATOM      9  C   UNL     1       1.278   8.015  19.894  0.00  0.00    +0.000 A 
ENDROOT
BRANCH   5  10
ATOM     10  N   UNL     1       5.134   6.803  16.980  0.00  0.00    +0.000 N 
ATOM     11  C   UNL     1       4.969   6.294  15.618  0.00  0.00    +0.000 C 
ATOM     12  C   UNL     1       6.034   5.219  15.288  0.00  0.00    +0.000 C 
ATOM     13  C   UNL     1       5.638   3.820  15.751  0.00  0.00    +0.000 C 
ATOM     14  O   UNL     1       7.372   5.559  15.689  0.00  0.00    +0.000 OA
ATOM     15  C   UNL     1       7.523   6.140  16.997  0.00  0.00    +0.000 C 
ATOM     16  C   UNL     1       7.617   5.085  18.093  0.00  0.00    +0.000 C 
ATOM     17  C   UNL     1       6.495   7.249  17.283  0.00  0.00    +0.000 C 
ENDBRANCH   5  10
BRANCH   1  20
ATOM     18  C   UNL     1      -0.977  11.472  21.474  0.00  0.00    +0.000 A 
ATOM     19  C   UNL     1      -0.074  10.491  21.078  0.00  0.00    +0.000 A 
ATOM     20  C   UNL     1       0.117  10.249  19.712  0.00  0.00    +0.000 A 
ATOM     21  C   UNL     1      -0.628  11.035  18.818  0.00  0.00    +0.000 A 
ATOM     22  C   UNL     1      -1.515  11.980  19.308  0.00  0.00    +0.000 A 
ATOM     23  N   UNL     1      -1.704  12.215  20.619  0.00  0.00    +0.000 NA
BRANCH  18  25
ATOM     24  C   UNL     1      -2.451  11.992  23.206  0.00  0.00    +0.000 C 
ATOM     25  O   UNL     1      -1.115  11.661  22.835  0.00  0.00    +0.000 OA
ENDBRANCH  18  25
ENDBRANCH   1  20
TORSDOF 3
ENDMDL
MODEL 7
REMARK VINA RESULT:      -7.5      1.862      2.988
REMARK  Name = 
REMARK  6 active torsions:
REMARK  status: ('A' for Active; 'I' for Inactive)
REMARK    1  A    between atoms: C_1  and  O_2
REMARK    2  A    between atoms: O_2  and  C_3
REMARK    3  A    between atoms: C_5  and  C_6
REMARK    4  A    between atoms: C_10  and  N_11
REMARK    5  A    between atoms: C_13  and  C_14
REMARK    6  A    between atoms: C_16  and  C_17
REMARK                            x       y       z     vdW  Elec       q    Type
REMARK                         _______ _______ _______ _____ _____    ______ ____
ROOT
ATOM      1  C   UNL     1       1.054   9.240  19.127  0.00  0.00    +0.000 A 
ATOM      2  C   UNL     1       1.843   9.476  17.973  0.00  0.00    +0.000 A 
ATOM      3  N   UNL     1       2.851   8.721  17.453  0.00  0.00    +0.000 NA
ATOM      4  C   UNL     1       3.087   7.587  18.171  0.00  0.00    +0.000 A 
ATOM      5  C   UNL     1       4.153   6.734  17.917  0.00  0.00    +0.000 A 
ATOM      6  S   UNL     1       4.004   5.463  19.081  0.00  0.00    +0.000 S 
ATOM      7  N   UNL     1       2.686   6.044  19.884  0.00  0.00    +0.000 NA
ATOM      8  C   UNL     1       2.298   7.205  19.346  0.00  0.00    +0.000 A 
ATOM      9  C   UNL     1       1.257   8.036  19.828  0.00  0.00    +0.000 A 
ENDROOT
BRANCH   5  10
ATOM     10  N   UNL     1       5.148   6.798  16.971  0.00  0.00    +0.000 N 
ATOM     11  C   UNL     1       4.990   6.282  15.611  0.00  0.00    +0.000 C 
ATOM     12  C   UNL     1       6.051   5.200  15.295  0.00  0.00    +0.000 C 
ATOM     13  C   UNL     1       5.645   3.805  15.763  0.00  0.00    +0.000 C 
ATOM     14  O   UNL     1       7.389   5.534  15.705  0.00  0.00    +0.000 OA
ATOM     15  C   UNL     1       7.533   6.123  17.010  0.00  0.00    +0.000 C 
ATOM     16  C   UNL     1       7.613   5.073  18.113  0.00  0.00    +0.000 C 
ATOM     17  C   UNL     1       6.508   7.238  17.282  0.00  0.00    +0.000 C 
ENDBRANCH   5  10
BRANCH   1  20
ATOM     18  C   UNL     1      -1.911  11.584  19.330  0.00  0.00    +0.000 A 
ATOM     19  C   UNL     1      -1.025  10.638  18.824  0.00  0.00    +0.000 A 
ATOM     20  C   UNL     1       0.081  10.257  19.594  0.00  0.00    +0.000 A 
ATOM     21  C   UNL     1       0.218  10.864  20.852  0.00  0.00    +0.000 A 
ATOM     22  C   UNL     1      -0.709  11.808  21.265  0.00  0.00    +0.000 A 
ATOM     23  N   UNL     1      -1.772  12.179  20.529  0.00  0.00    +0.000 NA
BRANCH  18  25
ATOM     24  C   UNL     1      -3.506  10.783  17.828  0.00  0.00    +0.000 C 
ATOM     25  O   UNL     1      -2.981  11.913  18.521  0.00  0.00    +0.000 OA
ENDBRANCH  18  25
ENDBRANCH   1  20
TORSDOF 3
ENDMDL
MODEL 8
REMARK VINA RESULT:      -7.5      2.667      8.337
REMARK  Name = 
REMARK  6 active torsions:
REMARK  status: ('A' for Active; 'I' for Inactive)
REMARK    1  A    between atoms: C_1  and  O_2
REMARK    2  A    between atoms: O_2  and  C_3
REMARK    3  A    between atoms: C_5  and  C_6
REMARK    4  A    between atoms: C_10  and  N_11
REMARK    5  A    between atoms: C_13  and  C_14
REMARK    6  A    between atoms: C_16  and  C_17
REMARK                            x       y       z     vdW  Elec       q    Type
REMARK                         _______ _______ _______ _____ _____    ______ ____
ROOT
ATOM      1  C   UNL     1       2.592   7.009  18.606  0.00  0.00    +0.000 A 
ATOM      2  C   UNL     1       2.353   8.164  17.819  0.00  0.00    +0.000 A 
ATOM      3  N   UNL     1       1.738   9.329  18.167  0.00  0.00    +0.000 NA
ATOM      4  C   UNL     1       1.323   9.340  19.465  0.00  0.00    +0.000 A 
ATOM      5  C   UNL     1       0.550  10.359  20.008  0.00  0.00    +0.000 A 
ATOM      6  S   UNL     1       0.304   9.910  21.660  0.00  0.00    +0.000 S 
ATOM      7  N   UNL     1       1.093   8.462  21.622  0.00  0.00    +0.000 NA
ATOM      8  C   UNL     1       1.565   8.231  20.393  0.00  0.00    +0.000 A 
ATOM      9  C   UNL     1       2.218   7.050  19.963  0.00  0.00    +0.000 A 
ENDROOT
BRANCH   5  10
ATOM     10  N   UNL     1       0.054  11.508  19.441  0.00  0.00    +0.000 N 
ATOM     11  C   UNL     1       0.854  12.721  19.265  0.00  0.00    +0.000 C 
ATOM     12  C   UNL     1       0.216  13.925  19.998  0.00  0.00    +0.000 C 
ATOM     13  C   UNL     1       0.603  14.005  21.472  0.00  0.00    +0.000 C 
ATOM     14  O   UNL     1      -1.204  14.058  19.809  0.00  0.00    +0.000 OA
ATOM     15  C   UNL     1      -1.979  12.850  19.897  0.00  0.00    +0.000 C 
ATOM     16  C   UNL     1      -2.350  12.502  21.334  0.00  0.00    +0.000 C 
ATOM     17  C   UNL     1      -1.361  11.680  19.111  0.00  0.00    +0.000 C 
ENDBRANCH   5  10
BRANCH   1  20
ATOM     18  C   UNL     1       5.004   4.541  17.053  0.00  0.00    +0.000 A 
ATOM     19  C   UNL     1       4.515   5.722  17.601  0.00  0.00    +0.000 A 
ATOM     20  C   UNL     1       3.174   5.790  17.996  0.00  0.00    +0.000 A 
ATOM     21  C   UNL     1       2.399   4.633  17.813  0.00  0.00    +0.000 A 
ATOM     22  C   UNL     1       2.972   3.505  17.245  0.00  0.00    +0.000 A 
ATOM     23  N   UNL     1       4.259   3.436  16.862  0.00  0.00    +0.000 NA
BRANCH  18  25
ATOM     24  C   UNL     1       7.202   4.807  17.787  0.00  0.00    +0.000 C 
ATOM     25  O   UNL     1       6.335   4.542  16.687  0.00  0.00    +0.000 OA
ENDBRANCH  18  25
ENDBRANCH   1  20
TORSDOF 3
ENDMDL
MODEL 9
REMARK VINA RESULT:      -7.5      2.579      3.917
REMARK  Name = 
REMARK  6 active torsions:
REMARK  status: ('A' for Active; 'I' for Inactive)
REMARK    1  A    between atoms: C_1  and  O_2
REMARK    2  A    between atoms: O_2  and  C_3
REMARK    3  A    between atoms: C_5  and  C_6
REMARK    4  A    between atoms: C_10  and  N_11
REMARK    5  A    between atoms: C_13  and  C_14
REMARK    6  A    between atoms: C_16  and  C_17
REMARK                            x       y       z     vdW  Elec       q    Type
REMARK                         _______ _______ _______ _____ _____    ______ ____
ROOT
ATOM      1  C   UNL     1       1.866   8.401  19.110  0.00  0.00    +0.000 A 
ATOM      2  C   UNL     1       1.728   7.182  19.821  0.00  0.00    +0.000 A 
ATOM      3  N   UNL     1       2.335   5.983  19.595  0.00  0.00    +0.000 NA
ATOM      4  C   UNL     1       3.190   6.014  18.535  0.00  0.00    +0.000 A 
ATOM      5  C   UNL     1       3.814   4.882  18.027  0.00  0.00    +0.000 A 
ATOM      6  S   UNL     1       4.784   5.450  16.713  0.00  0.00    +0.000 S 
ATOM      7  N   UNL     1       4.349   7.039  16.779  0.00  0.00    +0.000 NA
ATOM      8  C   UNL     1       3.461   7.229  17.760  0.00  0.00    +0.000 A 
ATOM      9  C   UNL     1       2.799   8.446  18.056  0.00  0.00    +0.000 A 
ENDROOT
BRANCH   5  10
ATOM     10  N   UNL     1       3.745   3.567  18.420  0.00  0.00    +0.000 N 
ATOM     11  C   UNL     1       2.939   2.566  17.721  0.00  0.00    +0.000 C 
ATOM     12  C   UNL     1       1.895   1.926  18.667  0.00  0.00    +0.000 C 
ATOM     13  C   UNL     1       0.607   2.738  18.777  0.00  0.00    +0.000 C 
ATOM     14  O   UNL     1       2.405   1.553  19.959  0.00  0.00    +0.000 OA
ATOM     15  C   UNL     1       3.268   2.503  20.608  0.00  0.00    +0.000 C 
ATOM     16  C   UNL     1       2.489   3.559  21.382  0.00  0.00    +0.000 C 
ATOM     17  C   UNL     1       4.339   3.082  19.667  0.00  0.00    +0.000 C 
ENDBRANCH   5  10
BRANCH   1  20
ATOM     18  C   UNL     1       0.001  11.086  21.017  0.00  0.00    +0.000 A 
ATOM     19  C   UNL     1       0.792   9.969  20.770  0.00  0.00    +0.000 A 
ATOM     20  C   UNL     1       1.017   9.568  19.447  0.00  0.00    +0.000 A 
ATOM     21  C   UNL     1       0.421  10.343  18.439  0.00  0.00    +0.000 A 
ATOM     22  C   UNL     1      -0.364  11.433  18.784  0.00  0.00    +0.000 A 
ATOM     23  N   UNL     1      -0.585  11.820  20.052  0.00  0.00    +0.000 NA
BRANCH  18  25
ATOM     24  C   UNL     1      -0.735  10.360  23.108  0.00  0.00    +0.000 C 
ATOM     25  O   UNL     1      -0.179  11.426  22.343  0.00  0.00    +0.000 OA
ENDBRANCH  18  25
ENDBRANCH   1  20
TORSDOF 3
ENDMDL
