MODEL 1
REMARK VINA RESULT:      -5.2      0.000      0.000
REMARK  Name = 
REMARK  11 active torsions:
REMARK  status: ('A' for Active; 'I' for Inactive)
REMARK    1  A    between atoms: C_2  and  C_3
REMARK    2  A    between atoms: C_2  and  C_12
REMARK    3  A    between atoms: C_3  and  P_4
REMARK    4  A    between atoms: P_4  and  O_6
REMARK    5  A    between atoms: P_4  and  O_9
REMARK    6  A    between atoms: O_6  and  C_7
REMARK    7  A    between atoms: C_7  and  C_8
REMARK    8  A    between atoms: O_9  and  C_10
REMARK    9  A    between atoms: C_10  and  C_11
REMARK   10  A    between atoms: C_12  and  O_14
REMARK   11  A    between atoms: O_14  and  C_15
REMARK                            x       y       z     vdW  Elec       q    Type
REMARK                         _______ _______ _______ _____ _____    ______ ____
ROOT
ATOM      1  P   UNL     1       4.501   4.276  18.323  0.00  0.00    +0.000 P 
ATOM      2  O   UNL     1       3.753   5.428  18.927  0.00  0.00    +0.000 OA
ENDROOT
BRANCH   1   3
ATOM      3  C   UNL     1       4.482   4.129  16.535  0.00  0.00    +0.000 C 
BRANCH   3   5
ATOM      4  C   UNL     1       5.038   6.511  16.023  0.00  0.00    +0.000 C 
ATOM      5  C   UNL     1       5.340   5.204  15.945  0.00  0.00    +0.000 C 
BRANCH   5   6
ATOM      6  C   UNL     1       6.571   4.817  15.202  0.00  0.00    +0.000 C 
ATOM      7  O   UNL     1       7.589   5.496  15.172  0.00  0.00    +0.000 OA
BRANCH   6   8
ATOM      8  O   UNL     1       6.407   3.626  14.584  0.00  0.00    +0.000 OA
ATOM      9  C   UNL     1       6.176   3.739  13.179  0.00  0.00    +0.000 C 
ENDBRANCH   6   8
ENDBRANCH   5   6
ENDBRANCH   3   5
ENDBRANCH   1   3
BRANCH   1  10
ATOM     10  O   UNL     1       3.992   2.827  18.814  0.00  0.00    +0.000 OA
BRANCH  10  11
ATOM     11  C   UNL     1       4.191   2.477  20.170  0.00  0.00    +0.000 C 
ATOM     12  C   UNL     1       2.891   2.698  20.920  0.00  0.00    +0.000 C 
ENDBRANCH  10  11
ENDBRANCH   1  10
BRANCH   1  13
ATOM     13  O   UNL     1       6.070   4.260  18.730  0.00  0.00    +0.000 OA
BRANCH  13  14
ATOM     14  C   UNL     1       6.551   5.385  19.455  0.00  0.00    +0.000 C 
ATOM     15  C   UNL     1       7.754   5.993  18.764  0.00  0.00    +0.000 C 
ENDBRANCH  13  14
ENDBRANCH   1  13
TORSDOF 8
ENDMDL
MODEL 2
REMARK VINA RESULT:      -5.2      1.794      3.442
REMARK  Name = 
REMARK  11 active torsions:
REMARK  status: ('A' for Active; 'I' for Inactive)
REMARK    1  A    between atoms: C_2  and  C_3
REMARK    2  A    between atoms: C_2  and  C_12
REMARK    3  A    between atoms: C_3  and  P_4
REMARK    4  A    between atoms: P_4  and  O_6
REMARK    5  A    between atoms: P_4  and  O_9
REMARK    6  A    between atoms: O_6  and  C_7
REMARK    7  A    between atoms: C_7  and  C_8
REMARK    8  A    between atoms: O_9  and  C_10
REMARK    9  A    between atoms: C_10  and  C_11
REMARK   10  A    between atoms: C_12  and  O_14
REMARK   11  A    between atoms: O_14  and  C_15
REMARK                            x       y       z     vdW  Elec       q    Type
REMARK                         _______ _______ _______ _____ _____    ______ ____
ROOT
ATOM      1  P   UNL     1       4.648   3.964  18.411  0.00  0.00    +0.000 P 
ATOM      2  O   UNL     1       5.832   4.134  19.317  0.00  0.00    +0.000 OA
ENDROOT
BRANCH   1   3
ATOM      3  C   UNL     1       4.943   4.060  16.644  0.00  0.00    +0.000 C 
BRANCH   3   5
ATOM      4  C   UNL     1       5.065   6.423  15.841  0.00  0.00    +0.000 C 
ATOM      5  C   UNL     1       5.671   5.330  16.335  0.00  0.00    +0.000 C 
BRANCH   5   6
ATOM      6  C   UNL     1       7.144   5.387  16.547  0.00  0.00    +0.000 C 
ATOM      7  O   UNL     1       7.873   4.405  16.521  0.00  0.00    +0.000 OA
BRANCH   6   8
ATOM      8  O   UNL     1       7.551   6.658  16.760  0.00  0.00    +0.000 OA
ATOM      9  C   UNL     1       7.764   6.966  18.139  0.00  0.00    +0.000 C 
ENDBRANCH   6   8
ENDBRANCH   5   6
ENDBRANCH   3   5
ENDBRANCH   1   3
BRANCH   1  10
ATOM     10  O   UNL     1       3.476   5.046  18.645  0.00  0.00    +0.000 OA
BRANCH  10  11
ATOM     11  C   UNL     1       3.357   5.629  19.929  0.00  0.00    +0.000 C 
ATOM     12  C   UNL     1       1.921   5.479  20.394  0.00  0.00    +0.000 C 
ENDBRANCH  10  11
ENDBRANCH   1  10
BRANCH   1  13
ATOM     13  O   UNL     1       3.882   2.553  18.634  0.00  0.00    +0.000 OA
BRANCH  13  14
ATOM     14  C   UNL     1       2.748   2.307  17.812  0.00  0.00    +0.000 C 
ATOM     15  C   UNL     1       1.485   2.249  18.646  0.00  0.00    +0.000 C 
ENDBRANCH  13  14
ENDBRANCH   1  13
TORSDOF 8
ENDMDL
MODEL 3
REMARK VINA RESULT:      -5.1      1.401      2.875
REMARK  Name = 
REMARK  11 active torsions:
REMARK  status: ('A' for Active; 'I' for Inactive)
REMARK    1  A    between atoms: C_2  and  C_3
REMARK    2  A    between atoms: C_2  and  C_12
REMARK    3  A    between atoms: C_3  and  P_4
REMARK    4  A    between atoms: P_4  and  O_6
REMARK    5  A    between atoms: P_4  and  O_9
REMARK    6  A    between atoms: O_6  and  C_7
REMARK    7  A    between atoms: C_7  and  C_8
REMARK    8  A    between atoms: O_9  and  C_10
REMARK    9  A    between atoms: C_10  and  C_11
REMARK   10  A    between atoms: C_12  and  O_14
REMARK   11  A    between atoms: O_14  and  C_15
REMARK                            x       y       z     vdW  Elec       q    Type
REMARK                         _______ _______ _______ _____ _____    ______ ____
ROOT
ATOM      1  P   UNL     1       4.722   4.044  18.494  0.00  0.00    +0.000 P 
ATOM      2  O   UNL     1       4.358   2.774  19.206  0.00  0.00    +0.000 OA
ENDROOT
BRANCH   1   3
ATOM      3  C   UNL     1       4.383   4.127  16.734  0.00  0.00    +0.000 C 
BRANCH   3   5
ATOM      4  C   UNL     1       5.197   6.393  16.068  0.00  0.00    +0.000 C 
ATOM      5  C   UNL     1       5.359   5.059  16.089  0.00  0.00    +0.000 C 
BRANCH   5   6
ATOM      6  C   UNL     1       6.553   4.493  15.402  0.00  0.00    +0.000 C 
ATOM      7  O   UNL     1       7.690   4.919  15.553  0.00  0.00    +0.000 OA
BRANCH   6   8
ATOM      8  O   UNL     1       6.205   3.454  14.611  0.00  0.00    +0.000 OA
ATOM      9  C   UNL     1       6.170   3.783  13.220  0.00  0.00    +0.000 C 
ENDBRANCH   6   8
ENDBRANCH   5   6
ENDBRANCH   3   5
ENDBRANCH   1   3
BRANCH   1  10
ATOM     10  O   UNL     1       6.285   4.428  18.584  0.00  0.00    +0.000 OA
BRANCH  10  11
ATOM     11  C   UNL     1       6.655   5.515  19.410  0.00  0.00    +0.000 C 
ATOM     12  C   UNL     1       7.977   6.069  18.912  0.00  0.00    +0.000 C 
ENDBRANCH  10  11
ENDBRANCH   1  10
BRANCH   1  13
ATOM     13  O   UNL     1       3.995   5.350  19.124  0.00  0.00    +0.000 OA
BRANCH  13  14
ATOM     14  C   UNL     1       2.668   5.613  18.687  0.00  0.00    +0.000 C 
ATOM     15  C   UNL     1       2.481   7.088  18.401  0.00  0.00    +0.000 C 
ENDBRANCH  13  14
ENDBRANCH   1  13
TORSDOF 8
ENDMDL
MODEL 4
REMARK VINA RESULT:      -5.1      1.763      2.931
REMARK  Name = 
REMARK  11 active torsions:
REMARK  status: ('A' for Active; 'I' for Inactive)
REMARK    1  A    between atoms: C_2  and  C_3
REMARK    2  A    between atoms: C_2  and  C_12
REMARK    3  A    between atoms: C_3  and  P_4
REMARK    4  A    between atoms: P_4  and  O_6
REMARK    5  A    between atoms: P_4  and  O_9
REMARK    6  A    between atoms: O_6  and  C_7
REMARK    7  A    between atoms: C_7  and  C_8
REMARK    8  A    between atoms: O_9  and  C_10
REMARK    9  A    between atoms: C_10  and  C_11
REMARK   10  A    between atoms: C_12  and  O_14
REMARK   11  A    between atoms: O_14  and  C_15
REMARK                            x       y       z     vdW  Elec       q    Type
REMARK                         _______ _______ _______ _____ _____    ______ ____
ROOT
ATOM      1  P   UNL     1       3.868   4.963  17.733  0.00  0.00    +0.000 P 
ATOM      2  O   UNL     1       3.993   6.439  17.497  0.00  0.00    +0.000 OA
ENDROOT
BRANCH   1   3
ATOM      3  C   UNL     1       4.923   3.881  16.766  0.00  0.00    +0.000 C 
BRANCH   3   5
ATOM      4  C   UNL     1       5.709   5.072  14.715  0.00  0.00    +0.000 C 
ATOM      5  C   UNL     1       5.901   4.711  15.995  0.00  0.00    +0.000 C 
BRANCH   5   6
ATOM      6  C   UNL     1       7.168   5.131  16.654  0.00  0.00    +0.000 C 
ATOM      7  O   UNL     1       7.858   4.388  17.338  0.00  0.00    +0.000 OA
BRANCH   6   8
ATOM      8  O   UNL     1       7.444   6.426  16.384  0.00  0.00    +0.000 OA
ATOM      9  C   UNL     1       7.489   7.255  17.548  0.00  0.00    +0.000 C 
ENDBRANCH   6   8
ENDBRANCH   5   6
ENDBRANCH   3   5
ENDBRANCH   1   3
BRANCH   1  10
ATOM     10  O   UNL     1       2.392   4.372  17.462  0.00  0.00    +0.000 OA
BRANCH  10  11
ATOM     11  C   UNL     1       1.528   4.207  18.570  0.00  0.00    +0.000 C 
ATOM     12  C   UNL     1       1.012   2.781  18.569  0.00  0.00    +0.000 C 
ENDBRANCH  10  11
ENDBRANCH   1  10
BRANCH   1  13
ATOM     13  O   UNL     1       4.141   4.547  19.277  0.00  0.00    +0.000 OA
BRANCH  13  14
ATOM     14  C   UNL     1       5.053   3.479  19.496  0.00  0.00    +0.000 C 
ATOM     15  C   UNL     1       4.356   2.306  20.154  0.00  0.00    +0.000 C 
ENDBRANCH  13  14
ENDBRANCH   1  13
TORSDOF 8
ENDMDL
MODEL 5
REMARK VINA RESULT:      -5.0      2.100      5.310
REMARK  Name = 
REMARK  11 active torsions:
REMARK  status: ('A' for Active; 'I' for Inactive)
REMARK    1  A    between atoms: C_2  and  C_3
REMARK    2  A    between atoms: C_2  and  C_12
REMARK    3  A    between atoms: C_3  and  P_4
REMARK    4  A    between atoms: P_4  and  O_6
REMARK    5  A    between atoms: P_4  and  O_9
REMARK    6  A    between atoms: O_6  and  C_7
REMARK    7  A    between atoms: C_7  and  C_8
REMARK    8  A    between atoms: O_9  and  C_10
REMARK    9  A    between atoms: C_10  and  C_11
REMARK   10  A    between atoms: C_12  and  O_14
REMARK   11  A    between atoms: O_14  and  C_15
REMARK                            x       y       z     vdW  Elec       q    Type
REMARK                         _______ _______ _______ _____ _____    ______ ____
ROOT
ATOM      1  P   UNL     1       6.287   5.575  16.041  0.00  0.00    +0.000 P 
ATOM      2  O   UNL     1       5.198   6.390  15.407  0.00  0.00    +0.000 OA
ENDROOT
BRANCH   1   3
ATOM      3  C   UNL     1       5.871   4.662  17.529  0.00  0.00    +0.000 C 
BRANCH   3   5
ATOM      4  C   UNL     1       3.586   3.761  17.069  0.00  0.00    +0.000 C 
ATOM      5  C   UNL     1       4.384   4.643  17.694  0.00  0.00    +0.000 C 
BRANCH   5   6
ATOM      6  C   UNL     1       3.741   5.668  18.563  0.00  0.00    +0.000 C 
ATOM      7  O   UNL     1       3.334   6.747  18.154  0.00  0.00    +0.000 OA
BRANCH   6   8
ATOM      8  O   UNL     1       3.668   5.238  19.842  0.00  0.00    +0.000 OA
ATOM      9  C   UNL     1       2.333   5.180  20.348  0.00  0.00    +0.000 C 
ENDBRANCH   6   8
ENDBRANCH   5   6
ENDBRANCH   3   5
ENDBRANCH   1   3
BRANCH   1  10
ATOM     10  O   UNL     1       7.579   6.431  16.486  0.00  0.00    +0.000 OA
BRANCH  10  11
ATOM     11  C   UNL     1       7.615   6.941  17.805  0.00  0.00    +0.000 C 
ATOM     12  C   UNL     1       7.932   8.423  17.739  0.00  0.00    +0.000 C 
ENDBRANCH  10  11
ENDBRANCH   1  10
BRANCH   1  13
ATOM     13  O   UNL     1       6.917   4.472  15.033  0.00  0.00    +0.000 OA
BRANCH  13  14
ATOM     14  C   UNL     1       6.008   3.814  14.161  0.00  0.00    +0.000 C 
ATOM     15  C   UNL     1       6.540   3.804  12.742  0.00  0.00    +0.000 C 
ENDBRANCH  13  14
ENDBRANCH   1  13
TORSDOF 8
ENDMDL
MODEL 6
REMARK VINA RESULT:      -5.0      2.119      5.205
REMARK  Name = 
REMARK  11 active torsions:
REMARK  status: ('A' for Active; 'I' for Inactive)
REMARK    1  A    between atoms: C_2  and  C_3
REMARK    2  A    between atoms: C_2  and  C_12
REMARK    3  A    between atoms: C_3  and  P_4
REMARK    4  A    between atoms: P_4  and  O_6
REMARK    5  A    between atoms: P_4  and  O_9
REMARK    6  A    between atoms: O_6  and  C_7
REMARK    7  A    between atoms: C_7  and  C_8
REMARK    8  A    between atoms: O_9  and  C_10
REMARK    9  A    between atoms: C_10  and  C_11
REMARK   10  A    between atoms: C_12  and  O_14
REMARK   11  A    between atoms: O_14  and  C_15
REMARK                            x       y       z     vdW  Elec       q    Type
REMARK                         _______ _______ _______ _____ _____    ______ ____
ROOT
ATOM      1  P   UNL     1       4.611   3.920  18.045  0.00  0.00    +0.000 P 
ATOM      2  O   UNL     1       4.088   2.549  18.359  0.00  0.00    +0.000 OA
ENDROOT
BRANCH   1   3
ATOM      3  C   UNL     1       3.634   5.319  18.595  0.00  0.00    +0.000 C 
BRANCH   3   5
ATOM      4  C   UNL     1       1.444   4.503  17.710  0.00  0.00    +0.000 C 
ATOM      5  C   UNL     1       2.207   4.894  18.745  0.00  0.00    +0.000 C 
BRANCH   5   6
ATOM      6  C   UNL     1       1.580   4.936  20.095  0.00  0.00    +0.000 C 
ATOM      7  O   UNL     1       1.638   5.904  20.842  0.00  0.00    +0.000 OA
BRANCH   6   8
ATOM      8  O   UNL     1       0.942   3.776  20.367  0.00  0.00    +0.000 OA
ATOM      9  C   UNL     1       1.633   2.952  21.308  0.00  0.00    +0.000 C 
ENDBRANCH   6   8
ENDBRANCH   5   6
ENDBRANCH   3   5
ENDBRANCH   1   3
BRANCH   1  10
ATOM     10  O   UNL     1       4.808   4.207  16.470  0.00  0.00    +0.000 OA
BRANCH  10  11
ATOM     11  C   UNL     1       6.097   4.019  15.917  0.00  0.00    +0.000 C 
ATOM     12  C   UNL     1       5.982   4.063  14.405  0.00  0.00    +0.000 C 
ENDBRANCH  10  11
ENDBRANCH   1  10
BRANCH   1  13
ATOM     13  O   UNL     1       6.095   4.181  18.645  0.00  0.00    +0.000 OA
BRANCH  13  14
ATOM     14  C   UNL     1       6.314   5.435  19.278  0.00  0.00    +0.000 C 
ATOM     15  C   UNL     1       7.713   5.941  18.993  0.00  0.00    +0.000 C 
ENDBRANCH  13  14
ENDBRANCH   1  13
TORSDOF 8
ENDMDL
MODEL 7
REMARK VINA RESULT:      -4.9      2.169      4.574
REMARK  Name = 
REMARK  11 active torsions:
REMARK  status: ('A' for Active; 'I' for Inactive)
REMARK    1  A    between atoms: C_2  and  C_3
REMARK    2  A    between atoms: C_2  and  C_12
REMARK    3  A    between atoms: C_3  and  P_4
REMARK    4  A    between atoms: P_4  and  O_6
REMARK    5  A    between atoms: P_4  and  O_9
REMARK    6  A    between atoms: O_6  and  C_7
REMARK    7  A    between atoms: C_7  and  C_8
REMARK    8  A    between atoms: O_9  and  C_10
REMARK    9  A    between atoms: C_10  and  C_11
REMARK   10  A    between atoms: C_12  and  O_14
REMARK   11  A    between atoms: O_14  and  C_15
REMARK                            x       y       z     vdW  Elec       q    Type
REMARK                         _______ _______ _______ _____ _____    ______ ____
ROOT
ATOM      1  P   UNL     1       5.973   4.909  18.004  0.00  0.00    +0.000 P 
ATOM      2  O   UNL     1       5.785   3.989  19.174  0.00  0.00    +0.000 OA
ENDROOT
BRANCH   1   3
ATOM      3  C   UNL     1       4.495   5.571  17.231  0.00  0.00    +0.000 C 
BRANCH   3   5
ATOM      4  C   UNL     1       2.998   6.075  19.167  0.00  0.00    +0.000 C 
ATOM      5  C   UNL     1       3.317   5.304  18.114  0.00  0.00    +0.000 C 
BRANCH   5   6
ATOM      6  C   UNL     1       2.471   4.108  17.846  0.00  0.00    +0.000 C 
ATOM      7  O   UNL     1       2.723   3.276  16.985  0.00  0.00    +0.000 OA
BRANCH   6   8
ATOM      8  O   UNL     1       1.410   4.072  18.682  0.00  0.00    +0.000 OA
ATOM      9  C   UNL     1       0.959   2.748  18.975  0.00  0.00    +0.000 C 
ENDBRANCH   6   8
ENDBRANCH   5   6
ENDBRANCH   3   5
ENDBRANCH   1   3
BRANCH   1  10
ATOM     10  O   UNL     1       6.768   4.249  16.766  0.00  0.00    +0.000 OA
BRANCH  10  11
ATOM     11  C   UNL     1       6.030   3.908  15.608  0.00  0.00    +0.000 C 
ATOM     12  C   UNL     1       6.691   4.560  14.408  0.00  0.00    +0.000 C 
ENDBRANCH  10  11
ENDBRANCH   1  10
BRANCH   1  13
ATOM     13  O   UNL     1       6.878   6.206  18.361  0.00  0.00    +0.000 OA
BRANCH  13  14
ATOM     14  C   UNL     1       7.102   7.135  17.308  0.00  0.00    +0.000 C 
ATOM     15  C   UNL     1       7.955   8.291  17.788  0.00  0.00    +0.000 C 
ENDBRANCH  13  14
ENDBRANCH   1  13
TORSDOF 8
ENDMDL
MODEL 8
REMARK VINA RESULT:      -4.9      1.694      3.772
REMARK  Name = 
REMARK  11 active torsions:
REMARK  status: ('A' for Active; 'I' for Inactive)
REMARK    1  A    between atoms: C_2  and  C_3
REMARK    2  A    between atoms: C_2  and  C_12
REMARK    3  A    between atoms: C_3  and  P_4
REMARK    4  A    between atoms: P_4  and  O_6
REMARK    5  A    between atoms: P_4  and  O_9
REMARK    6  A    between atoms: O_6  and  C_7
REMARK    7  A    between atoms: C_7  and  C_8
REMARK    8  A    between atoms: O_9  and  C_10
REMARK    9  A    between atoms: C_10  and  C_11
REMARK   10  A    between atoms: C_12  and  O_14
REMARK   11  A    between atoms: O_14  and  C_15
REMARK                            x       y       z     vdW  Elec       q    Type
REMARK                         _______ _______ _______ _____ _____    ______ ____
ROOT
ATOM      1  P   UNL     1       4.239   4.324  18.520  0.00  0.00    +0.000 P 
ATOM      2  O   UNL     1       5.574   3.937  19.086  0.00  0.00    +0.000 OA
ENDROOT
BRANCH   1   3
ATOM      3  C   UNL     1       4.050   4.253  16.737  0.00  0.00    +0.000 C 
BRANCH   3   5
ATOM      4  C   UNL     1       6.125   3.601  15.507  0.00  0.00    +0.000 C 
ATOM      5  C   UNL     1       5.368   4.545  16.091  0.00  0.00    +0.000 C 
BRANCH   5   6
ATOM      6  C   UNL     1       5.893   5.938  16.122  0.00  0.00    +0.000 C 
ATOM      7  O   UNL     1       5.229   6.922  15.827  0.00  0.00    +0.000 OA
BRANCH   6   8
ATOM      8  O   UNL     1       7.183   5.957  16.525  0.00  0.00    +0.000 OA
ATOM      9  C   UNL     1       7.461   6.964  17.501  0.00  0.00    +0.000 C 
ENDBRANCH   6   8
ENDBRANCH   5   6
ENDBRANCH   3   5
ENDBRANCH   1   3
BRANCH   1  10
ATOM     10  O   UNL     1       3.780   5.827  18.877  0.00  0.00    +0.000 OA
BRANCH  10  11
ATOM     11  C   UNL     1       2.584   6.312  18.295  0.00  0.00    +0.000 C 
ATOM     12  C   UNL     1       2.735   7.802  18.057  0.00  0.00    +0.000 C 
ENDBRANCH  10  11
ENDBRANCH   1  10
BRANCH   1  13
ATOM     13  O   UNL     1       3.022   3.428  19.108  0.00  0.00    +0.000 OA
BRANCH  13  14
ATOM     14  C   UNL     1       2.915   3.351  20.523  0.00  0.00    +0.000 C 
ATOM     15  C   UNL     1       1.569   2.785  20.928  0.00  0.00    +0.000 C 
ENDBRANCH  13  14
ENDBRANCH   1  13
TORSDOF 8
ENDMDL
MODEL 9
REMARK VINA RESULT:      -4.9      1.666      5.099
REMARK  Name = 
REMARK  11 active torsions:
REMARK  status: ('A' for Active; 'I' for Inactive)
REMARK    1  A    between atoms: C_2  and  C_3
REMARK    2  A    between atoms: C_2  and  C_12
REMARK    3  A    between atoms: C_3  and  P_4
REMARK    4  A    between atoms: P_4  and  O_6
REMARK    5  A    between atoms: P_4  and  O_9
REMARK    6  A    between atoms: O_6  and  C_7
REMARK    7  A    between atoms: C_7  and  C_8
REMARK    8  A    between atoms: O_9  and  C_10
REMARK    9  A    between atoms: C_10  and  C_11
REMARK   10  A    between atoms: C_12  and  O_14
REMARK   11  A    between atoms: O_14  and  C_15
REMARK                            x       y       z     vdW  Elec       q    Type
REMARK                         _______ _______ _______ _____ _____    ______ ____
ROOT
ATOM      1  P   UNL     1       5.039   4.941  17.593  0.00  0.00    +0.000 P 
ATOM      2  O   UNL     1       4.412   6.119  18.280  0.00  0.00    +0.000 OA
ENDROOT
BRANCH   1   3
ATOM      3  C   UNL     1       4.000   3.508  17.303  0.00  0.00    +0.000 C 
BRANCH   3   5
ATOM      4  C   UNL     1       1.621   4.013  17.873  0.00  0.00    +0.000 C 
ATOM      5  C   UNL     1       2.830   3.552  18.234  0.00  0.00    +0.000 C 
BRANCH   5   6
ATOM      6  C   UNL     1       3.011   3.101  19.642  0.00  0.00    +0.000 C 
ATOM      7  O   UNL     1       3.882   2.319  19.998  0.00  0.00    +0.000 OA
BRANCH   6   8
ATOM      8  O   UNL     1       2.096   3.675  20.453  0.00  0.00    +0.000 OA
ATOM      9  C   UNL     1       1.698   2.843  21.544  0.00  0.00    +0.000 C 
ENDBRANCH   6   8
ENDBRANCH   5   6
ENDBRANCH   3   5
ENDBRANCH   1   3
BRANCH   1  10
ATOM     10  O   UNL     1       6.309   4.322  18.371  0.00  0.00    +0.000 OA
BRANCH  10  11
ATOM     11  C   UNL     1       7.592   4.829  18.058  0.00  0.00    +0.000 C 
ATOM     12  C   UNL     1       7.891   5.989  18.988  0.00  0.00    +0.000 C 
ENDBRANCH  10  11
ENDBRANCH   1  10
BRANCH   1  13
ATOM     13  O   UNL     1       5.657   5.315  16.141  0.00  0.00    +0.000 OA
BRANCH  13  14
ATOM     14  C   UNL     1       5.362   4.421  15.075  0.00  0.00    +0.000 C 
ATOM     15  C   UNL     1       6.538   4.315  14.126  0.00  0.00    +0.000 C 
ENDBRANCH  13  14
ENDBRANCH   1  13
TORSDOF 8
ENDMDL
