MODEL 1
REMARK VINA RESULT:      -8.5      0.000      0.000
REMARK  Name = 
REMARK  5 active torsions:
REMARK  status: ('A' for Active; 'I' for Inactive)
REMARK    1  A    between atoms: C_2  and  C_5
REMARK    2  A    between atoms: C_8  and  N_9
REMARK    3  A    between atoms: C_13  and  N_14
REMARK    4  A    between atoms: N_14  and  C_15
REMARK    5  A    between atoms: C_18  and  C_19
REMARK                            x       y       z     vdW  Elec       q    Type
REMARK                         _______ _______ _______ _____ _____    ______ ____
ROOT
ATOM      1  N   UNL     1       9.173   8.628  19.022  0.00  0.00    +0.000 N 
ATOM      2  C   UNL     1       8.148   7.839  18.442  0.00  0.00    +0.000 A 
ATOM      3  C   UNL     1       7.995   6.508  18.820  0.00  0.00    +0.000 A 
ATOM      4  N   UNL     1       7.081   5.668  18.277  0.00  0.00    +0.000 NA
ATOM      5  C   UNL     1       6.314   6.166  17.282  0.00  0.00    +0.000 A 
ATOM      6  C   UNL     1       6.499   7.484  16.871  0.00  0.00    +0.000 A 
ATOM      7  N   UNL     1       7.383   8.339  17.445  0.00  0.00    +0.000 NA
ATOM      8  H   UNL     1       9.389   8.281  19.952  0.00  0.00    +0.000 HD
ENDROOT
BRANCH   1  12
ATOM      9  C   UNL     1       9.185  12.859  19.181  0.00  0.00    +0.000 A 
ATOM     10  C   UNL     1       9.330  12.110  20.355  0.00  0.00    +0.000 A 
ATOM     11  C   UNL     1       9.303  10.717  20.309  0.00  0.00    +0.000 A 
ATOM     12  C   UNL     1       9.109  10.041  19.097  0.00  0.00    +0.000 A 
ATOM     13  C   UNL     1       9.017  10.786  17.918  0.00  0.00    +0.000 A 
ATOM     14  C   UNL     1       9.035  12.183  17.959  0.00  0.00    +0.000 A 
BRANCH   9  16
ATOM     15  F   UNL     1      10.279  14.889  19.857  0.00  0.00    +0.000 F 
ATOM     16  C   UNL     1       9.191  14.368  19.223  0.00  0.00    +0.000 C 
ATOM     17  F   UNL     1       8.106  14.877  19.865  0.00  0.00    +0.000 F 
ATOM     18  F   UNL     1       9.186  14.923  17.979  0.00  0.00    +0.000 F 
ENDBRANCH   9  16
ENDBRANCH   1  12
BRANCH   5  19
ATOM     19  N   UNL     1       5.414   5.319  16.592  0.00  0.00    +0.000 N 
ATOM     20  H   UNL     1       5.076   5.783  15.753  0.00  0.00    +0.000 HD
BRANCH  19  21
ATOM     21  C   UNL     1       4.301   4.703  17.222  0.00  0.00    +0.000 A 
ATOM     22  C   UNL     1       4.204   3.312  17.340  0.00  0.00    +0.000 A 
ATOM     23  C   UNL     1       3.152   2.721  18.040  0.00  0.00    +0.000 A 
ATOM     24  C   UNL     1       2.181   3.518  18.660  0.00  0.00    +0.000 A 
ATOM     25  C   UNL     1       2.292   4.914  18.567  0.00  0.00    +0.000 A 
ATOM     26  C   UNL     1       3.355   5.501  17.869  0.00  0.00    +0.000 A 
BRANCH  24  27
ATOM     27  C   UNL     1       1.044   2.891  19.428  0.00  0.00    +0.000 C 
ATOM     28  F   UNL     1       1.452   1.993  20.369  0.00  0.00    +0.000 F 
ATOM     29  F   UNL     1       0.299   3.815  20.096  0.00  0.00    +0.000 F 
ATOM     30  F   UNL     1       0.176   2.219  18.624  0.00  0.00    +0.000 F 
ENDBRANCH  24  27
ENDBRANCH  19  21
ENDBRANCH   5  19
TORSDOF 5
ENDMDL
MODEL 2
REMARK VINA RESULT:      -8.5      0.256      1.073
REMARK  Name = 
REMARK  5 active torsions:
REMARK  status: ('A' for Active; 'I' for Inactive)
REMARK    1  A    between atoms: C_2  and  C_5
REMARK    2  A    between atoms: C_8  and  N_9
REMARK    3  A    between atoms: C_13  and  N_14
REMARK    4  A    between atoms: N_14  and  C_15
REMARK    5  A    between atoms: C_18  and  C_19
REMARK                            x       y       z     vdW  Elec       q    Type
REMARK                         _______ _______ _______ _____ _____    ______ ____
ROOT
ATOM      1  N   UNL     1       9.177   8.669  19.022  0.00  0.00    +0.000 N 
ATOM      2  C   UNL     1       8.162   7.864  18.448  0.00  0.00    +0.000 A 
ATOM      3  C   UNL     1       8.028   6.532  18.831  0.00  0.00    +0.000 A 
ATOM      4  N   UNL     1       7.125   5.678  18.293  0.00  0.00    +0.000 NA
ATOM      5  C   UNL     1       6.349   6.161  17.298  0.00  0.00    +0.000 A 
ATOM      6  C   UNL     1       6.514   7.480  16.882  0.00  0.00    +0.000 A 
ATOM      7  N   UNL     1       7.389   8.349  17.451  0.00  0.00    +0.000 NA
ATOM      8  H   UNL     1       9.401   8.328  19.954  0.00  0.00    +0.000 HD
ENDROOT
BRANCH   1  12
ATOM      9  C   UNL     1       9.130  12.900  19.161  0.00  0.00    +0.000 A 
ATOM     10  C   UNL     1       9.321  12.159  20.333  0.00  0.00    +0.000 A 
ATOM     11  C   UNL     1       9.313  10.766  20.295  0.00  0.00    +0.000 A 
ATOM     12  C   UNL     1       9.095  10.081  19.093  0.00  0.00    +0.000 A 
ATOM     13  C   UNL     1       8.958  10.818  17.914  0.00  0.00    +0.000 A 
ATOM     14  C   UNL     1       8.956  12.215  17.947  0.00  0.00    +0.000 A 
BRANCH   9  16
ATOM     15  F   UNL     1       7.863  14.941  19.103  0.00  0.00    +0.000 F 
ATOM     16  C   UNL     1       9.115  14.409  19.195  0.00  0.00    +0.000 C 
ATOM     17  F   UNL     1       9.830  14.962  18.178  0.00  0.00    +0.000 F 
ATOM     18  F   UNL     1       9.648  14.910  20.344  0.00  0.00    +0.000 F 
ENDBRANCH   9  16
ENDBRANCH   1  12
BRANCH   5  19
ATOM     19  N   UNL     1       5.458   5.299  16.613  0.00  0.00    +0.000 N 
ATOM     20  H   UNL     1       5.128   5.747  15.762  0.00  0.00    +0.000 HD
BRANCH  19  21
ATOM     21  C   UNL     1       4.341   4.691  17.241  0.00  0.00    +0.000 A 
ATOM     22  C   UNL     1       4.283   3.309  17.454  0.00  0.00    +0.000 A 
ATOM     23  C   UNL     1       3.222   2.732  18.153  0.00  0.00    +0.000 A 
ATOM     24  C   UNL     1       2.202   3.537  18.677  0.00  0.00    +0.000 A 
ATOM     25  C   UNL     1       2.273   4.926  18.490  0.00  0.00    +0.000 A 
ATOM     26  C   UNL     1       3.345   5.499  17.794  0.00  0.00    +0.000 A 
BRANCH  24  27
ATOM     27  C   UNL     1       1.055   2.925  19.443  0.00  0.00    +0.000 C 
ATOM     28  F   UNL     1       0.304   3.840  20.120  0.00  0.00    +0.000 F 
ATOM     29  F   UNL     1       0.186   2.262  18.631  0.00  0.00    +0.000 F 
ATOM     30  F   UNL     1       1.467   2.020  20.372  0.00  0.00    +0.000 F 
ENDBRANCH  24  27
ENDBRANCH  19  21
ENDBRANCH   5  19
TORSDOF 5
ENDMDL
MODEL 3
REMARK VINA RESULT:      -8.1      0.258      1.179
REMARK  Name = 
REMARK  5 active torsions:
REMARK  status: ('A' for Active; 'I' for Inactive)
REMARK    1  A    between atoms: C_2  and  C_5
REMARK    2  A    between atoms: C_8  and  N_9
REMARK    3  A    between atoms: C_13  and  N_14
REMARK    4  A    between atoms: N_14  and  C_15
REMARK    5  A    between atoms: C_18  and  C_19
REMARK                            x       y       z     vdW  Elec       q    Type
REMARK                         _______ _______ _______ _____ _____    ______ ____
ROOT
ATOM      1  N   UNL     1       9.235   8.734  18.973  0.00  0.00    +0.000 N 
ATOM      2  C   UNL     1       8.180   7.944  18.452  0.00  0.00    +0.000 A 
ATOM      3  C   UNL     1       8.060   6.608  18.829  0.00  0.00    +0.000 A 
ATOM      4  N   UNL     1       7.118   5.767  18.338  0.00  0.00    +0.000 NA
ATOM      5  C   UNL     1       6.286   6.267  17.398  0.00  0.00    +0.000 A 
ATOM      6  C   UNL     1       6.437   7.590  16.986  0.00  0.00    +0.000 A 
ATOM      7  N   UNL     1       7.351   8.446  17.511  0.00  0.00    +0.000 NA
ATOM      8  H   UNL     1       9.512   8.381  19.885  0.00  0.00    +0.000 HD
ENDROOT
BRANCH   1  12
ATOM      9  C   UNL     1       9.239  12.963  19.186  0.00  0.00    +0.000 A 
ATOM     10  C   UNL     1       9.338  12.199  20.355  0.00  0.00    +0.000 A 
ATOM     11  C   UNL     1       9.313  10.807  20.290  0.00  0.00    +0.000 A 
ATOM     12  C   UNL     1       9.168  10.146  19.064  0.00  0.00    +0.000 A 
ATOM     13  C   UNL     1       9.122  10.906  17.891  0.00  0.00    +0.000 A 
ATOM     14  C   UNL     1       9.138  12.302  17.950  0.00  0.00    +0.000 A 
BRANCH   9  16
ATOM     15  F   UNL     1       9.930  14.970  20.313  0.00  0.00    +0.000 F 
ATOM     16  C   UNL     1       9.243  14.471  19.247  0.00  0.00    +0.000 C 
ATOM     17  F   UNL     1       7.990  14.994  19.334  0.00  0.00    +0.000 F 
ATOM     18  F   UNL     1       9.809  15.035  18.144  0.00  0.00    +0.000 F 
ENDBRANCH   9  16
ENDBRANCH   1  12
BRANCH   5  19
ATOM     19  N   UNL     1       5.349   5.419  16.759  0.00  0.00    +0.000 N 
ATOM     20  H   UNL     1       4.933   5.899  15.965  0.00  0.00    +0.000 HD
BRANCH  19  21
ATOM     21  C   UNL     1       4.305   4.762  17.460  0.00  0.00    +0.000 A 
ATOM     22  C   UNL     1       3.306   5.480  18.127  0.00  0.00    +0.000 A 
ATOM     23  C   UNL     1       2.235   4.825  18.736  0.00  0.00    +0.000 A 
ATOM     24  C   UNL     1       2.130   3.430  18.668  0.00  0.00    +0.000 A 
ATOM     25  C   UNL     1       3.115   2.710  17.975  0.00  0.00    +0.000 A 
ATOM     26  C   UNL     1       4.184   3.374  17.360  0.00  0.00    +0.000 A 
BRANCH  24  27
ATOM     27  C   UNL     1       0.971   2.712  19.314  0.00  0.00    +0.000 C 
ATOM     28  F   UNL     1       0.144   3.536  20.019  0.00  0.00    +0.000 F 
ATOM     29  F   UNL     1       0.177   2.085  18.403  0.00  0.00    +0.000 F 
ATOM     30  F   UNL     1       1.371   1.749  20.189  0.00  0.00    +0.000 F 
ENDBRANCH  24  27
ENDBRANCH  19  21
ENDBRANCH   5  19
TORSDOF 5
ENDMDL
MODEL 4
REMARK VINA RESULT:      -8.1      6.630      9.097
REMARK  Name = 
REMARK  5 active torsions:
REMARK  status: ('A' for Active; 'I' for Inactive)
REMARK    1  A    between atoms: C_2  and  C_5
REMARK    2  A    between atoms: C_8  and  N_9
REMARK    3  A    between atoms: C_13  and  N_14
REMARK    4  A    between atoms: N_14  and  C_15
REMARK    5  A    between atoms: C_18  and  C_19
REMARK                            x       y       z     vdW  Elec       q    Type
REMARK                         _______ _______ _______ _____ _____    ______ ____
ROOT
ATOM      1  N   UNL     1       2.691   6.275  19.169  0.00  0.00    +0.000 N 
ATOM      2  C   UNL     1       2.161   7.587  19.091  0.00  0.00    +0.000 A 
ATOM      3  C   UNL     1       1.649   8.200  20.232  0.00  0.00    +0.000 A 
ATOM      4  N   UNL     1       1.074   9.427  20.237  0.00  0.00    +0.000 NA
ATOM      5  C   UNL     1       0.964  10.052  19.044  0.00  0.00    +0.000 A 
ATOM      6  C   UNL     1       1.433   9.419  17.895  0.00  0.00    +0.000 A 
ATOM      7  N   UNL     1       2.051   8.210  17.896  0.00  0.00    +0.000 NA
ATOM      8  H   UNL     1       3.046   6.102  20.106  0.00  0.00    +0.000 HD
ENDROOT
BRANCH   1  12
ATOM      9  C   UNL     1       5.476   4.917  16.283  0.00  0.00    +0.000 A 
ATOM     10  C   UNL     1       4.309   4.186  16.533  0.00  0.00    +0.000 A 
ATOM     11  C   UNL     1       3.402   4.617  17.500  0.00  0.00    +0.000 A 
ATOM     12  C   UNL     1       3.647   5.774  18.251  0.00  0.00    +0.000 A 
ATOM     13  C   UNL     1       4.784   6.534  17.965  0.00  0.00    +0.000 A 
ATOM     14  C   UNL     1       5.703   6.102  17.004  0.00  0.00    +0.000 A 
BRANCH   9  16
ATOM     15  F   UNL     1       6.545   5.252  14.157  0.00  0.00    +0.000 F 
ATOM     16  C   UNL     1       6.476   4.448  15.255  0.00  0.00    +0.000 C 
ATOM     17  F   UNL     1       6.197   3.201  14.786  0.00  0.00    +0.000 F 
ATOM     18  F   UNL     1       7.743   4.387  15.750  0.00  0.00    +0.000 F 
ENDBRANCH   9  16
ENDBRANCH   1  12
BRANCH   5  19
ATOM     19  N   UNL     1       0.277  11.286  18.953  0.00  0.00    +0.000 N 
ATOM     20  H   UNL     1       0.485  11.860  19.767  0.00  0.00    +0.000 HD
BRANCH  19  21
ATOM     21  C   UNL     1      -1.119  11.373  18.712  0.00  0.00    +0.000 A 
ATOM     22  C   UNL     1      -1.748  10.567  17.755  0.00  0.00    +0.000 A 
ATOM     23  C   UNL     1      -3.133  10.595  17.590  0.00  0.00    +0.000 A 
ATOM     24  C   UNL     1      -3.924  11.420  18.400  0.00  0.00    +0.000 A 
ATOM     25  C   UNL     1      -3.298  12.207  19.379  0.00  0.00    +0.000 A 
ATOM     26  C   UNL     1      -1.908  12.168  19.545  0.00  0.00    +0.000 A 
BRANCH  24  27
ATOM     27  C   UNL     1      -5.423  11.451  18.236  0.00  0.00    +0.000 C 
ATOM     28  F   UNL     1      -6.021  10.246  18.456  0.00  0.00    +0.000 F 
ATOM     29  F   UNL     1      -6.020  12.322  19.097  0.00  0.00    +0.000 F 
ATOM     30  F   UNL     1      -5.807  11.835  16.988  0.00  0.00    +0.000 F 
ENDBRANCH  24  27
ENDBRANCH  19  21
ENDBRANCH   5  19
TORSDOF 5
ENDMDL
MODEL 5
REMARK VINA RESULT:      -8.1      6.662      9.117
REMARK  Name = 
REMARK  5 active torsions:
REMARK  status: ('A' for Active; 'I' for Inactive)
REMARK    1  A    between atoms: C_2  and  C_5
REMARK    2  A    between atoms: C_8  and  N_9
REMARK    3  A    between atoms: C_13  and  N_14
REMARK    4  A    between atoms: N_14  and  C_15
REMARK    5  A    between atoms: C_18  and  C_19
REMARK                            x       y       z     vdW  Elec       q    Type
REMARK                         _______ _______ _______ _____ _____    ______ ____
ROOT
ATOM      1  N   UNL     1       2.676   6.336  19.101  0.00  0.00    +0.000 N 
ATOM      2  C   UNL     1       2.149   7.649  19.018  0.00  0.00    +0.000 A 
ATOM      3  C   UNL     1       1.622   8.261  20.152  0.00  0.00    +0.000 A 
ATOM      4  N   UNL     1       1.049   9.488  20.152  0.00  0.00    +0.000 NA
ATOM      5  C   UNL     1       0.958  10.116  18.959  0.00  0.00    +0.000 A 
ATOM      6  C   UNL     1       1.444   9.485  17.816  0.00  0.00    +0.000 A 
ATOM      7  N   UNL     1       2.059   8.275  17.823  0.00  0.00    +0.000 NA
ATOM      8  H   UNL     1       3.016   6.160  20.042  0.00  0.00    +0.000 HD
ENDROOT
BRANCH   1  12
ATOM      9  C   UNL     1       5.480   4.956  16.245  0.00  0.00    +0.000 A 
ATOM     10  C   UNL     1       4.402   4.146  16.621  0.00  0.00    +0.000 A 
ATOM     11  C   UNL     1       3.490   4.588  17.578  0.00  0.00    +0.000 A 
ATOM     12  C   UNL     1       3.644   5.835  18.196  0.00  0.00    +0.000 A 
ATOM     13  C   UNL     1       4.689   6.666  17.784  0.00  0.00    +0.000 A 
ATOM     14  C   UNL     1       5.612   6.226  16.831  0.00  0.00    +0.000 A 
BRANCH   9  16
ATOM     15  F   UNL     1       6.184   3.260  14.694  0.00  0.00    +0.000 F 
ATOM     16  C   UNL     1       6.486   4.478  15.225  0.00  0.00    +0.000 C 
ATOM     17  F   UNL     1       7.738   4.359  15.743  0.00  0.00    +0.000 F 
ATOM     18  F   UNL     1       6.596   5.327  14.166  0.00  0.00    +0.000 F 
ENDBRANCH   9  16
ENDBRANCH   1  12
BRANCH   5  19
ATOM     19  N   UNL     1       0.274  11.353  18.860  0.00  0.00    +0.000 N 
ATOM     20  H   UNL     1       0.505  11.940  19.658  0.00  0.00    +0.000 HD
BRANCH  19  21
ATOM     21  C   UNL     1      -1.126  11.442  18.650  0.00  0.00    +0.000 A 
ATOM     22  C   UNL     1      -1.759  10.730  17.624  0.00  0.00    +0.000 A 
ATOM     23  C   UNL     1      -3.147  10.753  17.483  0.00  0.00    +0.000 A 
ATOM     24  C   UNL     1      -3.936  11.476  18.386  0.00  0.00    +0.000 A 
ATOM     25  C   UNL     1      -3.306  12.167  19.433  0.00  0.00    +0.000 A 
ATOM     26  C   UNL     1      -1.913  12.133  19.573  0.00  0.00    +0.000 A 
BRANCH  24  27
ATOM     27  C   UNL     1      -5.438  11.501  18.249  0.00  0.00    +0.000 C 
ATOM     28  F   UNL     1      -6.049  12.372  19.102  0.00  0.00    +0.000 F 
ATOM     29  F   UNL     1      -5.838  11.866  16.999  0.00  0.00    +0.000 F 
ATOM     30  F   UNL     1      -6.007  10.287  18.485  0.00  0.00    +0.000 F 
ENDBRANCH  24  27
ENDBRANCH  19  21
ENDBRANCH   5  19
TORSDOF 5
ENDMDL
MODEL 6
REMARK VINA RESULT:      -8.1      0.421      1.271
REMARK  Name = 
REMARK  5 active torsions:
REMARK  status: ('A' for Active; 'I' for Inactive)
REMARK    1  A    between atoms: C_2  and  C_5
REMARK    2  A    between atoms: C_8  and  N_9
REMARK    3  A    between atoms: C_13  and  N_14
REMARK    4  A    between atoms: N_14  and  C_15
REMARK    5  A    between atoms: C_18  and  C_19
REMARK                            x       y       z     vdW  Elec       q    Type
REMARK                         _______ _______ _______ _____ _____    ______ ____
ROOT
ATOM      1  N   UNL     1       9.235   8.629  19.060  0.00  0.00    +0.000 N 
ATOM      2  C   UNL     1       8.199   7.852  18.484  0.00  0.00    +0.000 A 
ATOM      3  C   UNL     1       7.996   6.540  18.905  0.00  0.00    +0.000 A 
ATOM      4  N   UNL     1       7.069   5.710  18.371  0.00  0.00    +0.000 NA
ATOM      5  C   UNL     1       6.340   6.195  17.342  0.00  0.00    +0.000 A 
ATOM      6  C   UNL     1       6.574   7.491  16.889  0.00  0.00    +0.000 A 
ATOM      7  N   UNL     1       7.472   8.339  17.454  0.00  0.00    +0.000 NA
ATOM      8  H   UNL     1       9.420   8.309  20.007  0.00  0.00    +0.000 HD
ENDROOT
BRANCH   1  12
ATOM      9  C   UNL     1       8.970  12.853  19.203  0.00  0.00    +0.000 A 
ATOM     10  C   UNL     1       8.857  12.181  17.980  0.00  0.00    +0.000 A 
ATOM     11  C   UNL     1       8.968  10.792  17.926  0.00  0.00    +0.000 A 
ATOM     12  C   UNL     1       9.214  10.045  19.085  0.00  0.00    +0.000 A 
ATOM     13  C   UNL     1       9.274  10.709  20.313  0.00  0.00    +0.000 A 
ATOM     14  C   UNL     1       9.172  12.102  20.373  0.00  0.00    +0.000 A 
BRANCH   9  16
ATOM     15  F   UNL     1       9.816  14.995  18.518  0.00  0.00    +0.000 F 
ATOM     16  C   UNL     1       8.874  14.357  19.269  0.00  0.00    +0.000 C 
ATOM     17  F   UNL     1       9.021  14.835  20.535  0.00  0.00    +0.000 F 
ATOM     18  F   UNL     1       7.672  14.822  18.830  0.00  0.00    +0.000 F 
ENDBRANCH   9  16
ENDBRANCH   1  12
BRANCH   5  19
ATOM     19  N   UNL     1       5.429   5.351  16.661  0.00  0.00    +0.000 N 
ATOM     20  H   UNL     1       5.106   5.805  15.810  0.00  0.00    +0.000 HD
BRANCH  19  21
ATOM     21  C   UNL     1       4.300   4.770  17.293  0.00  0.00    +0.000 A 
ATOM     22  C   UNL     1       3.968   3.423  17.104  0.00  0.00    +0.000 A 
ATOM     23  C   UNL     1       2.910   2.838  17.801  0.00  0.00    +0.000 A 
ATOM     24  C   UNL     1       2.172   3.589  18.725  0.00  0.00    +0.000 A 
ATOM     25  C   UNL     1       2.522   4.932  18.938  0.00  0.00    +0.000 A 
ATOM     26  C   UNL     1       3.590   5.511  18.240  0.00  0.00    +0.000 A 
BRANCH  24  27
ATOM     27  C   UNL     1       1.033   2.965  19.491  0.00  0.00    +0.000 C 
ATOM     28  F   UNL     1       0.227   3.876  20.108  0.00  0.00    +0.000 F 
ATOM     29  F   UNL     1       0.213   2.229  18.691  0.00  0.00    +0.000 F 
ATOM     30  F   UNL     1       1.458   2.121  20.471  0.00  0.00    +0.000 F 
ENDBRANCH  24  27
ENDBRANCH  19  21
ENDBRANCH   5  19
TORSDOF 5
ENDMDL
MODEL 7
REMARK VINA RESULT:      -8.1      6.736      9.233
REMARK  Name = 
REMARK  5 active torsions:
REMARK  status: ('A' for Active; 'I' for Inactive)
REMARK    1  A    between atoms: C_2  and  C_5
REMARK    2  A    between atoms: C_8  and  N_9
REMARK    3  A    between atoms: C_13  and  N_14
REMARK    4  A    between atoms: N_14  and  C_15
REMARK    5  A    between atoms: C_18  and  C_19
REMARK                            x       y       z     vdW  Elec       q    Type
REMARK                         _______ _______ _______ _____ _____    ______ ____
ROOT
ATOM      1  N   UNL     1       2.716   6.332  19.164  0.00  0.00    +0.000 N 
ATOM      2  C   UNL     1       2.169   7.637  19.089  0.00  0.00    +0.000 A 
ATOM      3  C   UNL     1       1.664   8.247  20.234  0.00  0.00    +0.000 A 
ATOM      4  N   UNL     1       1.074   9.467  20.243  0.00  0.00    +0.000 NA
ATOM      5  C   UNL     1       0.942  10.087  19.050  0.00  0.00    +0.000 A 
ATOM      6  C   UNL     1       1.404   9.456  17.897  0.00  0.00    +0.000 A 
ATOM      7  N   UNL     1       2.036   8.255  17.894  0.00  0.00    +0.000 NA
ATOM      8  H   UNL     1       3.084   6.166  20.096  0.00  0.00    +0.000 HD
ENDROOT
BRANCH   1  12
ATOM      9  C   UNL     1       5.457   4.971  16.237  0.00  0.00    +0.000 A 
ATOM     10  C   UNL     1       4.415   4.141  16.666  0.00  0.00    +0.000 A 
ATOM     11  C   UNL     1       3.525   4.576  17.647  0.00  0.00    +0.000 A 
ATOM     12  C   UNL     1       3.666   5.839  18.236  0.00  0.00    +0.000 A 
ATOM     13  C   UNL     1       4.673   6.690  17.771  0.00  0.00    +0.000 A 
ATOM     14  C   UNL     1       5.574   6.256  16.795  0.00  0.00    +0.000 A 
BRANCH   9  16
ATOM     15  F   UNL     1       6.618   5.391  14.176  0.00  0.00    +0.000 F 
ATOM     16  C   UNL     1       6.439   4.501  15.193  0.00  0.00    +0.000 C 
ATOM     17  F   UNL     1       6.058   3.335  14.604  0.00  0.00    +0.000 F 
ATOM     18  F   UNL     1       7.679   4.274  15.708  0.00  0.00    +0.000 F 
ENDBRANCH   9  16
ENDBRANCH   1  12
BRANCH   5  19
ATOM     19  N   UNL     1       0.238  11.313  18.964  0.00  0.00    +0.000 N 
ATOM     20  H   UNL     1       0.523  11.929  19.720  0.00  0.00    +0.000 HD
BRANCH  19  21
ATOM     21  C   UNL     1      -1.175  11.382  18.861  0.00  0.00    +0.000 A 
ATOM     22  C   UNL     1      -1.927  12.237  19.676  0.00  0.00    +0.000 A 
ATOM     23  C   UNL     1      -3.306  12.364  19.505  0.00  0.00    +0.000 A 
ATOM     24  C   UNL     1      -3.961  11.652  18.492  0.00  0.00    +0.000 A 
ATOM     25  C   UNL     1      -3.205  10.816  17.656  0.00  0.00    +0.000 A 
ATOM     26  C   UNL     1      -1.820  10.698  17.828  0.00  0.00    +0.000 A 
BRANCH  24  27
ATOM     27  C   UNL     1      -5.450  11.789  18.292  0.00  0.00    +0.000 C 
ATOM     28  F   UNL     1      -5.786  12.561  17.220  0.00  0.00    +0.000 F 
ATOM     29  F   UNL     1      -6.058  10.588  18.087  0.00  0.00    +0.000 F 
ATOM     30  F   UNL     1      -6.075  12.348  19.364  0.00  0.00    +0.000 F 
ENDBRANCH  24  27
ENDBRANCH  19  21
ENDBRANCH   5  19
TORSDOF 5
ENDMDL
MODEL 8
REMARK VINA RESULT:      -8.0      6.755      9.221
REMARK  Name = 
REMARK  5 active torsions:
REMARK  status: ('A' for Active; 'I' for Inactive)
REMARK    1  A    between atoms: C_2  and  C_5
REMARK    2  A    between atoms: C_8  and  N_9
REMARK    3  A    between atoms: C_13  and  N_14
REMARK    4  A    between atoms: N_14  and  C_15
REMARK    5  A    between atoms: C_18  and  C_19
REMARK                            x       y       z     vdW  Elec       q    Type
REMARK                         _______ _______ _______ _____ _____    ______ ____
ROOT
ATOM      1  N   UNL     1       2.674   6.250  18.905  0.00  0.00    +0.000 N 
ATOM      2  C   UNL     1       2.114   7.549  18.989  0.00  0.00    +0.000 A 
ATOM      3  C   UNL     1       1.677   8.041  20.217  0.00  0.00    +0.000 A 
ATOM      4  N   UNL     1       1.079   9.246  20.379  0.00  0.00    +0.000 NA
ATOM      5  C   UNL     1       0.869   9.975  19.261  0.00  0.00    +0.000 A 
ATOM      6  C   UNL     1       1.263   9.464  18.027  0.00  0.00    +0.000 A 
ATOM      7  N   UNL     1       1.903   8.276  17.870  0.00  0.00    +0.000 NA
ATOM      8  H   UNL     1       3.101   6.001  19.793  0.00  0.00    +0.000 HD
ENDROOT
BRANCH   1  12
ATOM      9  C   UNL     1       5.481   5.019  15.984  0.00  0.00    +0.000 A 
ATOM     10  C   UNL     1       5.376   6.370  16.334  0.00  0.00    +0.000 A 
ATOM     11  C   UNL     1       4.436   6.783  17.277  0.00  0.00    +0.000 A 
ATOM     12  C   UNL     1       3.568   5.861  17.877  0.00  0.00    +0.000 A 
ATOM     13  C   UNL     1       3.708   4.505  17.570  0.00  0.00    +0.000 A 
ATOM     14  C   UNL     1       4.643   4.087  16.618  0.00  0.00    +0.000 A 
BRANCH   9  16
ATOM     15  F   UNL     1       6.148   3.384  14.354  0.00  0.00    +0.000 F 
ATOM     16  C   UNL     1       6.480   4.565  14.948  0.00  0.00    +0.000 C 
ATOM     17  F   UNL     1       7.725   4.384  15.466  0.00  0.00    +0.000 F 
ATOM     18  F   UNL     1       6.622   5.462  13.933  0.00  0.00    +0.000 F 
ENDBRANCH   9  16
ENDBRANCH   1  12
BRANCH   5  19
ATOM     19  N   UNL     1       0.152  11.194  19.336  0.00  0.00    +0.000 N 
ATOM     20  H   UNL     1       0.329  11.645  20.231  0.00  0.00    +0.000 HD
BRANCH  19  21
ATOM     21  C   UNL     1      -1.239  11.285  19.076  0.00  0.00    +0.000 A 
ATOM     22  C   UNL     1      -2.055  12.192  19.763  0.00  0.00    +0.000 A 
ATOM     23  C   UNL     1      -3.403  12.337  19.436  0.00  0.00    +0.000 A 
ATOM     24  C   UNL     1      -3.961  11.589  18.392  0.00  0.00    +0.000 A 
ATOM     25  C   UNL     1      -3.138  10.700  17.682  0.00  0.00    +0.000 A 
ATOM     26  C   UNL     1      -1.784  10.565  18.011  0.00  0.00    +0.000 A 
BRANCH  24  27
ATOM     27  C   UNL     1      -5.415  11.745  18.023  0.00  0.00    +0.000 C 
ATOM     28  F   UNL     1      -6.155  10.619  18.236  0.00  0.00    +0.000 F 
ATOM     29  F   UNL     1      -6.028  12.729  18.738  0.00  0.00    +0.000 F 
ATOM     30  F   UNL     1      -5.594  12.065  16.713  0.00  0.00    +0.000 F 
ENDBRANCH  24  27
ENDBRANCH  19  21
ENDBRANCH   5  19
TORSDOF 5
ENDMDL
MODEL 9
REMARK VINA RESULT:      -8.0      7.149     10.793
REMARK  Name = 
REMARK  5 active torsions:
REMARK  status: ('A' for Active; 'I' for Inactive)
REMARK    1  A    between atoms: C_2  and  C_5
REMARK    2  A    between atoms: C_8  and  N_9
REMARK    3  A    between atoms: C_13  and  N_14
REMARK    4  A    between atoms: N_14  and  C_15
REMARK    5  A    between atoms: C_18  and  C_19
REMARK                            x       y       z     vdW  Elec       q    Type
REMARK                         _______ _______ _______ _____ _____    ______ ____
ROOT
ATOM      1  N   UNL     1       2.509   8.177  18.875  0.00  0.00    +0.000 N 
ATOM      2  C   UNL     1       1.488   9.142  19.058  0.00  0.00    +0.000 A 
ATOM      3  C   UNL     1       1.545  10.355  18.377  0.00  0.00    +0.000 A 
ATOM      4  N   UNL     1       0.643  11.354  18.535  0.00  0.00    +0.000 NA
ATOM      5  C   UNL     1      -0.334  11.152  19.446  0.00  0.00    +0.000 A 
ATOM      6  C   UNL     1      -0.365   9.958  20.162  0.00  0.00    +0.000 A 
ATOM      7  N   UNL     1       0.512   8.939  19.971  0.00  0.00    +0.000 NA
ATOM      8  H   UNL     1       2.921   8.283  17.951  0.00  0.00    +0.000 HD
ENDROOT
BRANCH   1  12
ATOM      9  C   UNL     1       1.716   4.061  19.472  0.00  0.00    +0.000 A 
ATOM     10  C   UNL     1       1.717   4.943  20.559  0.00  0.00    +0.000 A 
ATOM     11  C   UNL     1       2.001   6.295  20.369  0.00  0.00    +0.000 A 
ATOM     12  C   UNL     1       2.311   6.793  19.097  0.00  0.00    +0.000 A 
ATOM     13  C   UNL     1       2.258   5.924  18.003  0.00  0.00    +0.000 A 
ATOM     14  C   UNL     1       1.983   4.567  18.188  0.00  0.00    +0.000 A 
BRANCH   9  16
ATOM     15  F   UNL     1       1.354   2.226  20.980  0.00  0.00    +0.000 F 
ATOM     16  C   UNL     1       1.432   2.592  19.669  0.00  0.00    +0.000 C 
ATOM     17  F   UNL     1       2.386   1.796  19.115  0.00  0.00    +0.000 F 
ATOM     18  F   UNL     1       0.251   2.210  19.107  0.00  0.00    +0.000 F 
ENDBRANCH   9  16
ENDBRANCH   1  12
BRANCH   5  19
ATOM     19  N   UNL     1      -1.247  12.193  19.746  0.00  0.00    +0.000 N 
ATOM     20  H   UNL     1      -1.226  12.394  20.742  0.00  0.00    +0.000 HD
BRANCH  19  21
ATOM     21  C   UNL     1      -2.606  12.163  19.341  0.00  0.00    +0.000 A 
ATOM     22  C   UNL     1      -3.005  11.523  18.161  0.00  0.00    +0.000 A 
ATOM     23  C   UNL     1      -4.353  11.422  17.818  0.00  0.00    +0.000 A 
ATOM     24  C   UNL     1      -5.339  11.942  18.667  0.00  0.00    +0.000 A 
ATOM     25  C   UNL     1      -4.943  12.560  19.864  0.00  0.00    +0.000 A 
ATOM     26  C   UNL     1      -3.588  12.651  20.206  0.00  0.00    +0.000 A 
BRANCH  24  27
ATOM     27  C   UNL     1      -6.800  11.830  18.311  0.00  0.00    +0.000 C 
ATOM     28  F   UNL     1      -7.121  12.429  17.129  0.00  0.00    +0.000 F 
ATOM     29  F   UNL     1      -7.206  10.536  18.191  0.00  0.00    +0.000 F 
ATOM     30  F   UNL     1      -7.613  12.393  19.246  0.00  0.00    +0.000 F 
ENDBRANCH  24  27
ENDBRANCH  19  21
ENDBRANCH   5  19
TORSDOF 5
ENDMDL
