MODEL 1
REMARK VINA RESULT:      -6.1      0.000      0.000
REMARK  Name = 
REMARK  8 active torsions:
REMARK  status: ('A' for Active; 'I' for Inactive)
REMARK    1  A    between atoms: C_1  and  C_2
REMARK    2  A    between atoms: C_3  and  O_4
REMARK    3  A    between atoms: C_5  and  C_6
REMARK    4  A    between atoms: C_5  and  C_7
REMARK    5  A    between atoms: C_7  and  C_8
REMARK    6  A    between atoms: C_8  and  C_9
REMARK    7  A    between atoms: C_9  and  C_10
REMARK    8  A    between atoms: C_9  and  C_11
REMARK                            x       y       z     vdW  Elec       q    Type
REMARK                         _______ _______ _______ _____ _____    ______ ____
ROOT
ATOM      1  C   UNL     1       7.495   6.814  17.456  0.00  0.00    +0.000 C 
ATOM      2  C   UNL     1       6.257   6.160  17.965  0.00  0.00    +0.000 C 
ATOM      3  C   UNL     1       5.013   6.136  17.457  0.00  0.00    +0.000 C 
ATOM      4  C   UNL     1       3.938   5.399  18.234  0.00  0.00    +0.000 C 
ATOM      5  C   UNL     1       3.005   6.402  18.931  0.00  0.00    +0.000 C 
ATOM      6  S   UNL     1       4.866   4.529  19.559  0.00  0.00    +0.000 S 
ATOM      7  C   UNL     1       6.341   5.408  19.231  0.00  0.00    +0.000 C 
ATOM      8  O   UNL     1       7.315   5.397  19.964  0.00  0.00    +0.000 OA
ENDROOT
BRANCH   3   9
ATOM      9  O   UNL     1       4.624   6.757  16.293  0.00  0.00    +0.000 OA
ATOM     10  H   UNL     1       3.659   6.696  16.192  0.00  0.00    +0.000 HD
ENDBRANCH   3   9
BRANCH   4  11
ATOM     11  C   UNL     1       3.094   4.422  17.378  0.00  0.00    +0.000 C 
BRANCH  11  12
ATOM     12  C   UNL     1       1.593   4.330  17.700  0.00  0.00    +0.000 C 
BRANCH  12  13
ATOM     13  C   UNL     1       1.224   3.070  18.515  0.00  0.00    +0.000 C 
ATOM     14  C   UNL     1       2.309   1.994  18.464  0.00  0.00    +0.000 C 
ATOM     15  C   UNL     1       0.960   3.457  19.974  0.00  0.00    +0.000 C 
ENDBRANCH  12  13
ENDBRANCH  11  12
ENDBRANCH   4  11
TORSDOF 4
ENDMDL
MODEL 2
REMARK VINA RESULT:      -6.0      1.962      2.656
REMARK  Name = 
REMARK  8 active torsions:
REMARK  status: ('A' for Active; 'I' for Inactive)
REMARK    1  A    between atoms: C_1  and  C_2
REMARK    2  A    between atoms: C_3  and  O_4
REMARK    3  A    between atoms: C_5  and  C_6
REMARK    4  A    between atoms: C_5  and  C_7
REMARK    5  A    between atoms: C_7  and  C_8
REMARK    6  A    between atoms: C_8  and  C_9
REMARK    7  A    between atoms: C_9  and  C_10
REMARK    8  A    between atoms: C_9  and  C_11
REMARK                            x       y       z     vdW  Elec       q    Type
REMARK                         _______ _______ _______ _____ _____    ______ ____
ROOT
ATOM      1  C   UNL     1       7.891   5.836  19.333  0.00  0.00    +0.000 C 
ATOM      2  C   UNL     1       6.827   5.667  18.305  0.00  0.00    +0.000 C 
ATOM      3  C   UNL     1       5.938   4.675  18.127  0.00  0.00    +0.000 C 
ATOM      4  C   UNL     1       4.985   4.773  16.949  0.00  0.00    +0.000 C 
ATOM      5  C   UNL     1       5.412   3.800  15.839  0.00  0.00    +0.000 C 
ATOM      6  S   UNL     1       5.254   6.470  16.301  0.00  0.00    +0.000 S 
ATOM      7  C   UNL     1       6.679   6.718  17.281  0.00  0.00    +0.000 C 
ATOM      8  O   UNL     1       7.453   7.649  17.131  0.00  0.00    +0.000 OA
ENDROOT
BRANCH   3   9
ATOM      9  O   UNL     1       5.840   3.553  18.915  0.00  0.00    +0.000 OA
ATOM     10  H   UNL     1       5.528   2.800  18.382  0.00  0.00    +0.000 HD
ENDBRANCH   3   9
BRANCH   4  11
ATOM     11  C   UNL     1       3.501   4.518  17.312  0.00  0.00    +0.000 C 
BRANCH  11  12
ATOM     12  C   UNL     1       2.884   5.415  18.399  0.00  0.00    +0.000 C 
BRANCH  12  13
ATOM     13  C   UNL     1       1.760   4.717  19.196  0.00  0.00    +0.000 C 
ATOM     14  C   UNL     1       1.389   3.349  18.620  0.00  0.00    +0.000 C 
ATOM     15  C   UNL     1       2.186   4.555  20.659  0.00  0.00    +0.000 C 
ENDBRANCH  12  13
ENDBRANCH  11  12
ENDBRANCH   4  11
TORSDOF 4
ENDMDL
MODEL 3
REMARK VINA RESULT:      -5.9      2.009      2.416
REMARK  Name = 
REMARK  8 active torsions:
REMARK  status: ('A' for Active; 'I' for Inactive)
REMARK    1  A    between atoms: C_1  and  C_2
REMARK    2  A    between atoms: C_3  and  O_4
REMARK    3  A    between atoms: C_5  and  C_6
REMARK    4  A    between atoms: C_5  and  C_7
REMARK    5  A    between atoms: C_7  and  C_8
REMARK    6  A    between atoms: C_8  and  C_9
REMARK    7  A    between atoms: C_9  and  C_10
REMARK    8  A    between atoms: C_9  and  C_11
REMARK                            x       y       z     vdW  Elec       q    Type
REMARK                         _______ _______ _______ _____ _____    ______ ____
ROOT
ATOM      1  C   UNL     1       5.871   3.772  15.244  0.00  0.00    +0.000 C 
ATOM      2  C   UNL     1       5.503   4.258  16.603  0.00  0.00    +0.000 C 
ATOM      3  C   UNL     1       4.327   4.218  17.253  0.00  0.00    +0.000 C 
ATOM      4  C   UNL     1       4.256   4.833  18.639  0.00  0.00    +0.000 C 
ATOM      5  C   UNL     1       3.515   6.179  18.585  0.00  0.00    +0.000 C 
ATOM      6  S   UNL     1       6.006   5.208  19.048  0.00  0.00    +0.000 S 
ATOM      7  C   UNL     1       6.550   4.905  17.415  0.00  0.00    +0.000 C 
ATOM      8  O   UNL     1       7.660   5.197  17.004  0.00  0.00    +0.000 OA
ENDROOT
BRANCH   3   9
ATOM      9  O   UNL     1       3.164   3.687  16.748  0.00  0.00    +0.000 OA
ATOM     10  H   UNL     1       3.038   2.783  17.085  0.00  0.00    +0.000 HD
ENDBRANCH   3   9
BRANCH   4  11
ATOM     11  C   UNL     1       3.592   3.924  19.703  0.00  0.00    +0.000 C 
BRANCH  11  12
ATOM     12  C   UNL     1       2.457   4.539  20.538  0.00  0.00    +0.000 C 
BRANCH  12  13
ATOM     13  C   UNL     1       1.216   3.626  20.642  0.00  0.00    +0.000 C 
ATOM     14  C   UNL     1       0.869   2.947  19.315  0.00  0.00    +0.000 C 
ATOM     15  C   UNL     1       1.448   2.556  21.714  0.00  0.00    +0.000 C 
ENDBRANCH  12  13
ENDBRANCH  11  12
ENDBRANCH   4  11
TORSDOF 4
ENDMDL
MODEL 4
REMARK VINA RESULT:      -5.9      2.213      2.998
REMARK  Name = 
REMARK  8 active torsions:
REMARK  status: ('A' for Active; 'I' for Inactive)
REMARK    1  A    between atoms: C_1  and  C_2
REMARK    2  A    between atoms: C_3  and  O_4
REMARK    3  A    between atoms: C_5  and  C_6
REMARK    4  A    between atoms: C_5  and  C_7
REMARK    5  A    between atoms: C_7  and  C_8
REMARK    6  A    between atoms: C_8  and  C_9
REMARK    7  A    between atoms: C_9  and  C_10
REMARK    8  A    between atoms: C_9  and  C_11
REMARK                            x       y       z     vdW  Elec       q    Type
REMARK                         _______ _______ _______ _____ _____    ______ ____
ROOT
ATOM      1  C   UNL     1       6.065   3.835  15.568  0.00  0.00    +0.000 C 
ATOM      2  C   UNL     1       5.092   4.500  16.480  0.00  0.00    +0.000 C 
ATOM      3  C   UNL     1       4.270   3.978  17.406  0.00  0.00    +0.000 C 
ATOM      4  C   UNL     1       3.358   4.925  18.166  0.00  0.00    +0.000 C 
ATOM      5  C   UNL     1       1.914   4.794  17.655  0.00  0.00    +0.000 C 
ATOM      6  S   UNL     1       3.945   6.594  17.676  0.00  0.00    +0.000 S 
ATOM      7  C   UNL     1       4.954   5.966  16.396  0.00  0.00    +0.000 C 
ATOM      8  O   UNL     1       5.477   6.660  15.540  0.00  0.00    +0.000 OA
ENDROOT
BRANCH   3   9
ATOM      9  O   UNL     1       4.164   2.640  17.704  0.00  0.00    +0.000 OA
ATOM     10  H   UNL     1       4.954   2.167  17.388  0.00  0.00    +0.000 HD
ENDBRANCH   3   9
BRANCH   4  11
ATOM     11  C   UNL     1       3.379   4.728  19.702  0.00  0.00    +0.000 C 
BRANCH  11  12
ATOM     12  C   UNL     1       2.050   4.922  20.449  0.00  0.00    +0.000 C 
BRANCH  12  13
ATOM     13  C   UNL     1       1.462   3.601  20.995  0.00  0.00    +0.000 C 
ATOM     14  C   UNL     1       0.720   2.798  19.925  0.00  0.00    +0.000 C 
ATOM     15  C   UNL     1       2.583   2.742  21.589  0.00  0.00    +0.000 C 
ENDBRANCH  12  13
ENDBRANCH  11  12
ENDBRANCH   4  11
TORSDOF 4
ENDMDL
MODEL 5
REMARK VINA RESULT:      -5.9      2.807      4.943
REMARK  Name = 
REMARK  8 active torsions:
REMARK  status: ('A' for Active; 'I' for Inactive)
REMARK    1  A    between atoms: C_1  and  C_2
REMARK    2  A    between atoms: C_3  and  O_4
REMARK    3  A    between atoms: C_5  and  C_6
REMARK    4  A    between atoms: C_5  and  C_7
REMARK    5  A    between atoms: C_7  and  C_8
REMARK    6  A    between atoms: C_8  and  C_9
REMARK    7  A    between atoms: C_9  and  C_10
REMARK    8  A    between atoms: C_9  and  C_11
REMARK                            x       y       z     vdW  Elec       q    Type
REMARK                         _______ _______ _______ _____ _____    ______ ____
ROOT
ATOM      1  C   UNL     1       2.440   2.654  21.386  0.00  0.00    +0.000 C 
ATOM      2  C   UNL     1       3.042   3.533  20.346  0.00  0.00    +0.000 C 
ATOM      3  C   UNL     1       4.134   3.357  19.582  0.00  0.00    +0.000 C 
ATOM      4  C   UNL     1       4.519   4.465  18.619  0.00  0.00    +0.000 C 
ATOM      5  C   UNL     1       5.736   5.236  19.155  0.00  0.00    +0.000 C 
ATOM      6  S   UNL     1       3.092   5.618  18.677  0.00  0.00    +0.000 S 
ATOM      7  C   UNL     1       2.388   4.825  20.066  0.00  0.00    +0.000 C 
ATOM      8  O   UNL     1       1.469   5.289  20.720  0.00  0.00    +0.000 OA
ENDROOT
BRANCH   3   9
ATOM      9  O   UNL     1       4.957   2.256  19.625  0.00  0.00    +0.000 OA
ATOM     10  H   UNL     1       4.912   1.775  18.780  0.00  0.00    +0.000 HD
ENDBRANCH   3   9
BRANCH   4  11
ATOM     11  C   UNL     1       4.814   3.977  17.178  0.00  0.00    +0.000 C 
BRANCH  11  12
ATOM     12  C   UNL     1       6.244   4.182  16.651  0.00  0.00    +0.000 C 
BRANCH  12  13
ATOM     13  C   UNL     1       6.296   4.980  15.329  0.00  0.00    +0.000 C 
ATOM     14  C   UNL     1       5.975   4.119  14.107  0.00  0.00    +0.000 C 
ATOM     15  C   UNL     1       5.315   6.155  15.396  0.00  0.00    +0.000 C 
ENDBRANCH  12  13
ENDBRANCH  11  12
ENDBRANCH   4  11
TORSDOF 4
ENDMDL
MODEL 6
REMARK VINA RESULT:      -5.9      2.005      3.038
REMARK  Name = 
REMARK  8 active torsions:
REMARK  status: ('A' for Active; 'I' for Inactive)
REMARK    1  A    between atoms: C_1  and  C_2
REMARK    2  A    between atoms: C_3  and  O_4
REMARK    3  A    between atoms: C_5  and  C_6
REMARK    4  A    between atoms: C_5  and  C_7
REMARK    5  A    between atoms: C_7  and  C_8
REMARK    6  A    between atoms: C_8  and  C_9
REMARK    7  A    between atoms: C_9  and  C_10
REMARK    8  A    between atoms: C_9  and  C_11
REMARK                            x       y       z     vdW  Elec       q    Type
REMARK                         _______ _______ _______ _____ _____    ______ ____
ROOT
ATOM      1  C   UNL     1       7.877   5.834  19.309  0.00  0.00    +0.000 C 
ATOM      2  C   UNL     1       6.731   5.712  18.365  0.00  0.00    +0.000 C 
ATOM      3  C   UNL     1       5.779   4.769  18.268  0.00  0.00    +0.000 C 
ATOM      4  C   UNL     1       4.747   4.906  17.164  0.00  0.00    +0.000 C 
ATOM      5  C   UNL     1       5.037   3.900  16.038  0.00  0.00    +0.000 C 
ATOM      6  S   UNL     1       5.057   6.579  16.473  0.00  0.00    +0.000 S 
ATOM      7  C   UNL     1       6.563   6.760  17.340  0.00  0.00    +0.000 C 
ATOM      8  O   UNL     1       7.372   7.646  17.120  0.00  0.00    +0.000 OA
ENDROOT
BRANCH   3   9
ATOM      9  O   UNL     1       5.681   3.661  19.077  0.00  0.00    +0.000 OA
ATOM     10  H   UNL     1       6.484   3.574  19.619  0.00  0.00    +0.000 HD
ENDBRANCH   3   9
BRANCH   4  11
ATOM     11  C   UNL     1       3.283   4.736  17.641  0.00  0.00    +0.000 C 
BRANCH  11  12
ATOM     12  C   UNL     1       2.598   5.973  18.245  0.00  0.00    +0.000 C 
BRANCH  12  13
ATOM     13  C   UNL     1       2.554   5.949  19.789  0.00  0.00    +0.000 C 
ATOM     14  C   UNL     1       1.946   7.221  20.383  0.00  0.00    +0.000 C 
ATOM     15  C   UNL     1       1.753   4.733  20.266  0.00  0.00    +0.000 C 
ENDBRANCH  12  13
ENDBRANCH  11  12
ENDBRANCH   4  11
TORSDOF 4
ENDMDL
MODEL 7
REMARK VINA RESULT:      -5.9      3.383      4.729
REMARK  Name = 
REMARK  8 active torsions:
REMARK  status: ('A' for Active; 'I' for Inactive)
REMARK    1  A    between atoms: C_1  and  C_2
REMARK    2  A    between atoms: C_3  and  O_4
REMARK    3  A    between atoms: C_5  and  C_6
REMARK    4  A    between atoms: C_5  and  C_7
REMARK    5  A    between atoms: C_7  and  C_8
REMARK    6  A    between atoms: C_8  and  C_9
REMARK    7  A    between atoms: C_9  and  C_10
REMARK    8  A    between atoms: C_9  and  C_11
REMARK                            x       y       z     vdW  Elec       q    Type
REMARK                         _______ _______ _______ _____ _____    ______ ____
ROOT
ATOM      1  C   UNL     1       7.912   5.504  19.292  0.00  0.00    +0.000 C 
ATOM      2  C   UNL     1       6.919   5.351  18.193  0.00  0.00    +0.000 C 
ATOM      3  C   UNL     1       6.871   5.920  16.977  0.00  0.00    +0.000 C 
ATOM      4  C   UNL     1       5.695   5.585  16.076  0.00  0.00    +0.000 C 
ATOM      5  C   UNL     1       4.712   6.765  16.025  0.00  0.00    +0.000 C 
ATOM      6  S   UNL     1       4.839   4.219  16.956  0.00  0.00    +0.000 S 
ATOM      7  C   UNL     1       5.773   4.449  18.415  0.00  0.00    +0.000 C 
ATOM      8  O   UNL     1       5.504   3.925  19.483  0.00  0.00    +0.000 OA
ENDROOT
BRANCH   3   9
ATOM      9  O   UNL     1       7.793   6.816  16.488  0.00  0.00    +0.000 OA
ATOM     10  H   UNL     1       7.359   7.438  15.878  0.00  0.00    +0.000 HD
ENDBRANCH   3   9
BRANCH   4  11
ATOM     11  C   UNL     1       6.096   5.186  14.634  0.00  0.00    +0.000 C 
BRANCH  11  12
ATOM     12  C   UNL     1       5.940   3.706  14.250  0.00  0.00    +0.000 C 
BRANCH  12  13
ATOM     13  C   UNL     1       6.232   3.431  12.758  0.00  0.00    +0.000 C 
ATOM     14  C   UNL     1       4.966   3.429  11.899  0.00  0.00    +0.000 C 
ATOM     15  C   UNL     1       7.209   4.482  12.220  0.00  0.00    +0.000 C 
ENDBRANCH  12  13
ENDBRANCH  11  12
ENDBRANCH   4  11
TORSDOF 4
ENDMDL
MODEL 8
REMARK VINA RESULT:      -5.9      1.189      1.189
REMARK  Name = 
REMARK  8 active torsions:
REMARK  status: ('A' for Active; 'I' for Inactive)
REMARK    1  A    between atoms: C_1  and  C_2
REMARK    2  A    between atoms: C_3  and  O_4
REMARK    3  A    between atoms: C_5  and  C_6
REMARK    4  A    between atoms: C_5  and  C_7
REMARK    5  A    between atoms: C_7  and  C_8
REMARK    6  A    between atoms: C_8  and  C_9
REMARK    7  A    between atoms: C_9  and  C_10
REMARK    8  A    between atoms: C_9  and  C_11
REMARK                            x       y       z     vdW  Elec       q    Type
REMARK                         _______ _______ _______ _____ _____    ______ ____
ROOT
ATOM      1  C   UNL     1       7.728   4.586  17.282  0.00  0.00    +0.000 C 
ATOM      2  C   UNL     1       6.325   4.814  17.728  0.00  0.00    +0.000 C 
ATOM      3  C   UNL     1       5.177   4.809  17.029  0.00  0.00    +0.000 C 
ATOM      4  C   UNL     1       3.888   5.112  17.772  0.00  0.00    +0.000 C 
ATOM      5  C   UNL     1       3.404   6.532  17.438  0.00  0.00    +0.000 C 
ATOM      6  S   UNL     1       4.386   5.122  19.539  0.00  0.00    +0.000 S 
ATOM      7  C   UNL     1       6.090   5.105  19.155  0.00  0.00    +0.000 C 
ATOM      8  O   UNL     1       6.973   5.309  19.971  0.00  0.00    +0.000 OA
ENDROOT
BRANCH   3   9
ATOM      9  O   UNL     1       5.077   4.581  15.677  0.00  0.00    +0.000 OA
ATOM     10  H   UNL     1       5.540   3.757  15.445  0.00  0.00    +0.000 HD
ENDBRANCH   3   9
BRANCH   4  11
ATOM     11  C   UNL     1       2.746   4.102  17.495  0.00  0.00    +0.000 C 
BRANCH  11  12
ATOM     12  C   UNL     1       1.427   4.314  18.256  0.00  0.00    +0.000 C 
BRANCH  12  13
ATOM     13  C   UNL     1       1.076   3.144  19.201  0.00  0.00    +0.000 C 
ATOM     14  C   UNL     1       2.021   1.952  19.042  0.00  0.00    +0.000 C 
ATOM     15  C   UNL     1       1.106   3.626  20.656  0.00  0.00    +0.000 C 
ENDBRANCH  12  13
ENDBRANCH  11  12
ENDBRANCH   4  11
TORSDOF 4
ENDMDL
MODEL 9
REMARK VINA RESULT:      -5.8      2.815      5.091
REMARK  Name = 
REMARK  8 active torsions:
REMARK  status: ('A' for Active; 'I' for Inactive)
REMARK    1  A    between atoms: C_1  and  C_2
REMARK    2  A    between atoms: C_3  and  O_4
REMARK    3  A    between atoms: C_5  and  C_6
REMARK    4  A    between atoms: C_5  and  C_7
REMARK    5  A    between atoms: C_7  and  C_8
REMARK    6  A    between atoms: C_8  and  C_9
REMARK    7  A    between atoms: C_9  and  C_10
REMARK    8  A    between atoms: C_9  and  C_11
REMARK                            x       y       z     vdW  Elec       q    Type
REMARK                         _______ _______ _______ _____ _____    ______ ____
ROOT
ATOM      1  C   UNL     1       2.155   2.660  21.543  0.00  0.00    +0.000 C 
ATOM      2  C   UNL     1       2.802   3.447  20.456  0.00  0.00    +0.000 C 
ATOM      3  C   UNL     1       3.804   3.120  19.623  0.00  0.00    +0.000 C 
ATOM      4  C   UNL     1       4.273   4.165  18.626  0.00  0.00    +0.000 C 
ATOM      5  C   UNL     1       5.619   4.759  19.073  0.00  0.00    +0.000 C 
ATOM      6  S   UNL     1       3.027   5.506  18.769  0.00  0.00    +0.000 S 
ATOM      7  C   UNL     1       2.316   4.818  20.210  0.00  0.00    +0.000 C 
ATOM      8  O   UNL     1       1.517   5.404  20.920  0.00  0.00    +0.000 OA
ENDROOT
BRANCH   3   9
ATOM      9  O   UNL     1       4.467   1.916  19.620  0.00  0.00    +0.000 OA
ATOM     10  H   UNL     1       4.538   1.579  18.711  0.00  0.00    +0.000 HD
ENDBRANCH   3   9
BRANCH   4  11
ATOM     11  C   UNL     1       4.400   3.642  17.174  0.00  0.00    +0.000 C 
BRANCH  11  12
ATOM     12  C   UNL     1       5.714   3.944  16.435  0.00  0.00    +0.000 C 
BRANCH  12  13
ATOM     13  C   UNL     1       5.526   4.877  15.218  0.00  0.00    +0.000 C 
ATOM     14  C   UNL     1       5.242   6.325  15.623  0.00  0.00    +0.000 C 
ATOM     15  C   UNL     1       6.777   4.832  14.333  0.00  0.00    +0.000 C 
ENDBRANCH  12  13
ENDBRANCH  11  12
ENDBRANCH   4  11
TORSDOF 4
ENDMDL
