MODEL 1
REMARK VINA RESULT:      -8.6      0.000      0.000
REMARK  Name = 
REMARK  5 active torsions:
REMARK  status: ('A' for Active; 'I' for Inactive)
REMARK    1  A    between atoms: C_1  and  N_2
REMARK    2  A    between atoms: C_4  and  C_5
REMARK    3  A    between atoms: C_5  and  C_7
REMARK    4  A    between atoms: N_9  and  C_10
REMARK    5  A    between atoms: C_15  and  O_16
REMARK                            x       y       z     vdW  Elec       q    Type
REMARK                         _______ _______ _______ _____ _____    ______ ____
ROOT
ATOM      1  C   UNL     1       1.362   9.011  19.657  0.00  0.00    +0.000 C 
ATOM      2  O   UNL     1       1.097   8.913  20.850  0.00  0.00    +0.000 OA
ATOM      3  N   UNL     1       2.003   8.058  18.879  0.00  0.00    +0.000 N 
ATOM      4  H   UNL     1       2.479   8.419  18.059  0.00  0.00    +0.000 HD
ENDROOT
BRANCH   3   5
ATOM      5  C   UNL     1       2.379   6.794  19.392  0.00  0.00    +0.000 A 
ATOM      6  C   UNL     1       1.652   6.268  20.466  0.00  0.00    +0.000 A 
ATOM      7  C   UNL     1       1.942   5.001  20.956  0.00  0.00    +0.000 A 
ATOM      8  C   UNL     1       2.970   4.254  20.382  0.00  0.00    +0.000 A 
ATOM      9  C   UNL     1       3.747   4.758  19.313  0.00  0.00    +0.000 A 
ATOM     10  C   UNL     1       4.832   4.052  18.733  0.00  0.00    +0.000 A 
ATOM     11  C   UNL     1       5.612   4.603  17.720  0.00  0.00    +0.000 A 
ATOM     12  C   UNL     1       5.335   5.878  17.252  0.00  0.00    +0.000 A 
ATOM     13  C   UNL     1       4.262   6.590  17.787  0.00  0.00    +0.000 A 
ATOM     14  C   UNL     1       3.441   6.056  18.807  0.00  0.00    +0.000 A 
BRANCH  10  15
ATOM     15  O   UNL     1       5.221   2.793  19.117  0.00  0.00    +0.000 OA
ATOM     16  H   UNL     1       6.093   2.591  18.748  0.00  0.00    +0.000 HD
ENDBRANCH  10  15
ENDBRANCH   3   5
BRANCH   1  17
ATOM     17  C   UNL     1       1.029  10.305  18.899  0.00  0.00    +0.000 C 
ATOM     18  O   UNL     1       1.902  10.758  18.157  0.00  0.00    +0.000 OA
BRANCH  17  22
ATOM     19  C   UNL     1      -2.711  13.087  20.646  0.00  0.00    +0.000 C 
ATOM     20  N   UNL     1      -1.991  12.131  19.833  0.00  0.00    +0.000 N 
ATOM     21  C   UNL     1      -0.688  11.768  20.036  0.00  0.00    +0.000 A 
ATOM     22  C   UNL     1      -0.314  10.891  19.033  0.00  0.00    +0.000 A 
ATOM     23  C   UNL     1      -1.470  10.685  18.217  0.00  0.00    +0.000 A 
ATOM     24  C   UNL     1      -1.746   9.908  17.071  0.00  0.00    +0.000 A 
ATOM     25  C   UNL     1      -3.022   9.941  16.492  0.00  0.00    +0.000 A 
ATOM     26  C   UNL     1      -4.024  10.740  17.033  0.00  0.00    +0.000 A 
ATOM     27  C   UNL     1      -3.785  11.522  18.165  0.00  0.00    +0.000 A 
ATOM     28  C   UNL     1      -2.502  11.476  18.740  0.00  0.00    +0.000 A 
ENDBRANCH  17  22
ENDBRANCH   1  17
TORSDOF 4
ENDMDL
MODEL 2
REMARK VINA RESULT:      -8.6      1.739      2.914
REMARK  Name = 
REMARK  5 active torsions:
REMARK  status: ('A' for Active; 'I' for Inactive)
REMARK    1  A    between atoms: C_1  and  N_2
REMARK    2  A    between atoms: C_4  and  C_5
REMARK    3  A    between atoms: C_5  and  C_7
REMARK    4  A    between atoms: N_9  and  C_10
REMARK    5  A    between atoms: C_15  and  O_16
REMARK                            x       y       z     vdW  Elec       q    Type
REMARK                         _______ _______ _______ _____ _____    ______ ____
ROOT
ATOM      1  C   UNL     1       1.940   7.913  19.715  0.00  0.00    +0.000 C 
ATOM      2  O   UNL     1       2.045   8.191  18.526  0.00  0.00    +0.000 OA
ATOM      3  N   UNL     1       2.419   6.767  20.335  0.00  0.00    +0.000 N 
ATOM      4  H   UNL     1       1.940   6.506  21.189  0.00  0.00    +0.000 HD
ENDROOT
BRANCH   3   5
ATOM      5  C   UNL     1       3.163   5.787  19.636  0.00  0.00    +0.000 A 
ATOM      6  C   UNL     1       4.421   6.139  19.133  0.00  0.00    +0.000 A 
ATOM      7  C   UNL     1       5.215   5.188  18.502  0.00  0.00    +0.000 A 
ATOM      8  C   UNL     1       4.750   3.882  18.358  0.00  0.00    +0.000 A 
ATOM      9  C   UNL     1       3.475   3.490  18.828  0.00  0.00    +0.000 A 
ATOM     10  C   UNL     1       2.945   2.185  18.661  0.00  0.00    +0.000 A 
ATOM     11  C   UNL     1       1.663   1.851  19.086  0.00  0.00    +0.000 A 
ATOM     12  C   UNL     1       0.865   2.809  19.692  0.00  0.00    +0.000 A 
ATOM     13  C   UNL     1       1.363   4.095  19.890  0.00  0.00    +0.000 A 
ATOM     14  C   UNL     1       2.666   4.466  19.484  0.00  0.00    +0.000 A 
BRANCH  10  15
ATOM     15  O   UNL     1       3.623   1.153  18.061  0.00  0.00    +0.000 OA
ATOM     16  H   UNL     1       4.125   1.485  17.303  0.00  0.00    +0.000 HD
ENDBRANCH  10  15
ENDBRANCH   3   5
BRANCH   1  17
ATOM     17  C   UNL     1       1.173   8.850  20.660  0.00  0.00    +0.000 C 
ATOM     18  O   UNL     1       1.039   8.480  21.827  0.00  0.00    +0.000 OA
BRANCH  17  22
ATOM     19  C   UNL     1       0.855  13.776  20.011  0.00  0.00    +0.000 C 
ATOM     20  N   UNL     1       0.561  12.365  19.884  0.00  0.00    +0.000 N 
ATOM     21  C   UNL     1       1.197  11.376  20.582  0.00  0.00    +0.000 A 
ATOM     22  C   UNL     1       0.708  10.153  20.158  0.00  0.00    +0.000 A 
ATOM     23  C   UNL     1      -0.307  10.432  19.189  0.00  0.00    +0.000 A 
ATOM     24  C   UNL     1      -1.177   9.637  18.411  0.00  0.00    +0.000 A 
ATOM     25  C   UNL     1      -2.073  10.244  17.521  0.00  0.00    +0.000 A 
ATOM     26  C   UNL     1      -2.112  11.628  17.390  0.00  0.00    +0.000 A 
ATOM     27  C   UNL     1      -1.265  12.444  18.142  0.00  0.00    +0.000 A 
ATOM     28  C   UNL     1      -0.374  11.823  19.036  0.00  0.00    +0.000 A 
ENDBRANCH  17  22
ENDBRANCH   1  17
TORSDOF 4
ENDMDL
MODEL 3
REMARK VINA RESULT:      -8.6      2.366      8.059
REMARK  Name = 
REMARK  5 active torsions:
REMARK  status: ('A' for Active; 'I' for Inactive)
REMARK    1  A    between atoms: C_1  and  N_2
REMARK    2  A    between atoms: C_4  and  C_5
REMARK    3  A    between atoms: C_5  and  C_7
REMARK    4  A    between atoms: N_9  and  C_10
REMARK    5  A    between atoms: C_15  and  O_16
REMARK                            x       y       z     vdW  Elec       q    Type
REMARK                         _______ _______ _______ _____ _____    ______ ____
ROOT
ATOM      1  C   UNL     1       1.857   8.032  19.498  0.00  0.00    +0.000 C 
ATOM      2  O   UNL     1       1.940   7.187  20.382  0.00  0.00    +0.000 OA
ATOM      3  N   UNL     1       1.155   9.227  19.570  0.00  0.00    +0.000 N 
ATOM      4  H   UNL     1       0.867   9.614  18.678  0.00  0.00    +0.000 HD
ENDROOT
BRANCH   3   5
ATOM      5  C   UNL     1       0.484   9.638  20.747  0.00  0.00    +0.000 A 
ATOM      6  C   UNL     1       0.803   9.002  21.952  0.00  0.00    +0.000 A 
ATOM      7  C   UNL     1       0.220   9.421  23.142  0.00  0.00    +0.000 A 
ATOM      8  C   UNL     1      -0.697  10.471  23.133  0.00  0.00    +0.000 A 
ATOM      9  C   UNL     1      -1.068  11.123  21.934  0.00  0.00    +0.000 A 
ATOM     10  C   UNL     1      -2.031  12.163  21.874  0.00  0.00    +0.000 A 
ATOM     11  C   UNL     1      -2.414  12.744  20.668  0.00  0.00    +0.000 A 
ATOM     12  C   UNL     1      -1.848  12.306  19.481  0.00  0.00    +0.000 A 
ATOM     13  C   UNL     1      -0.884  11.300  19.508  0.00  0.00    +0.000 A 
ATOM     14  C   UNL     1      -0.460  10.697  20.715  0.00  0.00    +0.000 A 
BRANCH  10  15
ATOM     15  O   UNL     1      -2.678  12.674  22.972  0.00  0.00    +0.000 OA
ATOM     16  H   UNL     1      -3.588  12.346  23.000  0.00  0.00    +0.000 HD
ENDBRANCH  10  15
ENDBRANCH   3   5
BRANCH   1  17
ATOM     17  C   UNL     1       2.523   7.790  18.136  0.00  0.00    +0.000 C 
ATOM     18  O   UNL     1       2.417   8.683  17.295  0.00  0.00    +0.000 OA
BRANCH  17  22
ATOM     19  C   UNL     1       6.424   4.793  17.371  0.00  0.00    +0.000 C 
ATOM     20  N   UNL     1       5.057   5.223  17.568  0.00  0.00    +0.000 N 
ATOM     21  C   UNL     1       4.664   6.528  17.679  0.00  0.00    +0.000 A 
ATOM     22  C   UNL     1       3.303   6.560  17.927  0.00  0.00    +0.000 A 
ATOM     23  C   UNL     1       2.854   5.202  17.914  0.00  0.00    +0.000 A 
ATOM     24  C   UNL     1       1.600   4.573  18.082  0.00  0.00    +0.000 A 
ATOM     25  C   UNL     1       1.503   3.177  18.021  0.00  0.00    +0.000 A 
ATOM     26  C   UNL     1       2.635   2.397  17.802  0.00  0.00    +0.000 A 
ATOM     27  C   UNL     1       3.889   2.986  17.633  0.00  0.00    +0.000 A 
ATOM     28  C   UNL     1       3.973   4.389  17.691  0.00  0.00    +0.000 A 
ENDBRANCH  17  22
ENDBRANCH   1  17
TORSDOF 4
ENDMDL
MODEL 4
REMARK VINA RESULT:      -8.6      2.781      3.852
REMARK  Name = 
REMARK  5 active torsions:
REMARK  status: ('A' for Active; 'I' for Inactive)
REMARK    1  A    between atoms: C_1  and  N_2
REMARK    2  A    between atoms: C_4  and  C_5
REMARK    3  A    between atoms: C_5  and  C_7
REMARK    4  A    between atoms: N_9  and  C_10
REMARK    5  A    between atoms: C_15  and  O_16
REMARK                            x       y       z     vdW  Elec       q    Type
REMARK                         _______ _______ _______ _____ _____    ______ ____
ROOT
ATOM      1  C   UNL     1       1.444   8.547  20.185  0.00  0.00    +0.000 C 
ATOM      2  O   UNL     1       0.983   8.869  19.096  0.00  0.00    +0.000 OA
ATOM      3  N   UNL     1       2.183   7.404  20.457  0.00  0.00    +0.000 N 
ATOM      4  H   UNL     1       2.158   7.093  21.421  0.00  0.00    +0.000 HD
ENDROOT
BRANCH   3   5
ATOM      5  C   UNL     1       2.546   6.484  19.445  0.00  0.00    +0.000 A 
ATOM      6  C   UNL     1       3.334   6.938  18.382  0.00  0.00    +0.000 A 
ATOM      7  C   UNL     1       3.772   6.053  17.404  0.00  0.00    +0.000 A 
ATOM      8  C   UNL     1       3.414   4.707  17.477  0.00  0.00    +0.000 A 
ATOM      9  C   UNL     1       2.597   4.211  18.520  0.00  0.00    +0.000 A 
ATOM     10  C   UNL     1       2.171   2.861  18.605  0.00  0.00    +0.000 A 
ATOM     11  C   UNL     1       1.320   2.419  19.615  0.00  0.00    +0.000 A 
ATOM     12  C   UNL     1       0.866   3.311  20.574  0.00  0.00    +0.000 A 
ATOM     13  C   UNL     1       1.283   4.641  20.529  0.00  0.00    +0.000 A 
ATOM     14  C   UNL     1       2.157   5.121  19.527  0.00  0.00    +0.000 A 
BRANCH  10  15
ATOM     15  O   UNL     1       2.533   1.884  17.711  0.00  0.00    +0.000 OA
ATOM     16  H   UNL     1       1.744   1.430  17.382  0.00  0.00    +0.000 HD
ENDBRANCH  10  15
ENDBRANCH   3   5
BRANCH   1  17
ATOM     17  C   UNL     1       1.175   9.416  21.423  0.00  0.00    +0.000 C 
ATOM     18  O   UNL     1       1.487   8.943  22.517  0.00  0.00    +0.000 OA
BRANCH  17  22
ATOM     19  C   UNL     1       0.575  14.012  19.607  0.00  0.00    +0.000 C 
ATOM     20  N   UNL     1       0.385  12.841  20.434  0.00  0.00    +0.000 N 
ATOM     21  C   UNL     1       1.145  11.706  20.357  0.00  0.00    +0.000 A 
ATOM     22  C   UNL     1       0.637  10.774  21.244  0.00  0.00    +0.000 A 
ATOM     23  C   UNL     1      -0.455  11.404  21.920  0.00  0.00    +0.000 A 
ATOM     24  C   UNL     1      -1.357  11.003  22.929  0.00  0.00    +0.000 A 
ATOM     25  C   UNL     1      -2.349  11.888  23.373  0.00  0.00    +0.000 A 
ATOM     26  C   UNL     1      -2.460  13.161  22.824  0.00  0.00    +0.000 A 
ATOM     27  C   UNL     1      -1.586  13.589  21.823  0.00  0.00    +0.000 A 
ATOM     28  C   UNL     1      -0.591  12.694  21.390  0.00  0.00    +0.000 A 
ENDBRANCH  17  22
ENDBRANCH   1  17
TORSDOF 4
ENDMDL
MODEL 5
REMARK VINA RESULT:      -8.4      1.816      3.516
REMARK  Name = 
REMARK  5 active torsions:
REMARK  status: ('A' for Active; 'I' for Inactive)
REMARK    1  A    between atoms: C_1  and  N_2
REMARK    2  A    between atoms: C_4  and  C_5
REMARK    3  A    between atoms: C_5  and  C_7
REMARK    4  A    between atoms: N_9  and  C_10
REMARK    5  A    between atoms: C_15  and  O_16
REMARK                            x       y       z     vdW  Elec       q    Type
REMARK                         _______ _______ _______ _____ _____    ______ ____
ROOT
ATOM      1  C   UNL     1       1.811   8.263  19.148  0.00  0.00    +0.000 C 
ATOM      2  O   UNL     1       1.848   8.497  17.946  0.00  0.00    +0.000 OA
ATOM      3  N   UNL     1       2.259   7.107  19.773  0.00  0.00    +0.000 N 
ATOM      4  H   UNL     1       1.827   6.904  20.667  0.00  0.00    +0.000 HD
ENDROOT
BRANCH   3   5
ATOM      5  C   UNL     1       2.888   6.060  19.058  0.00  0.00    +0.000 A 
ATOM      6  C   UNL     1       3.950   6.379  18.204  0.00  0.00    +0.000 A 
ATOM      7  C   UNL     1       4.641   5.375  17.537  0.00  0.00    +0.000 A 
ATOM      8  C   UNL     1       4.266   4.043  17.711  0.00  0.00    +0.000 A 
ATOM      9  C   UNL     1       3.182   3.678  18.543  0.00  0.00    +0.000 A 
ATOM     10  C   UNL     1       2.739   2.341  18.709  0.00  0.00    +0.000 A 
ATOM     11  C   UNL     1       1.632   2.025  19.492  0.00  0.00    +0.000 A 
ATOM     12  C   UNL     1       0.930   3.033  20.135  0.00  0.00    +0.000 A 
ATOM     13  C   UNL     1       1.353   4.355  20.009  0.00  0.00    +0.000 A 
ATOM     14  C   UNL     1       2.481   4.711  19.233  0.00  0.00    +0.000 A 
BRANCH  10  15
ATOM     15  O   UNL     1       3.332   1.256  18.114  0.00  0.00    +0.000 OA
ATOM     16  H   UNL     1       3.449   1.423  17.168  0.00  0.00    +0.000 HD
ENDBRANCH  10  15
ENDBRANCH   3   5
BRANCH   1  17
ATOM     17  C   UNL     1       1.175   9.277  20.111  0.00  0.00    +0.000 C 
ATOM     18  O   UNL     1       1.448   9.159  21.307  0.00  0.00    +0.000 OA
BRANCH  17  22
ATOM     19  C   UNL     1      -2.759  11.654  18.199  0.00  0.00    +0.000 C 
ATOM     20  N   UNL     1      -1.419  11.418  18.693  0.00  0.00    +0.000 N 
ATOM     21  C   UNL     1      -0.945  10.200  19.093  0.00  0.00    +0.000 A 
ATOM     22  C   UNL     1       0.345  10.362  19.565  0.00  0.00    +0.000 A 
ATOM     23  C   UNL     1       0.673  11.744  19.393  0.00  0.00    +0.000 A 
ATOM     24  C   UNL     1       1.816  12.530  19.657  0.00  0.00    +0.000 A 
ATOM     25  C   UNL     1       1.804  13.902  19.372  0.00  0.00    +0.000 A 
ATOM     26  C   UNL     1       0.671  14.503  18.836  0.00  0.00    +0.000 A 
ATOM     27  C   UNL     1      -0.477  13.757  18.564  0.00  0.00    +0.000 A 
ATOM     28  C   UNL     1      -0.451  12.380  18.849  0.00  0.00    +0.000 A 
ENDBRANCH  17  22
ENDBRANCH   1  17
TORSDOF 4
ENDMDL
MODEL 6
REMARK VINA RESULT:      -8.4      2.636      3.584
REMARK  Name = 
REMARK  5 active torsions:
REMARK  status: ('A' for Active; 'I' for Inactive)
REMARK    1  A    between atoms: C_1  and  N_2
REMARK    2  A    between atoms: C_4  and  C_5
REMARK    3  A    between atoms: C_5  and  C_7
REMARK    4  A    between atoms: N_9  and  C_10
REMARK    5  A    between atoms: C_15  and  O_16
REMARK                            x       y       z     vdW  Elec       q    Type
REMARK                         _______ _______ _______ _____ _____    ______ ____
ROOT
ATOM      1  C   UNL     1       2.224   7.877  18.787  0.00  0.00    +0.000 C 
ATOM      2  O   UNL     1       2.414   7.630  19.972  0.00  0.00    +0.000 OA
ATOM      3  N   UNL     1       2.808   7.225  17.710  0.00  0.00    +0.000 N 
ATOM      4  H   UNL     1       2.859   7.766  16.853  0.00  0.00    +0.000 HD
ENDROOT
BRANCH   3   5
ATOM      5  C   UNL     1       3.675   6.120  17.878  0.00  0.00    +0.000 A 
ATOM      6  C   UNL     1       5.056   6.346  17.858  0.00  0.00    +0.000 A 
ATOM      7  C   UNL     1       5.942   5.301  18.089  0.00  0.00    +0.000 A 
ATOM      8  C   UNL     1       5.453   4.018  18.331  0.00  0.00    +0.000 A 
ATOM      9  C   UNL     1       4.066   3.740  18.333  0.00  0.00    +0.000 A 
ATOM     10  C   UNL     1       3.529   2.441  18.527  0.00  0.00    +0.000 A 
ATOM     11  C   UNL     1       2.160   2.194  18.467  0.00  0.00    +0.000 A 
ATOM     12  C   UNL     1       1.282   3.235  18.211  0.00  0.00    +0.000 A 
ATOM     13  C   UNL     1       1.777   4.527  18.037  0.00  0.00    +0.000 A 
ATOM     14  C   UNL     1       3.159   4.817  18.105  0.00  0.00    +0.000 A 
BRANCH  10  15
ATOM     15  O   UNL     1       4.289   1.324  18.769  0.00  0.00    +0.000 OA
ATOM     16  H   UNL     1       4.576   0.933  17.932  0.00  0.00    +0.000 HD
ENDBRANCH  10  15
ENDBRANCH   3   5
BRANCH   1  17
ATOM     17  C   UNL     1       1.306   9.039  18.380  0.00  0.00    +0.000 C 
ATOM     18  O   UNL     1       0.840   9.011  17.240  0.00  0.00    +0.000 OA
BRANCH  17  22
ATOM     19  C   UNL     1       0.828  13.522  20.492  0.00  0.00    +0.000 C 
ATOM     20  N   UNL     1       0.776  12.086  20.320  0.00  0.00    +0.000 N 
ATOM     21  C   UNL     1       1.251  11.420  19.225  0.00  0.00    +0.000 A 
ATOM     22  C   UNL     1       0.972  10.072  19.373  0.00  0.00    +0.000 A 
ATOM     23  C   UNL     1       0.340   9.924  20.647  0.00  0.00    +0.000 A 
ATOM     24  C   UNL     1      -0.164   8.826  21.379  0.00  0.00    +0.000 A 
ATOM     25  C   UNL     1      -0.752   9.032  22.634  0.00  0.00    +0.000 A 
ATOM     26  C   UNL     1      -0.852  10.312  23.168  0.00  0.00    +0.000 A 
ATOM     27  C   UNL     1      -0.366  11.420  22.471  0.00  0.00    +0.000 A 
ATOM     28  C   UNL     1       0.227  11.200  21.215  0.00  0.00    +0.000 A 
ENDBRANCH  17  22
ENDBRANCH   1  17
TORSDOF 4
ENDMDL
MODEL 7
REMARK VINA RESULT:      -8.4      1.870      3.540
REMARK  Name = 
REMARK  5 active torsions:
REMARK  status: ('A' for Active; 'I' for Inactive)
REMARK    1  A    between atoms: C_1  and  N_2
REMARK    2  A    between atoms: C_4  and  C_5
REMARK    3  A    between atoms: C_5  and  C_7
REMARK    4  A    between atoms: N_9  and  C_10
REMARK    5  A    between atoms: C_15  and  O_16
REMARK                            x       y       z     vdW  Elec       q    Type
REMARK                         _______ _______ _______ _____ _____    ______ ____
ROOT
ATOM      1  C   UNL     1       1.924   8.760  17.877  0.00  0.00    +0.000 C 
ATOM      2  O   UNL     1       0.979   8.156  17.382  0.00  0.00    +0.000 OA
ATOM      3  N   UNL     1       3.148   8.213  18.237  0.00  0.00    +0.000 N 
ATOM      4  H   UNL     1       3.653   8.719  18.956  0.00  0.00    +0.000 HD
ENDROOT
BRANCH   3   5
ATOM      5  C   UNL     1       3.465   6.854  18.001  0.00  0.00    +0.000 A 
ATOM      6  C   UNL     1       4.249   6.536  16.887  0.00  0.00    +0.000 A 
ATOM      7  C   UNL     1       4.642   5.223  16.657  0.00  0.00    +0.000 A 
ATOM      8  C   UNL     1       4.243   4.216  17.535  0.00  0.00    +0.000 A 
ATOM      9  C   UNL     1       3.428   4.489  18.658  0.00  0.00    +0.000 A 
ATOM     10  C   UNL     1       2.961   3.488  19.548  0.00  0.00    +0.000 A 
ATOM     11  C   UNL     1       2.113   3.786  20.611  0.00  0.00    +0.000 A 
ATOM     12  C   UNL     1       1.703   5.094  20.822  0.00  0.00    +0.000 A 
ATOM     13  C   UNL     1       2.161   6.103  19.977  0.00  0.00    +0.000 A 
ATOM     14  C   UNL     1       3.034   5.840  18.896  0.00  0.00    +0.000 A 
BRANCH  10  15
ATOM     15  O   UNL     1       3.276   2.157  19.439  0.00  0.00    +0.000 OA
ATOM     16  H   UNL     1       3.066   1.701  20.266  0.00  0.00    +0.000 HD
ENDBRANCH  10  15
ENDBRANCH   3   5
BRANCH   1  17
ATOM     17  C   UNL     1       1.795  10.254  18.209  0.00  0.00    +0.000 C 
ATOM     18  O   UNL     1       2.535  11.028  17.599  0.00  0.00    +0.000 OA
BRANCH  17  22
ATOM     19  C   UNL     1      -2.171  12.627  20.058  0.00  0.00    +0.000 C 
ATOM     20  N   UNL     1      -1.006  11.772  19.992  0.00  0.00    +0.000 N 
ATOM     21  C   UNL     1      -0.206  11.637  18.891  0.00  0.00    +0.000 A 
ATOM     22  C   UNL     1       0.766  10.691  19.165  0.00  0.00    +0.000 A 
ATOM     23  C   UNL     1       0.562  10.276  20.518  0.00  0.00    +0.000 A 
ATOM     24  C   UNL     1       1.211   9.367  21.383  0.00  0.00    +0.000 A 
ATOM     25  C   UNL     1       0.736   9.180  22.687  0.00  0.00    +0.000 A 
ATOM     26  C   UNL     1      -0.378   9.878  23.142  0.00  0.00    +0.000 A 
ATOM     27  C   UNL     1      -1.045  10.782  22.314  0.00  0.00    +0.000 A 
ATOM     28  C   UNL     1      -0.555  10.966  21.008  0.00  0.00    +0.000 A 
ENDBRANCH  17  22
ENDBRANCH   1  17
TORSDOF 4
ENDMDL
MODEL 8
REMARK VINA RESULT:      -8.3      2.541      3.504
REMARK  Name = 
REMARK  5 active torsions:
REMARK  status: ('A' for Active; 'I' for Inactive)
REMARK    1  A    between atoms: C_1  and  N_2
REMARK    2  A    between atoms: C_4  and  C_5
REMARK    3  A    between atoms: C_5  and  C_7
REMARK    4  A    between atoms: N_9  and  C_10
REMARK    5  A    between atoms: C_15  and  O_16
REMARK                            x       y       z     vdW  Elec       q    Type
REMARK                         _______ _______ _______ _____ _____    ______ ____
ROOT
ATOM      1  C   UNL     1       1.450   8.605  20.143  0.00  0.00    +0.000 C 
ATOM      2  O   UNL     1       1.006   8.916  19.044  0.00  0.00    +0.000 OA
ATOM      3  N   UNL     1       2.178   7.462  20.440  0.00  0.00    +0.000 N 
ATOM      4  H   UNL     1       2.137   7.162  21.408  0.00  0.00    +0.000 HD
ENDROOT
BRANCH   3   5
ATOM      5  C   UNL     1       2.549   6.526  19.446  0.00  0.00    +0.000 A 
ATOM      6  C   UNL     1       3.336   6.967  18.376  0.00  0.00    +0.000 A 
ATOM      7  C   UNL     1       3.781   6.067  17.415  0.00  0.00    +0.000 A 
ATOM      8  C   UNL     1       3.434   4.721  17.512  0.00  0.00    +0.000 A 
ATOM      9  C   UNL     1       2.619   4.237  18.562  0.00  0.00    +0.000 A 
ATOM     10  C   UNL     1       2.204   2.885  18.671  0.00  0.00    +0.000 A 
ATOM     11  C   UNL     1       1.355   2.456  19.687  0.00  0.00    +0.000 A 
ATOM     12  C   UNL     1       0.892   3.361  20.629  0.00  0.00    +0.000 A 
ATOM     13  C   UNL     1       1.299   4.693  20.561  0.00  0.00    +0.000 A 
ATOM     14  C   UNL     1       2.171   5.162  19.551  0.00  0.00    +0.000 A 
BRANCH  10  15
ATOM     15  O   UNL     1       2.574   1.895  17.795  0.00  0.00    +0.000 OA
ATOM     16  H   UNL     1       2.894   2.288  16.971  0.00  0.00    +0.000 HD
ENDBRANCH  10  15
ENDBRANCH   3   5
BRANCH   1  17
ATOM     17  C   UNL     1       1.169   9.492  21.366  0.00  0.00    +0.000 C 
ATOM     18  O   UNL     1       1.752   9.203  22.412  0.00  0.00    +0.000 OA
BRANCH  17  22
ATOM     19  C   UNL     1      -2.668  12.587  22.058  0.00  0.00    +0.000 C 
ATOM     20  N   UNL     1      -1.441  12.040  21.521  0.00  0.00    +0.000 N 
ATOM     21  C   UNL     1      -0.915  10.828  21.872  0.00  0.00    +0.000 A 
ATOM     22  C   UNL     1       0.292  10.664  21.216  0.00  0.00    +0.000 A 
ATOM     23  C   UNL     1       0.471  11.821  20.394  0.00  0.00    +0.000 A 
ATOM     24  C   UNL     1       1.468  12.247  19.489  0.00  0.00    +0.000 A 
ATOM     25  C   UNL     1       1.340  13.480  18.835  0.00  0.00    +0.000 A 
ATOM     26  C   UNL     1       0.239  14.296  19.073  0.00  0.00    +0.000 A 
ATOM     27  C   UNL     1      -0.764  13.907  19.963  0.00  0.00    +0.000 A 
ATOM     28  C   UNL     1      -0.627  12.665  20.609  0.00  0.00    +0.000 A 
ENDBRANCH  17  22
ENDBRANCH   1  17
TORSDOF 4
ENDMDL
MODEL 9
REMARK VINA RESULT:      -8.2      2.091      2.764
REMARK  Name = 
REMARK  5 active torsions:
REMARK  status: ('A' for Active; 'I' for Inactive)
REMARK    1  A    between atoms: C_1  and  N_2
REMARK    2  A    between atoms: C_4  and  C_5
REMARK    3  A    between atoms: C_5  and  C_7
REMARK    4  A    between atoms: N_9  and  C_10
REMARK    5  A    between atoms: C_15  and  O_16
REMARK                            x       y       z     vdW  Elec       q    Type
REMARK                         _______ _______ _______ _____ _____    ______ ____
ROOT
ATOM      1  C   UNL     1       1.629   8.624  18.342  0.00  0.00    +0.000 C 
ATOM      2  O   UNL     1       0.852   8.077  17.568  0.00  0.00    +0.000 OA
ATOM      3  N   UNL     1       2.477   7.989  19.239  0.00  0.00    +0.000 N 
ATOM      4  H   UNL     1       2.753   8.544  20.040  0.00  0.00    +0.000 HD
ENDROOT
BRANCH   3   5
ATOM      5  C   UNL     1       2.576   6.579  19.311  0.00  0.00    +0.000 A 
ATOM      6  C   UNL     1       1.855   5.910  20.307  0.00  0.00    +0.000 A 
ATOM      7  C   UNL     1       1.868   4.522  20.371  0.00  0.00    +0.000 A 
ATOM      8  C   UNL     1       2.613   3.793  19.445  0.00  0.00    +0.000 A 
ATOM      9  C   UNL     1       3.378   4.429  18.439  0.00  0.00    +0.000 A 
ATOM     10  C   UNL     1       4.186   3.727  17.509  0.00  0.00    +0.000 A 
ATOM     11  C   UNL     1       4.970   4.389  16.568  0.00  0.00    +0.000 A 
ATOM     12  C   UNL     1       4.973   5.775  16.524  0.00  0.00    +0.000 A 
ATOM     13  C   UNL     1       4.174   6.493  17.411  0.00  0.00    +0.000 A 
ATOM     14  C   UNL     1       3.354   5.854  18.371  0.00  0.00    +0.000 A 
BRANCH  10  15
ATOM     15  O   UNL     1       4.286   2.359  17.458  0.00  0.00    +0.000 OA
ATOM     16  H   UNL     1       5.217   2.096  17.495  0.00  0.00    +0.000 HD
ENDBRANCH  10  15
ENDBRANCH   3   5
BRANCH   1  17
ATOM     17  C   UNL     1       1.689  10.157  18.419  0.00  0.00    +0.000 C 
ATOM     18  O   UNL     1       2.483  10.725  17.667  0.00  0.00    +0.000 OA
BRANCH  17  22
ATOM     19  C   UNL     1      -1.537  13.573  20.064  0.00  0.00    +0.000 C 
ATOM     20  N   UNL     1      -0.672  12.413  20.051  0.00  0.00    +0.000 N 
ATOM     21  C   UNL     1       0.135  12.061  19.005  0.00  0.00    +0.000 A 
ATOM     22  C   UNL     1       0.763  10.868  19.315  0.00  0.00    +0.000 A 
ATOM     23  C   UNL     1       0.342  10.515  20.636  0.00  0.00    +0.000 A 
ATOM     24  C   UNL     1       0.628   9.445  21.512  0.00  0.00    +0.000 A 
ATOM     25  C   UNL     1       0.019   9.391  22.773  0.00  0.00    +0.000 A 
ATOM     26  C   UNL     1      -0.873  10.381  23.172  0.00  0.00    +0.000 A 
ATOM     27  C   UNL     1      -1.179  11.452  22.330  0.00  0.00    +0.000 A 
ATOM     28  C   UNL     1      -0.558  11.498  21.069  0.00  0.00    +0.000 A 
ENDBRANCH  17  22
ENDBRANCH   1  17
TORSDOF 4
ENDMDL
