MODEL 1
REMARK VINA RESULT:      -6.5      0.000      0.000
REMARK  Name = 
REMARK  2 active torsions:
REMARK  status: ('A' for Active; 'I' for Inactive)
REMARK    1  A    between atoms: N_1  and  N_2
REMARK    2  A    between atoms: C_3  and  C_5
REMARK                            x       y       z     vdW  Elec       q    Type
REMARK                         _______ _______ _______ _____ _____    ______ ____
ROOT
ATOM      1  C   UNL     1       4.441   5.503  17.171  0.00  0.00    +0.000 A 
ATOM      2  S   UNL     1       4.661   3.818  16.911  0.00  0.00    +0.000 S 
ATOM      3  C   UNL     1       3.239   3.399  17.773  0.00  0.00    +0.000 A 
ATOM      4  C   UNL     1       2.716   2.104  17.957  0.00  0.00    +0.000 A 
ATOM      5  C   UNL     1       1.542   1.942  18.693  0.00  0.00    +0.000 A 
ATOM      6  C   UNL     1       0.897   3.045  19.236  0.00  0.00    +0.000 A 
ATOM      7  C   UNL     1       1.420   4.326  19.051  0.00  0.00    +0.000 A 
ATOM      8  C   UNL     1       2.607   4.528  18.301  0.00  0.00    +0.000 A 
ATOM      9  C   UNL     1       3.329   5.731  17.959  0.00  0.00    +0.000 A 
ATOM     10 CL   UNL     1       2.782   7.271  18.504  0.00  0.00    +0.000 Cl
ENDROOT
BRANCH   1  12
ATOM     11  N   UNL     1       6.422   6.854  17.394  0.00  0.00    +0.000 N 
ATOM     12  C   UNL     1       5.394   6.413  16.555  0.00  0.00    +0.000 C 
ATOM     13  O   UNL     1       5.299   6.840  15.402  0.00  0.00    +0.000 OA
ATOM     14  H   UNL     1       6.527   6.442  18.318  0.00  0.00    +0.000 HD
BRANCH  11  15
ATOM     15  N   UNL     1       7.431   7.717  16.907  0.00  0.00    +0.000 NA
ATOM     16  H   UNL     1       8.181   7.159  16.491  0.00  0.00    +0.000 HD
ATOM     17  H   UNL     1       7.848   8.189  17.719  0.00  0.00    +0.000 HD
ENDBRANCH  11  15
ENDBRANCH   1  12
TORSDOF 2
ENDMDL
MODEL 2
REMARK VINA RESULT:      -6.4      2.320      2.521
REMARK  Name = 
REMARK  2 active torsions:
REMARK  status: ('A' for Active; 'I' for Inactive)
REMARK    1  A    between atoms: N_1  and  N_2
REMARK    2  A    between atoms: C_3  and  C_5
REMARK                            x       y       z     vdW  Elec       q    Type
REMARK                         _______ _______ _______ _____ _____    ______ ____
ROOT
ATOM      1  C   UNL     1       5.737   4.595  17.117  0.00  0.00    +0.000 A 
ATOM      2  S   UNL     1       4.350   3.934  16.348  0.00  0.00    +0.000 S 
ATOM      3  C   UNL     1       3.365   4.131  17.738  0.00  0.00    +0.000 A 
ATOM      4  C   UNL     1       1.993   3.824  17.849  0.00  0.00    +0.000 A 
ATOM      5  C   UNL     1       1.343   4.046  19.063  0.00  0.00    +0.000 A 
ATOM      6  C   UNL     1       2.039   4.563  20.148  0.00  0.00    +0.000 A 
ATOM      7  C   UNL     1       3.397   4.864  20.032  0.00  0.00    +0.000 A 
ATOM      8  C   UNL     1       4.088   4.660  18.809  0.00  0.00    +0.000 A 
ATOM      9  C   UNL     1       5.461   4.901  18.436  0.00  0.00    +0.000 A 
ATOM     10 CL   UNL     1       6.586   5.532  19.578  0.00  0.00    +0.000 Cl
ENDROOT
BRANCH   1  12
ATOM     11  N   UNL     1       6.753   5.282  15.045  0.00  0.00    +0.000 N 
ATOM     12  C   UNL     1       6.946   4.744  16.321  0.00  0.00    +0.000 C 
ATOM     13  O   UNL     1       8.065   4.374  16.684  0.00  0.00    +0.000 OA
ATOM     14  H   UNL     1       5.840   5.644  14.786  0.00  0.00    +0.000 HD
BRANCH  11  15
ATOM     15  N   UNL     1       7.852   5.507  14.183  0.00  0.00    +0.000 NA
ATOM     16  H   UNL     1       8.322   4.617  13.997  0.00  0.00    +0.000 HD
ATOM     17  H   UNL     1       8.531   6.083  14.697  0.00  0.00    +0.000 HD
ENDBRANCH  11  15
ENDBRANCH   1  12
TORSDOF 2
ENDMDL
MODEL 3
REMARK VINA RESULT:      -6.4      1.268      1.319
REMARK  Name = 
REMARK  2 active torsions:
REMARK  status: ('A' for Active; 'I' for Inactive)
REMARK    1  A    between atoms: N_1  and  N_2
REMARK    2  A    between atoms: C_3  and  C_5
REMARK                            x       y       z     vdW  Elec       q    Type
REMARK                         _______ _______ _______ _____ _____    ______ ____
ROOT
ATOM      1  C   UNL     1       4.395   5.169  17.043  0.00  0.00    +0.000 A 
ATOM      2  S   UNL     1       4.372   3.468  17.288  0.00  0.00    +0.000 S 
ATOM      3  C   UNL     1       3.094   3.552  18.429  0.00  0.00    +0.000 A 
ATOM      4  C   UNL     1       2.471   2.466  19.077  0.00  0.00    +0.000 A 
ATOM      5  C   UNL     1       1.442   2.716  19.985  0.00  0.00    +0.000 A 
ATOM      6  C   UNL     1       1.037   4.018  20.246  0.00  0.00    +0.000 A 
ATOM      7  C   UNL     1       1.659   5.089  19.602  0.00  0.00    +0.000 A 
ATOM      8  C   UNL     1       2.703   4.871  18.665  0.00  0.00    +0.000 A 
ATOM      9  C   UNL     1       3.481   5.791  17.870  0.00  0.00    +0.000 A 
ATOM     10 CL   UNL     1       3.221   7.491  17.983  0.00  0.00    +0.000 Cl
ENDROOT
BRANCH   1  12
ATOM     11  N   UNL     1       6.507   4.980  15.900  0.00  0.00    +0.000 N 
ATOM     12  C   UNL     1       5.315   5.696  16.047  0.00  0.00    +0.000 C 
ATOM     13  O   UNL     1       5.124   6.732  15.406  0.00  0.00    +0.000 OA
ATOM     14  H   UNL     1       6.621   4.093  16.384  0.00  0.00    +0.000 HD
BRANCH  11  15
ATOM     15  N   UNL     1       7.472   5.371  14.943  0.00  0.00    +0.000 NA
ATOM     16  H   UNL     1       7.061   6.066  14.315  0.00  0.00    +0.000 HD
ATOM     17  H   UNL     1       7.675   4.549  14.360  0.00  0.00    +0.000 HD
ENDBRANCH  11  15
ENDBRANCH   1  12
TORSDOF 2
ENDMDL
MODEL 4
REMARK VINA RESULT:      -6.4      3.976      5.457
REMARK  Name = 
REMARK  2 active torsions:
REMARK  status: ('A' for Active; 'I' for Inactive)
REMARK    1  A    between atoms: N_1  and  N_2
REMARK    2  A    between atoms: C_3  and  C_5
REMARK                            x       y       z     vdW  Elec       q    Type
REMARK                         _______ _______ _______ _____ _____    ______ ____
ROOT
ATOM      1  C   UNL     1       2.735   4.235  19.140  0.00  0.00    +0.000 A 
ATOM      2  S   UNL     1       3.035   5.921  19.003  0.00  0.00    +0.000 S 
ATOM      3  C   UNL     1       4.004   5.734  17.600  0.00  0.00    +0.000 A 
ATOM      4  C   UNL     1       4.606   6.763  16.849  0.00  0.00    +0.000 A 
ATOM      5  C   UNL     1       5.369   6.431  15.729  0.00  0.00    +0.000 A 
ATOM      6  C   UNL     1       5.532   5.102  15.360  0.00  0.00    +0.000 A 
ATOM      7  C   UNL     1       4.933   4.087  16.108  0.00  0.00    +0.000 A 
ATOM      8  C   UNL     1       4.143   4.390  17.248  0.00  0.00    +0.000 A 
ATOM      9  C   UNL     1       3.419   3.539  18.163  0.00  0.00    +0.000 A 
ATOM     10 CL   UNL     1       3.439   1.826  17.975  0.00  0.00    +0.000 Cl
ENDROOT
BRANCH   1  12
ATOM     11  N   UNL     1       2.423   2.935  21.144  0.00  0.00    +0.000 N 
ATOM     12  C   UNL     1       1.844   3.791  20.201  0.00  0.00    +0.000 C 
ATOM     13  O   UNL     1       0.645   4.071  20.262  0.00  0.00    +0.000 OA
ATOM     14  H   UNL     1       3.425   2.767  21.120  0.00  0.00    +0.000 HD
BRANCH  11  15
ATOM     15  N   UNL     1       1.671   2.457  22.242  0.00  0.00    +0.000 NA
ATOM     16  H   UNL     1       0.822   2.003  21.897  0.00  0.00    +0.000 HD
ATOM     17  H   UNL     1       1.356   3.276  22.777  0.00  0.00    +0.000 HD
ENDBRANCH  11  15
ENDBRANCH   1  12
TORSDOF 2
ENDMDL
MODEL 5
REMARK VINA RESULT:      -6.3      1.754      1.829
REMARK  Name = 
REMARK  2 active torsions:
REMARK  status: ('A' for Active; 'I' for Inactive)
REMARK    1  A    between atoms: N_1  and  N_2
REMARK    2  A    between atoms: C_3  and  C_5
REMARK                            x       y       z     vdW  Elec       q    Type
REMARK                         _______ _______ _______ _____ _____    ______ ____
ROOT
ATOM      1  C   UNL     1       5.459   5.048  16.520  0.00  0.00    +0.000 A 
ATOM      2  S   UNL     1       5.307   3.339  16.603  0.00  0.00    +0.000 S 
ATOM      3  C   UNL     1       3.766   3.415  17.351  0.00  0.00    +0.000 A 
ATOM      4  C   UNL     1       2.947   2.324  17.708  0.00  0.00    +0.000 A 
ATOM      5  C   UNL     1       1.716   2.567  18.315  0.00  0.00    +0.000 A 
ATOM      6  C   UNL     1       1.301   3.869  18.565  0.00  0.00    +0.000 A 
ATOM      7  C   UNL     1       2.116   4.945  18.210  0.00  0.00    +0.000 A 
ATOM      8  C   UNL     1       3.372   4.735  17.582  0.00  0.00    +0.000 A 
ATOM      9  C   UNL     1       4.374   5.662  17.113  0.00  0.00    +0.000 A 
ATOM     10 CL   UNL     1       4.154   7.362  17.295  0.00  0.00    +0.000 Cl
ENDROOT
BRANCH   1  12
ATOM     11  N   UNL     1       6.894   5.085  14.585  0.00  0.00    +0.000 N 
ATOM     12  C   UNL     1       6.639   5.591  15.864  0.00  0.00    +0.000 C 
ATOM     13  O   UNL     1       7.419   6.390  16.389  0.00  0.00    +0.000 OA
ATOM     14  H   UNL     1       6.209   4.481  14.140  0.00  0.00    +0.000 HD
BRANCH  11  15
ATOM     15  N   UNL     1       7.994   5.554  13.829  0.00  0.00    +0.000 NA
ATOM     16  H   UNL     1       7.649   6.118  13.048  0.00  0.00    +0.000 HD
ATOM     17  H   UNL     1       8.447   4.734  13.407  0.00  0.00    +0.000 HD
ENDBRANCH  11  15
ENDBRANCH   1  12
TORSDOF 2
ENDMDL
MODEL 6
REMARK VINA RESULT:      -6.2      3.641      5.062
REMARK  Name = 
REMARK  2 active torsions:
REMARK  status: ('A' for Active; 'I' for Inactive)
REMARK    1  A    between atoms: N_1  and  N_2
REMARK    2  A    between atoms: C_3  and  C_5
REMARK                            x       y       z     vdW  Elec       q    Type
REMARK                         _______ _______ _______ _____ _____    ______ ____
ROOT
ATOM      1  C   UNL     1       2.558   3.937  18.886  0.00  0.00    +0.000 A 
ATOM      2  S   UNL     1       3.292   2.956  17.682  0.00  0.00    +0.000 S 
ATOM      3  C   UNL     1       4.133   4.276  16.980  0.00  0.00    +0.000 A 
ATOM      4  C   UNL     1       5.031   4.222  15.895  0.00  0.00    +0.000 A 
ATOM      5  C   UNL     1       5.628   5.400  15.447  0.00  0.00    +0.000 A 
ATOM      6  C   UNL     1       5.342   6.610  16.065  0.00  0.00    +0.000 A 
ATOM      7  C   UNL     1       4.452   6.658  17.139  0.00  0.00    +0.000 A 
ATOM      8  C   UNL     1       3.833   5.477  17.626  0.00  0.00    +0.000 A 
ATOM      9  C   UNL     1       2.905   5.263  18.711  0.00  0.00    +0.000 A 
ATOM     10 CL   UNL     1       2.344   6.584  19.664  0.00  0.00    +0.000 Cl
ENDROOT
BRANCH   1  12
ATOM     11  N   UNL     1       2.304   3.137  21.144  0.00  0.00    +0.000 N 
ATOM     12  C   UNL     1       1.724   3.278  19.879  0.00  0.00    +0.000 C 
ATOM     13  O   UNL     1       0.609   2.806  19.646  0.00  0.00    +0.000 OA
ATOM     14  H   UNL     1       3.193   3.590  21.341  0.00  0.00    +0.000 HD
BRANCH  11  15
ATOM     15  N   UNL     1       1.585   2.541  22.206  0.00  0.00    +0.000 NA
ATOM     16  H   UNL     1       1.324   1.587  21.943  0.00  0.00    +0.000 HD
ATOM     17  H   UNL     1       0.703   3.058  22.306  0.00  0.00    +0.000 HD
ENDBRANCH  11  15
ENDBRANCH   1  12
TORSDOF 2
ENDMDL
MODEL 7
REMARK VINA RESULT:      -6.2      1.261      1.261
REMARK  Name = 
REMARK  2 active torsions:
REMARK  status: ('A' for Active; 'I' for Inactive)
REMARK    1  A    between atoms: N_1  and  N_2
REMARK    2  A    between atoms: C_3  and  C_5
REMARK                            x       y       z     vdW  Elec       q    Type
REMARK                         _______ _______ _______ _____ _____    ______ ____
ROOT
ATOM      1  C   UNL     1       4.566   5.733  17.943  0.00  0.00    +0.000 A 
ATOM      2  S   UNL     1       5.098   4.206  18.522  0.00  0.00    +0.000 S 
ATOM      3  C   UNL     1       3.629   3.898  19.352  0.00  0.00    +0.000 A 
ATOM      4  C   UNL     1       3.297   2.735  20.075  0.00  0.00    +0.000 A 
ATOM      5  C   UNL     1       2.051   2.652  20.695  0.00  0.00    +0.000 A 
ATOM      6  C   UNL     1       1.148   3.704  20.600  0.00  0.00    +0.000 A 
ATOM      7  C   UNL     1       1.483   4.853  19.883  0.00  0.00    +0.000 A 
ATOM      8  C   UNL     1       2.739   4.968  19.232  0.00  0.00    +0.000 A 
ATOM      9  C   UNL     1       3.308   6.026  18.432  0.00  0.00    +0.000 A 
ATOM     10 CL   UNL     1       2.429   7.480  18.142  0.00  0.00    +0.000 Cl
ENDROOT
BRANCH   1  12
ATOM     11  N   UNL     1       6.686   6.831  17.619  0.00  0.00    +0.000 N 
ATOM     12  C   UNL     1       5.456   6.469  17.058  0.00  0.00    +0.000 C 
ATOM     13  O   UNL     1       5.160   6.824  15.915  0.00  0.00    +0.000 OA
ATOM     14  H   UNL     1       6.943   6.474  18.535  0.00  0.00    +0.000 HD
BRANCH  11  15
ATOM     15  N   UNL     1       7.653   7.522  16.853  0.00  0.00    +0.000 NA
ATOM     16  H   UNL     1       7.266   8.421  16.553  0.00  0.00    +0.000 HD
ATOM     17  H   UNL     1       7.807   6.980  15.993  0.00  0.00    +0.000 HD
ENDBRANCH  11  15
ENDBRANCH   1  12
TORSDOF 2
ENDMDL
MODEL 8
REMARK VINA RESULT:      -6.2      1.790      1.796
REMARK  Name = 
REMARK  2 active torsions:
REMARK  status: ('A' for Active; 'I' for Inactive)
REMARK    1  A    between atoms: N_1  and  N_2
REMARK    2  A    between atoms: C_3  and  C_5
REMARK                            x       y       z     vdW  Elec       q    Type
REMARK                         _______ _______ _______ _____ _____    ______ ____
ROOT
ATOM      1  C   UNL     1       4.949   5.517  17.796  0.00  0.00    +0.000 A 
ATOM      2  S   UNL     1       5.227   3.978  18.507  0.00  0.00    +0.000 S 
ATOM      3  C   UNL     1       3.750   4.004  19.378  0.00  0.00    +0.000 A 
ATOM      4  C   UNL     1       3.243   2.984  20.208  0.00  0.00    +0.000 A 
ATOM      5  C   UNL     1       2.018   3.173  20.847  0.00  0.00    +0.000 A 
ATOM      6  C   UNL     1       1.306   4.352  20.665  0.00  0.00    +0.000 A 
ATOM      7  C   UNL     1       1.813   5.358  19.842  0.00  0.00    +0.000 A 
ATOM      8  C   UNL     1       3.053   5.196  19.170  0.00  0.00    +0.000 A 
ATOM      9  C   UNL     1       3.773   6.065  18.269  0.00  0.00    +0.000 A 
ATOM     10 CL   UNL     1       3.148   7.617  17.856  0.00  0.00    +0.000 Cl
ENDROOT
BRANCH   1  12
ATOM     11  N   UNL     1       6.516   5.023  16.034  0.00  0.00    +0.000 N 
ATOM     12  C   UNL     1       5.928   6.006  16.837  0.00  0.00    +0.000 C 
ATOM     13  O   UNL     1       6.289   7.182  16.753  0.00  0.00    +0.000 OA
ATOM     14  H   UNL     1       6.161   4.071  16.067  0.00  0.00    +0.000 HD
BRANCH  11  15
ATOM     15  N   UNL     1       7.461   5.372  15.041  0.00  0.00    +0.000 NA
ATOM     16  H   UNL     1       8.314   4.824  15.180  0.00  0.00    +0.000 HD
ATOM     17  H   UNL     1       7.726   6.352  15.202  0.00  0.00    +0.000 HD
ENDBRANCH  11  15
ENDBRANCH   1  12
TORSDOF 2
ENDMDL
MODEL 9
REMARK VINA RESULT:      -6.1      3.634      4.795
REMARK  Name = 
REMARK  2 active torsions:
REMARK  status: ('A' for Active; 'I' for Inactive)
REMARK    1  A    between atoms: N_1  and  N_2
REMARK    2  A    between atoms: C_3  and  C_5
REMARK                            x       y       z     vdW  Elec       q    Type
REMARK                         _______ _______ _______ _____ _____    ______ ____
ROOT
ATOM      1  C   UNL     1       3.646   4.235  19.083  0.00  0.00    +0.000 A 
ATOM      2  S   UNL     1       3.987   5.131  17.657  0.00  0.00    +0.000 S 
ATOM      3  C   UNL     1       3.150   6.521  18.212  0.00  0.00    +0.000 A 
ATOM      4  C   UNL     1       3.031   7.756  17.544  0.00  0.00    +0.000 A 
ATOM      5  C   UNL     1       2.307   8.787  18.143  0.00  0.00    +0.000 A 
ATOM      6  C   UNL     1       1.712   8.598  19.384  0.00  0.00    +0.000 A 
ATOM      7  C   UNL     1       1.834   7.372  20.041  0.00  0.00    +0.000 A 
ATOM      8  C   UNL     1       2.570   6.305  19.464  0.00  0.00    +0.000 A 
ATOM      9  C   UNL     1       2.851   4.971  19.940  0.00  0.00    +0.000 A 
ATOM     10 CL   UNL     1       2.234   4.428  21.455  0.00  0.00    +0.000 Cl
ENDROOT
BRANCH   1  12
ATOM     11  N   UNL     1       3.716   1.963  18.286  0.00  0.00    +0.000 N 
ATOM     12  C   UNL     1       4.215   2.901  19.196  0.00  0.00    +0.000 C 
ATOM     13  O   UNL     1       5.029   2.565  20.059  0.00  0.00    +0.000 OA
ATOM     14  H   UNL     1       3.099   2.269  17.539  0.00  0.00    +0.000 HD
BRANCH  11  15
ATOM     15  N   UNL     1       4.210   0.638  18.271  0.00  0.00    +0.000 NA
ATOM     16  H   UNL     1       3.427  -0.012  18.169  0.00  0.00    +0.000 HD
ATOM     17  H   UNL     1       4.613   0.452  19.198  0.00  0.00    +0.000 HD
ENDBRANCH  11  15
ENDBRANCH   1  12
TORSDOF 2
ENDMDL
