MODEL 1
REMARK VINA RESULT:      -8.1      0.000      0.000
REMARK  Name = 
REMARK  10 active torsions:
REMARK  status: ('A' for Active; 'I' for Inactive)
REMARK    1  A    between atoms: C_1  and  C_2
REMARK    2  A    between atoms: C_2  and  C_3
REMARK    3  A    between atoms: C_10  and  O_11
REMARK    4  A    between atoms: O_11  and  C_12
REMARK    5  A    between atoms: C_12  and  C_13
REMARK    6  A    between atoms: N_15  and  C_16
REMARK    7  A    between atoms: N_15  and  C_25
REMARK    8  A    between atoms: C_16  and  C_17
REMARK    9  A    between atoms: C_20  and  C_21
REMARK   10  A    between atoms: C_25  and  C_26
REMARK                            x       y       z     vdW  Elec       q    Type
REMARK                         _______ _______ _______ _____ _____    ______ ____
ROOT
ATOM      1  C   UNL     1       1.982   8.594  18.304  0.00  0.00    +0.000 C 
ATOM      2  O   UNL     1       2.232   9.030  17.176  0.00  0.00    +0.000 OA
ATOM      3  N   UNL     1       1.151   9.306  19.179  0.00  0.00    +0.000 N 
ENDROOT
BRANCH   1   4
ATOM      4  C   UNL     1       2.523   7.194  18.715  0.00  0.00    +0.000 C 
BRANCH   4   5
ATOM      5  O   UNL     1       2.076   6.081  17.966  0.00  0.00    +0.000 OA
BRANCH   5  13
ATOM      6  C   UNL     1       3.095   3.761  17.881  0.00  0.00    +0.000 A 
ATOM      7  C   UNL     1       3.062   2.491  18.518  0.00  0.00    +0.000 A 
ATOM      8  F   UNL     1       3.804   1.485  18.027  0.00  0.00    +0.000 F 
ATOM      9  C   UNL     1       2.322   2.236  19.659  0.00  0.00    +0.000 A 
ATOM     10  C   UNL     1       1.586   3.269  20.194  0.00  0.00    +0.000 A 
ATOM     11  F   UNL     1       0.899   3.064  21.327  0.00  0.00    +0.000 F 
ATOM     12  C   UNL     1       1.549   4.520  19.575  0.00  0.00    +0.000 A 
ATOM     13  C   UNL     1       2.286   4.792  18.403  0.00  0.00    +0.000 A 
BRANCH   6  15
ATOM     14  C   UNL     1       5.469   4.313  17.370  0.00  0.00    +0.000 C 
ATOM     15  C   UNL     1       4.133   3.869  16.789  0.00  0.00    +0.000 C 
ENDBRANCH   6  15
ENDBRANCH   5  13
ENDBRANCH   4   5
ENDBRANCH   1   4
BRANCH   3  16
ATOM     16  C   UNL     1       0.711  10.662  18.787  0.00  0.00    +0.000 C 
BRANCH  16  17
ATOM     17  C   UNL     1      -0.766  10.835  18.465  0.00  0.00    +0.000 A 
ATOM     18  C   UNL     1      -1.443   9.876  17.693  0.00  0.00    +0.000 A 
ATOM     19  C   UNL     1      -2.823   9.977  17.467  0.00  0.00    +0.000 A 
ATOM     20  C   UNL     1      -3.512  11.048  18.022  0.00  0.00    +0.000 A 
ATOM     21  N   UNL     1      -2.897  11.978  18.796  0.00  0.00    +0.000 NA
ATOM     22  C   UNL     1      -1.557  11.837  19.016  0.00  0.00    +0.000 A 
BRANCH  20  23
ATOM     23  C   UNL     1      -4.929  11.219  17.794  0.00  0.00    +0.000 C 
ATOM     24  N   UNL     1      -6.084  11.331  17.654  0.00  0.00    +0.000 NA
ENDBRANCH  20  23
ENDBRANCH  16  17
ENDBRANCH   3  16
BRANCH   3  25
ATOM     25  C   UNL     1       0.953   8.932  20.586  0.00  0.00    +0.000 C 
BRANCH  25  26
ATOM     26  C   UNL     1       0.475  10.084  21.400  0.00  0.00    +0.000 A 
ATOM     27  N   UNL     1       1.050  11.248  21.618  0.00  0.00    +0.000 NA
ATOM     28  N   UNL     1       0.161  11.979  22.379  0.00  0.00    +0.000 NA
ATOM     29  C   UNL     1      -0.888  11.213  22.568  0.00  0.00    +0.000 A 
ATOM     30  N   UNL     1      -2.031  11.465  23.210  0.00  0.00    +0.000 N 
ATOM     31  O   UNL     1      -0.771   9.992  21.968  0.00  0.00    +0.000 OA
ATOM     32  H   UNL     1      -2.240  12.438  23.406  0.00  0.00    +0.000 HD
ATOM     33  H   UNL     1      -2.838  10.891  23.007  0.00  0.00    +0.000 HD
ENDBRANCH  25  26
ENDBRANCH   3  25
TORSDOF 9
ENDMDL
MODEL 2
REMARK VINA RESULT:      -7.9      0.968      2.159
REMARK  Name = 
REMARK  10 active torsions:
REMARK  status: ('A' for Active; 'I' for Inactive)
REMARK    1  A    between atoms: C_1  and  C_2
REMARK    2  A    between atoms: C_2  and  C_3
REMARK    3  A    between atoms: C_10  and  O_11
REMARK    4  A    between atoms: O_11  and  C_12
REMARK    5  A    between atoms: C_12  and  C_13
REMARK    6  A    between atoms: N_15  and  C_16
REMARK    7  A    between atoms: N_15  and  C_25
REMARK    8  A    between atoms: C_16  and  C_17
REMARK    9  A    between atoms: C_20  and  C_21
REMARK   10  A    between atoms: C_25  and  C_26
REMARK                            x       y       z     vdW  Elec       q    Type
REMARK                         _______ _______ _______ _____ _____    ______ ____
ROOT
ATOM      1  C   UNL     1       1.929   8.776  18.384  0.00  0.00    +0.000 C 
ATOM      2  O   UNL     1       2.199   9.151  17.239  0.00  0.00    +0.000 OA
ATOM      3  N   UNL     1       1.022   9.491  19.176  0.00  0.00    +0.000 N 
ENDROOT
BRANCH   1   4
ATOM      4  C   UNL     1       2.536   7.443  18.910  0.00  0.00    +0.000 C 
BRANCH   4   5
ATOM      5  O   UNL     1       1.873   6.246  18.556  0.00  0.00    +0.000 OA
BRANCH   5  13
ATOM      6  C   UNL     1       2.346   3.757  18.441  0.00  0.00    +0.000 A 
ATOM      7  C   UNL     1       3.293   2.810  17.967  0.00  0.00    +0.000 A 
ATOM      8  F   UNL     1       3.111   1.505  18.226  0.00  0.00    +0.000 F 
ATOM      9  C   UNL     1       4.395   3.158  17.207  0.00  0.00    +0.000 A 
ATOM     10  C   UNL     1       4.574   4.489  16.902  0.00  0.00    +0.000 A 
ATOM     11  F   UNL     1       5.606   4.848  16.125  0.00  0.00    +0.000 F 
ATOM     12  C   UNL     1       3.697   5.460  17.388  0.00  0.00    +0.000 A 
ATOM     13  C   UNL     1       2.576   5.123  18.177  0.00  0.00    +0.000 A 
BRANCH   6  15
ATOM     14  C   UNL     1       1.131   3.318  20.570  0.00  0.00    +0.000 C 
ATOM     15  C   UNL     1       1.116   3.134  19.058  0.00  0.00    +0.000 C 
ENDBRANCH   6  15
ENDBRANCH   5  13
ENDBRANCH   4   5
ENDBRANCH   1   4
BRANCH   3  16
ATOM     16  C   UNL     1       0.518  10.788  18.676  0.00  0.00    +0.000 C 
BRANCH  16  17
ATOM     17  C   UNL     1      -0.979  10.890  18.427  0.00  0.00    +0.000 A 
ATOM     18  C   UNL     1      -1.657   9.869  17.739  0.00  0.00    +0.000 A 
ATOM     19  C   UNL     1      -3.049   9.907  17.584  0.00  0.00    +0.000 A 
ATOM     20  C   UNL     1      -3.751  10.977  18.124  0.00  0.00    +0.000 A 
ATOM     21  N   UNL     1      -3.135  11.967  18.819  0.00  0.00    +0.000 NA
ATOM     22  C   UNL     1      -1.780  11.887  18.972  0.00  0.00    +0.000 A 
BRANCH  20  23
ATOM     23  C   UNL     1      -5.184  11.084  17.965  0.00  0.00    +0.000 C 
ATOM     24  N   UNL     1      -6.335  11.192  17.789  0.00  0.00    +0.000 NA
ENDBRANCH  20  23
ENDBRANCH  16  17
ENDBRANCH   3  16
BRANCH   3  25
ATOM     25  C   UNL     1       0.789   9.200  20.598  0.00  0.00    +0.000 C 
BRANCH  25  26
ATOM     26  C   UNL     1       0.382  10.419  21.350  0.00  0.00    +0.000 A 
ATOM     27  N   UNL     1       0.982  11.588  21.434  0.00  0.00    +0.000 NA
ATOM     28  N   UNL     1       0.156  12.389  22.197  0.00  0.00    +0.000 NA
ATOM     29  C   UNL     1      -0.883  11.656  22.519  0.00  0.00    +0.000 A 
ATOM     30  N   UNL     1      -1.975  11.975  23.219  0.00  0.00    +0.000 N 
ATOM     31  O   UNL     1      -0.821  10.390  22.011  0.00  0.00    +0.000 OA
ATOM     32  H   UNL     1      -2.161  12.963  23.352  0.00  0.00    +0.000 HD
ATOM     33  H   UNL     1      -2.799  11.398  23.119  0.00  0.00    +0.000 HD
ENDBRANCH  25  26
ENDBRANCH   3  25
TORSDOF 9
ENDMDL
MODEL 3
REMARK VINA RESULT:      -7.9      1.118      1.158
REMARK  Name = 
REMARK  10 active torsions:
REMARK  status: ('A' for Active; 'I' for Inactive)
REMARK    1  A    between atoms: C_1  and  C_2
REMARK    2  A    between atoms: C_2  and  C_3
REMARK    3  A    between atoms: C_10  and  O_11
REMARK    4  A    between atoms: O_11  and  C_12
REMARK    5  A    between atoms: C_12  and  C_13
REMARK    6  A    between atoms: N_15  and  C_16
REMARK    7  A    between atoms: N_15  and  C_25
REMARK    8  A    between atoms: C_16  and  C_17
REMARK    9  A    between atoms: C_20  and  C_21
REMARK   10  A    between atoms: C_25  and  C_26
REMARK                            x       y       z     vdW  Elec       q    Type
REMARK                         _______ _______ _______ _____ _____    ______ ____
ROOT
ATOM      1  C   UNL     1       1.501   8.580  19.048  0.00  0.00    +0.000 C 
ATOM      2  O   UNL     1       1.759   8.509  17.842  0.00  0.00    +0.000 OA
ATOM      3  N   UNL     1       0.685   9.603  19.546  0.00  0.00    +0.000 N 
ENDROOT
BRANCH   1   4
ATOM      4  C   UNL     1       2.016   7.464  20.002  0.00  0.00    +0.000 C 
BRANCH   4   5
ATOM      5  O   UNL     1       2.926   6.523  19.467  0.00  0.00    +0.000 OA
BRANCH   5  13
ATOM      6  C   UNL     1       2.786   4.322  18.215  0.00  0.00    +0.000 A 
ATOM      7  C   UNL     1       2.244   3.012  18.296  0.00  0.00    +0.000 A 
ATOM      8  F   UNL     1       2.411   2.162  17.269  0.00  0.00    +0.000 F 
ATOM      9  C   UNL     1       1.573   2.538  19.409  0.00  0.00    +0.000 A 
ATOM     10  C   UNL     1       1.427   3.387  20.484  0.00  0.00    +0.000 A 
ATOM     11  F   UNL     1       0.824   2.938  21.593  0.00  0.00    +0.000 F 
ATOM     12  C   UNL     1       1.899   4.700  20.430  0.00  0.00    +0.000 A 
ATOM     13  C   UNL     1       2.574   5.202  19.297  0.00  0.00    +0.000 A 
BRANCH   6  15
ATOM     14  C   UNL     1       5.106   4.180  17.320  0.00  0.00    +0.000 C 
ATOM     15  C   UNL     1       3.662   4.547  17.005  0.00  0.00    +0.000 C 
ENDBRANCH   6  15
ENDBRANCH   5  13
ENDBRANCH   4   5
ENDBRANCH   1   4
BRANCH   3  16
ATOM     16  C   UNL     1       0.270  10.685  18.628  0.00  0.00    +0.000 C 
BRANCH  16  17
ATOM     17  C   UNL     1      -1.223  10.837  18.380  0.00  0.00    +0.000 A 
ATOM     18  C   UNL     1      -1.949   9.807  17.758  0.00  0.00    +0.000 A 
ATOM     19  C   UNL     1      -3.339   9.895  17.606  0.00  0.00    +0.000 A 
ATOM     20  C   UNL     1      -3.991  11.026  18.082  0.00  0.00    +0.000 A 
ATOM     21  N   UNL     1      -3.327  12.028  18.713  0.00  0.00    +0.000 NA
ATOM     22  C   UNL     1      -1.977  11.899  18.866  0.00  0.00    +0.000 A 
BRANCH  20  23
ATOM     23  C   UNL     1      -5.419  11.185  17.923  0.00  0.00    +0.000 C 
ATOM     24  N   UNL     1      -6.580  11.290  17.842  0.00  0.00    +0.000 NA
ENDBRANCH  20  23
ENDBRANCH  16  17
ENDBRANCH   3  16
BRANCH   3  25
ATOM     25  C   UNL     1       0.480   9.844  20.982  0.00  0.00    +0.000 C 
BRANCH  25  26
ATOM     26  C   UNL     1       0.555  11.294  21.312  0.00  0.00    +0.000 A 
ATOM     27  N   UNL     1       1.496  12.168  21.023  0.00  0.00    +0.000 NA
ATOM     28  N   UNL     1       1.047  13.385  21.496  0.00  0.00    +0.000 NA
ATOM     29  C   UNL     1      -0.129  13.166  22.035  0.00  0.00    +0.000 A 
ATOM     30  N   UNL     1      -0.986  14.019  22.601  0.00  0.00    +0.000 N 
ATOM     31  O   UNL     1      -0.519  11.861  21.951  0.00  0.00    +0.000 OA
ATOM     32  H   UNL     1      -0.839  15.005  22.417  0.00  0.00    +0.000 HD
ATOM     33  H   UNL     1      -1.955  13.745  22.690  0.00  0.00    +0.000 HD
ENDBRANCH  25  26
ENDBRANCH   3  25
TORSDOF 9
ENDMDL
MODEL 4
REMARK VINA RESULT:      -7.8      3.258      5.131
REMARK  Name = 
REMARK  10 active torsions:
REMARK  status: ('A' for Active; 'I' for Inactive)
REMARK    1  A    between atoms: C_1  and  C_2
REMARK    2  A    between atoms: C_2  and  C_3
REMARK    3  A    between atoms: C_10  and  O_11
REMARK    4  A    between atoms: O_11  and  C_12
REMARK    5  A    between atoms: C_12  and  C_13
REMARK    6  A    between atoms: N_15  and  C_16
REMARK    7  A    between atoms: N_15  and  C_25
REMARK    8  A    between atoms: C_16  and  C_17
REMARK    9  A    between atoms: C_20  and  C_21
REMARK   10  A    between atoms: C_25  and  C_26
REMARK                            x       y       z     vdW  Elec       q    Type
REMARK                         _______ _______ _______ _____ _____    ______ ____
ROOT
ATOM      1  C   UNL     1      -0.552   9.946  22.467  0.00  0.00    +0.000 C 
ATOM      2  O   UNL     1      -0.435   9.920  23.696  0.00  0.00    +0.000 OA
ATOM      3  N   UNL     1      -0.858  11.141  21.804  0.00  0.00    +0.000 N 
ENDROOT
BRANCH   1   4
ATOM      4  C   UNL     1      -0.261   8.656  21.648  0.00  0.00    +0.000 C 
BRANCH   4   5
ATOM      5  O   UNL     1       1.082   8.217  21.585  0.00  0.00    +0.000 OA
BRANCH   5  13
ATOM      6  C   UNL     1       2.244   6.602  20.014  0.00  0.00    +0.000 A 
ATOM      7  C   UNL     1       2.818   6.506  18.718  0.00  0.00    +0.000 A 
ATOM      8  F   UNL     1       3.410   5.361  18.339  0.00  0.00    +0.000 F 
ATOM      9  C   UNL     1       2.768   7.531  17.790  0.00  0.00    +0.000 A 
ATOM     10  C   UNL     1       2.132   8.697  18.152  0.00  0.00    +0.000 A 
ATOM     11  F   UNL     1       2.025   9.689  17.257  0.00  0.00    +0.000 F 
ATOM     12  C   UNL     1       1.597   8.856  19.433  0.00  0.00    +0.000 A 
ATOM     13  C   UNL     1       1.652   7.824  20.394  0.00  0.00    +0.000 A 
BRANCH   6  15
ATOM     14  C   UNL     1       1.050   4.438  20.318  0.00  0.00    +0.000 C 
ATOM     15  C   UNL     1       2.225   5.295  20.771  0.00  0.00    +0.000 C 
ENDBRANCH   6  15
ENDBRANCH   5  13
ENDBRANCH   4   5
ENDBRANCH   1   4
BRANCH   3  16
ATOM     16  C   UNL     1      -1.196  12.331  22.613  0.00  0.00    +0.000 C 
BRANCH  16  17
ATOM     17  C   UNL     1      -2.666  12.535  22.948  0.00  0.00    +0.000 A 
ATOM     18  C   UNL     1      -3.550  13.049  21.984  0.00  0.00    +0.000 A 
ATOM     19  C   UNL     1      -4.922  13.155  22.250  0.00  0.00    +0.000 A 
ATOM     20  C   UNL     1      -5.395  12.744  23.489  0.00  0.00    +0.000 A 
ATOM     21  N   UNL     1      -4.576  12.217  24.435  0.00  0.00    +0.000 NA
ATOM     22  C   UNL     1      -3.248  12.106  24.134  0.00  0.00    +0.000 A 
BRANCH  20  23
ATOM     23  C   UNL     1      -6.795  12.863  23.829  0.00  0.00    +0.000 C 
ATOM     24  N   UNL     1      -7.916  13.006  24.127  0.00  0.00    +0.000 NA
ENDBRANCH  20  23
ENDBRANCH  16  17
ENDBRANCH   3  16
BRANCH   3  25
ATOM     25  C   UNL     1      -1.178  11.208  20.370  0.00  0.00    +0.000 C 
BRANCH  25  26
ATOM     26  C   UNL     1      -0.454  12.321  19.696  0.00  0.00    +0.000 A 
ATOM     27  N   UNL     1       0.744  12.328  19.150  0.00  0.00    +0.000 NA
ATOM     28  N   UNL     1       0.909  13.585  18.603  0.00  0.00    +0.000 NA
ATOM     29  C   UNL     1      -0.195  14.249  18.853  0.00  0.00    +0.000 A 
ATOM     30  N   UNL     1      -0.547  15.490  18.508  0.00  0.00    +0.000 N 
ATOM     31  O   UNL     1      -1.118  13.511  19.537  0.00  0.00    +0.000 OA
ATOM     32  H   UNL     1      -0.004  15.933  17.775  0.00  0.00    +0.000 HD
ATOM     33  H   UNL     1      -1.528  15.736  18.516  0.00  0.00    +0.000 HD
ENDBRANCH  25  26
ENDBRANCH   3  25
TORSDOF 9
ENDMDL
MODEL 5
REMARK VINA RESULT:      -7.7      2.501      3.840
REMARK  Name = 
REMARK  10 active torsions:
REMARK  status: ('A' for Active; 'I' for Inactive)
REMARK    1  A    between atoms: C_1  and  C_2
REMARK    2  A    between atoms: C_2  and  C_3
REMARK    3  A    between atoms: C_10  and  O_11
REMARK    4  A    between atoms: O_11  and  C_12
REMARK    5  A    between atoms: C_12  and  C_13
REMARK    6  A    between atoms: N_15  and  C_16
REMARK    7  A    between atoms: N_15  and  C_25
REMARK    8  A    between atoms: C_16  and  C_17
REMARK    9  A    between atoms: C_20  and  C_21
REMARK   10  A    between atoms: C_25  and  C_26
REMARK                            x       y       z     vdW  Elec       q    Type
REMARK                         _______ _______ _______ _____ _____    ______ ____
ROOT
ATOM      1  C   UNL     1       0.259   9.113  20.789  0.00  0.00    +0.000 C 
ATOM      2  O   UNL     1      -0.702   8.831  21.513  0.00  0.00    +0.000 OA
ATOM      3  N   UNL     1       0.200  10.205  19.915  0.00  0.00    +0.000 N 
ENDROOT
BRANCH   1   4
ATOM      4  C   UNL     1       1.577   8.298  20.925  0.00  0.00    +0.000 C 
BRANCH   4   5
ATOM      5  O   UNL     1       1.470   6.888  20.940  0.00  0.00    +0.000 OA
BRANCH   5  13
ATOM      6  C   UNL     1       1.914   4.732  19.681  0.00  0.00    +0.000 A 
ATOM      7  C   UNL     1       2.624   4.200  18.572  0.00  0.00    +0.000 A 
ATOM      8  F   UNL     1       2.583   2.880  18.331  0.00  0.00    +0.000 F 
ATOM      9  C   UNL     1       3.341   4.985  17.686  0.00  0.00    +0.000 A 
ATOM     10  C   UNL     1       3.362   6.345  17.899  0.00  0.00    +0.000 A 
ATOM     11  F   UNL     1       4.007   7.134  17.029  0.00  0.00    +0.000 F 
ATOM     12  C   UNL     1       2.719   6.907  19.005  0.00  0.00    +0.000 A 
ATOM     13  C   UNL     1       1.996   6.119  19.925  0.00  0.00    +0.000 A 
BRANCH   6  15
ATOM     14  C   UNL     1       1.767   3.098  21.554  0.00  0.00    +0.000 C 
ATOM     15  C   UNL     1       1.029   3.726  20.379  0.00  0.00    +0.000 C 
ENDBRANCH   6  15
ENDBRANCH   5  13
ENDBRANCH   4   5
ENDBRANCH   1   4
BRANCH   3  16
ATOM     16  C   UNL     1      -1.087  10.915  19.758  0.00  0.00    +0.000 C 
BRANCH  16  17
ATOM     17  C   UNL     1      -1.802  10.748  18.425  0.00  0.00    +0.000 A 
ATOM     18  C   UNL     1      -1.872  11.818  17.517  0.00  0.00    +0.000 A 
ATOM     19  C   UNL     1      -2.446  11.650  16.250  0.00  0.00    +0.000 A 
ATOM     20  C   UNL     1      -2.951  10.403  15.907  0.00  0.00    +0.000 A 
ATOM     21  N   UNL     1      -2.877   9.339  16.747  0.00  0.00    +0.000 NA
ATOM     22  C   UNL     1      -2.289   9.531  17.964  0.00  0.00    +0.000 A 
BRANCH  20  23
ATOM     23  C   UNL     1      -3.585  10.182  14.626  0.00  0.00    +0.000 C 
ATOM     24  N   UNL     1      -4.050  10.011  13.567  0.00  0.00    +0.000 NA
ENDBRANCH  20  23
ENDBRANCH  16  17
ENDBRANCH   3  16
BRANCH   3  25
ATOM     25  C   UNL     1       1.235  10.490  18.910  0.00  0.00    +0.000 C 
BRANCH  25  26
ATOM     26  C   UNL     1       1.779  11.868  19.057  0.00  0.00    +0.000 A 
ATOM     27  N   UNL     1       1.821  12.641  20.123  0.00  0.00    +0.000 NA
ATOM     28  N   UNL     1       2.489  13.786  19.740  0.00  0.00    +0.000 NA
ATOM     29  C   UNL     1       2.806  13.630  18.476  0.00  0.00    +0.000 A 
ATOM     30  N   UNL     1       3.484  14.436  17.656  0.00  0.00    +0.000 N 
ATOM     31  O   UNL     1       2.398  12.431  17.969  0.00  0.00    +0.000 OA
ATOM     32  H   UNL     1       4.025  15.178  18.086  0.00  0.00    +0.000 HD
ATOM     33  H   UNL     1       3.896  14.042  16.820  0.00  0.00    +0.000 HD
ENDBRANCH  25  26
ENDBRANCH   3  25
TORSDOF 9
ENDMDL
MODEL 6
REMARK VINA RESULT:      -7.7      4.663      9.167
REMARK  Name = 
REMARK  10 active torsions:
REMARK  status: ('A' for Active; 'I' for Inactive)
REMARK    1  A    between atoms: C_1  and  C_2
REMARK    2  A    between atoms: C_2  and  C_3
REMARK    3  A    between atoms: C_10  and  O_11
REMARK    4  A    between atoms: O_11  and  C_12
REMARK    5  A    between atoms: C_12  and  C_13
REMARK    6  A    between atoms: N_15  and  C_16
REMARK    7  A    between atoms: N_15  and  C_25
REMARK    8  A    between atoms: C_16  and  C_17
REMARK    9  A    between atoms: C_20  and  C_21
REMARK   10  A    between atoms: C_25  and  C_26
REMARK                            x       y       z     vdW  Elec       q    Type
REMARK                         _______ _______ _______ _____ _____    ______ ____
ROOT
ATOM      1  C   UNL     1       3.581   7.183  17.995  0.00  0.00    +0.000 C 
ATOM      2  O   UNL     1       4.485   7.753  17.376  0.00  0.00    +0.000 OA
ATOM      3  N   UNL     1       3.841   6.021  18.732  0.00  0.00    +0.000 N 
ENDROOT
BRANCH   1   4
ATOM      4  C   UNL     1       2.163   7.822  18.029  0.00  0.00    +0.000 C 
BRANCH   4   5
ATOM      5  O   UNL     1       1.831   8.602  19.161  0.00  0.00    +0.000 OA
BRANCH   5  13
ATOM      6  C   UNL     1       0.165  10.210  20.196  0.00  0.00    +0.000 A 
ATOM      7  C   UNL     1      -1.051  10.896  19.934  0.00  0.00    +0.000 A 
ATOM      8  F   UNL     1      -1.609  11.645  20.899  0.00  0.00    +0.000 F 
ATOM      9  C   UNL     1      -1.687  10.867  18.706  0.00  0.00    +0.000 A 
ATOM     10  C   UNL     1      -1.106  10.133  17.696  0.00  0.00    +0.000 A 
ATOM     11  F   UNL     1      -1.674  10.128  16.482  0.00  0.00    +0.000 F 
ATOM     12  C   UNL     1       0.062   9.402  17.921  0.00  0.00    +0.000 A 
ATOM     13  C   UNL     1       0.716   9.411  19.172  0.00  0.00    +0.000 A 
BRANCH   6  15
ATOM     14  C   UNL     1       0.493   9.471  22.551  0.00  0.00    +0.000 C 
ATOM     15  C   UNL     1       0.789  10.558  21.527  0.00  0.00    +0.000 C 
ENDBRANCH   6  15
ENDBRANCH   5  13
ENDBRANCH   4   5
ENDBRANCH   1   4
BRANCH   3  16
ATOM     16  C   UNL     1       5.179   5.401  18.623  0.00  0.00    +0.000 C 
BRANCH  16  17
ATOM     17  C   UNL     1       5.706   5.155  17.218  0.00  0.00    +0.000 A 
ATOM     18  C   UNL     1       4.917   4.485  16.268  0.00  0.00    +0.000 A 
ATOM     19  C   UNL     1       5.354   4.334  14.945  0.00  0.00    +0.000 A 
ATOM     20  C   UNL     1       6.589   4.859  14.588  0.00  0.00    +0.000 A 
ATOM     21  N   UNL     1       7.367   5.537  15.469  0.00  0.00    +0.000 NA
ATOM     22  C   UNL     1       6.900   5.687  16.744  0.00  0.00    +0.000 A 
BRANCH  20  23
ATOM     23  C   UNL     1       7.104   4.703  13.246  0.00  0.00    +0.000 C 
ATOM     24  N   UNL     1       7.542   4.530  12.176  0.00  0.00    +0.000 NA
ENDBRANCH  20  23
ENDBRANCH  16  17
ENDBRANCH   3  16
BRANCH   3  25
ATOM     25  C   UNL     1       2.785   5.203  19.346  0.00  0.00    +0.000 C 
BRANCH  25  26
ATOM     26  C   UNL     1       2.674   3.869  18.695  0.00  0.00    +0.000 A 
ATOM     27  N   UNL     1       1.876   3.478  17.723  0.00  0.00    +0.000 NA
ATOM     28  N   UNL     1       2.222   2.171  17.444  0.00  0.00    +0.000 NA
ATOM     29  C   UNL     1       3.202   1.862  18.260  0.00  0.00    +0.000 A 
ATOM     30  N   UNL     1       3.905   0.731  18.368  0.00  0.00    +0.000 N 
ATOM     31  O   UNL     1       3.556   2.891  19.083  0.00  0.00    +0.000 OA
ATOM     32  H   UNL     1       3.847   0.080  17.592  0.00  0.00    +0.000 HD
ATOM     33  H   UNL     1       4.804   0.762  18.828  0.00  0.00    +0.000 HD
ENDBRANCH  25  26
ENDBRANCH   3  25
TORSDOF 9
ENDMDL
MODEL 7
REMARK VINA RESULT:      -7.7      2.296      4.438
REMARK  Name = 
REMARK  10 active torsions:
REMARK  status: ('A' for Active; 'I' for Inactive)
REMARK    1  A    between atoms: C_1  and  C_2
REMARK    2  A    between atoms: C_2  and  C_3
REMARK    3  A    between atoms: C_10  and  O_11
REMARK    4  A    between atoms: O_11  and  C_12
REMARK    5  A    between atoms: C_12  and  C_13
REMARK    6  A    between atoms: N_15  and  C_16
REMARK    7  A    between atoms: N_15  and  C_25
REMARK    8  A    between atoms: C_16  and  C_17
REMARK    9  A    between atoms: C_20  and  C_21
REMARK   10  A    between atoms: C_25  and  C_26
REMARK                            x       y       z     vdW  Elec       q    Type
REMARK                         _______ _______ _______ _____ _____    ______ ____
ROOT
ATOM      1  C   UNL     1       1.128  10.466  18.415  0.00  0.00    +0.000 C 
ATOM      2  O   UNL     1       2.131  11.172  18.561  0.00  0.00    +0.000 OA
ATOM      3  N   UNL     1      -0.141  10.946  18.762  0.00  0.00    +0.000 N 
ENDROOT
BRANCH   1   4
ATOM      4  C   UNL     1       1.274   9.067  17.750  0.00  0.00    +0.000 C 
BRANCH   4   5
ATOM      5  O   UNL     1       2.586   8.603  17.497  0.00  0.00    +0.000 OA
BRANCH   5  13
ATOM      6  C   UNL     1       4.175   6.645  17.759  0.00  0.00    +0.000 A 
ATOM      7  C   UNL     1       4.387   5.457  18.510  0.00  0.00    +0.000 A 
ATOM      8  F   UNL     1       5.425   4.660  18.209  0.00  0.00    +0.000 F 
ATOM      9  C   UNL     1       3.590   5.085  19.578  0.00  0.00    +0.000 A 
ATOM     10  C   UNL     1       2.544   5.912  19.921  0.00  0.00    +0.000 A 
ATOM     11  F   UNL     1       1.787   5.603  20.983  0.00  0.00    +0.000 F 
ATOM     12  C   UNL     1       2.268   7.064  19.182  0.00  0.00    +0.000 A 
ATOM     13  C   UNL     1       3.062   7.450  18.081  0.00  0.00    +0.000 A 
BRANCH   6  15
ATOM     14  C   UNL     1       5.215   6.031  15.582  0.00  0.00    +0.000 C 
ATOM     15  C   UNL     1       5.288   6.959  16.787  0.00  0.00    +0.000 C 
ENDBRANCH   6  15
ENDBRANCH   5  13
ENDBRANCH   4   5
ENDBRANCH   1   4
BRANCH   3  16
ATOM     16  C   UNL     1      -0.238  12.248  19.455  0.00  0.00    +0.000 C 
BRANCH  16  17
ATOM     17  C   UNL     1      -1.148  12.309  20.672  0.00  0.00    +0.000 A 
ATOM     18  C   UNL     1      -2.415  12.910  20.583  0.00  0.00    +0.000 A 
ATOM     19  C   UNL     1      -3.299  12.891  21.671  0.00  0.00    +0.000 A 
ATOM     20  C   UNL     1      -2.898  12.267  22.845  0.00  0.00    +0.000 A 
ATOM     21  N   UNL     1      -1.693  11.652  22.959  0.00  0.00    +0.000 NA
ATOM     22  C   UNL     1      -0.867  11.668  21.873  0.00  0.00    +0.000 A 
BRANCH  20  23
ATOM     23  C   UNL     1      -3.756  12.247  24.008  0.00  0.00    +0.000 C 
ATOM     24  N   UNL     1      -4.432  12.182  24.959  0.00  0.00    +0.000 NA
ENDBRANCH  20  23
ENDBRANCH  16  17
ENDBRANCH   3  16
BRANCH   3  25
ATOM     25  C   UNL     1      -1.345  10.102  18.775  0.00  0.00    +0.000 C 
BRANCH  25  26
ATOM     26  C   UNL     1      -2.252  10.422  17.638  0.00  0.00    +0.000 A 
ATOM     27  N   UNL     1      -3.296  11.224  17.602  0.00  0.00    +0.000 NA
ATOM     28  N   UNL     1      -3.739  11.218  16.295  0.00  0.00    +0.000 NA
ATOM     29  C   UNL     1      -2.938  10.419  15.631  0.00  0.00    +0.000 A 
ATOM     30  N   UNL     1      -2.922  10.102  14.335  0.00  0.00    +0.000 N 
ATOM     31  O   UNL     1      -1.957   9.879  16.413  0.00  0.00    +0.000 OA
ATOM     32  H   UNL     1      -3.450  10.702  13.710  0.00  0.00    +0.000 HD
ATOM     33  H   UNL     1      -2.074   9.721  13.939  0.00  0.00    +0.000 HD
ENDBRANCH  25  26
ENDBRANCH   3  25
TORSDOF 9
ENDMDL
MODEL 8
REMARK VINA RESULT:      -7.7      1.216      1.262
REMARK  Name = 
REMARK  10 active torsions:
REMARK  status: ('A' for Active; 'I' for Inactive)
REMARK    1  A    between atoms: C_1  and  C_2
REMARK    2  A    between atoms: C_2  and  C_3
REMARK    3  A    between atoms: C_10  and  O_11
REMARK    4  A    between atoms: O_11  and  C_12
REMARK    5  A    between atoms: C_12  and  C_13
REMARK    6  A    between atoms: N_15  and  C_16
REMARK    7  A    between atoms: N_15  and  C_25
REMARK    8  A    between atoms: C_16  and  C_17
REMARK    9  A    between atoms: C_20  and  C_21
REMARK   10  A    between atoms: C_25  and  C_26
REMARK                            x       y       z     vdW  Elec       q    Type
REMARK                         _______ _______ _______ _____ _____    ______ ____
ROOT
ATOM      1  C   UNL     1       2.116   8.603  18.220  0.00  0.00    +0.000 C 
ATOM      2  O   UNL     1       2.365   9.443  17.350  0.00  0.00    +0.000 OA
ATOM      3  N   UNL     1       1.298   8.923  19.311  0.00  0.00    +0.000 N 
ENDROOT
BRANCH   1   4
ATOM      4  C   UNL     1       2.642   7.149  18.045  0.00  0.00    +0.000 C 
BRANCH   4   5
ATOM      5  O   UNL     1       3.485   6.638  19.058  0.00  0.00    +0.000 OA
BRANCH   5  13
ATOM      6  C   UNL     1       4.396   4.282  19.279  0.00  0.00    +0.000 A 
ATOM      7  C   UNL     1       4.044   2.972  19.700  0.00  0.00    +0.000 A 
ATOM      8  F   UNL     1       4.924   1.969  19.550  0.00  0.00    +0.000 F 
ATOM      9  C   UNL     1       2.834   2.669  20.299  0.00  0.00    +0.000 A 
ATOM     10  C   UNL     1       1.936   3.695  20.492  0.00  0.00    +0.000 A 
ATOM     11  F   UNL     1       0.777   3.440  21.116  0.00  0.00    +0.000 F 
ATOM     12  C   UNL     1       2.219   4.989  20.051  0.00  0.00    +0.000 A 
ATOM     13  C   UNL     1       3.442   5.311  19.424  0.00  0.00    +0.000 A 
BRANCH   6  15
ATOM     14  C   UNL     1       5.941   4.487  17.337  0.00  0.00    +0.000 C 
ATOM     15  C   UNL     1       5.840   4.419  18.855  0.00  0.00    +0.000 C 
ENDBRANCH   6  15
ENDBRANCH   5  13
ENDBRANCH   4   5
ENDBRANCH   1   4
BRANCH   3  16
ATOM     16  C   UNL     1       0.872  10.327  19.486  0.00  0.00    +0.000 C 
BRANCH  16  17
ATOM     17  C   UNL     1      -0.481  10.709  18.906  0.00  0.00    +0.000 A 
ATOM     18  C   UNL     1      -1.036   9.968  17.849  0.00  0.00    +0.000 A 
ATOM     19  C   UNL     1      -2.322  10.252  17.367  0.00  0.00    +0.000 A 
ATOM     20  C   UNL     1      -3.040  11.285  17.955  0.00  0.00    +0.000 A 
ATOM     21  N   UNL     1      -2.549  12.004  18.996  0.00  0.00    +0.000 NA
ATOM     22  C   UNL     1      -1.303  11.686  19.456  0.00  0.00    +0.000 A 
BRANCH  20  23
ATOM     23  C   UNL     1      -4.357  11.643  17.477  0.00  0.00    +0.000 C 
ATOM     24  N   UNL     1      -5.434  11.947  17.139  0.00  0.00    +0.000 NA
ENDBRANCH  20  23
ENDBRANCH  16  17
ENDBRANCH   3  16
BRANCH   3  25
ATOM     25  C   UNL     1       1.103   8.029  20.462  0.00  0.00    +0.000 C 
BRANCH  25  26
ATOM     26  C   UNL     1       0.735   8.786  21.690  0.00  0.00    +0.000 A 
ATOM     27  N   UNL     1       1.504   9.213  22.670  0.00  0.00    +0.000 NA
ATOM     28  N   UNL     1       0.681   9.917  23.525  0.00  0.00    +0.000 NA
ATOM     29  C   UNL     1      -0.524   9.870  23.008  0.00  0.00    +0.000 A 
ATOM     30  N   UNL     1      -1.664  10.421  23.434  0.00  0.00    +0.000 N 
ATOM     31  O   UNL     1      -0.573   9.176  21.833  0.00  0.00    +0.000 OA
ATOM     32  H   UNL     1      -1.586  11.156  24.128  0.00  0.00    +0.000 HD
ATOM     33  H   UNL     1      -2.421  10.540  22.774  0.00  0.00    +0.000 HD
ENDBRANCH  25  26
ENDBRANCH   3  25
TORSDOF 9
ENDMDL
MODEL 9
REMARK VINA RESULT:      -7.6      2.302      4.705
REMARK  Name = 
REMARK  10 active torsions:
REMARK  status: ('A' for Active; 'I' for Inactive)
REMARK    1  A    between atoms: C_1  and  C_2
REMARK    2  A    between atoms: C_2  and  C_3
REMARK    3  A    between atoms: C_10  and  O_11
REMARK    4  A    between atoms: O_11  and  C_12
REMARK    5  A    between atoms: C_12  and  C_13
REMARK    6  A    between atoms: N_15  and  C_16
REMARK    7  A    between atoms: N_15  and  C_25
REMARK    8  A    between atoms: C_16  and  C_17
REMARK    9  A    between atoms: C_20  and  C_21
REMARK   10  A    between atoms: C_25  and  C_26
REMARK                            x       y       z     vdW  Elec       q    Type
REMARK                         _______ _______ _______ _____ _____    ______ ____
ROOT
ATOM      1  C   UNL     1       1.078  10.532  18.502  0.00  0.00    +0.000 C 
ATOM      2  O   UNL     1       1.971  11.332  18.799  0.00  0.00    +0.000 OA
ATOM      3  N   UNL     1      -0.271  10.896  18.601  0.00  0.00    +0.000 N 
ENDROOT
BRANCH   1   4
ATOM      4  C   UNL     1       1.466   9.142  17.922  0.00  0.00    +0.000 C 
BRANCH   4   5
ATOM      5  O   UNL     1       1.987   8.186  18.824  0.00  0.00    +0.000 OA
BRANCH   5  13
ATOM      6  C   UNL     1       2.646   5.739  18.726  0.00  0.00    +0.000 A 
ATOM      7  C   UNL     1       3.586   4.847  18.143  0.00  0.00    +0.000 A 
ATOM      8  F   UNL     1       3.557   3.546  18.475  0.00  0.00    +0.000 F 
ATOM      9  C   UNL     1       4.525   5.243  17.207  0.00  0.00    +0.000 A 
ATOM     10  C   UNL     1       4.542   6.567  16.831  0.00  0.00    +0.000 A 
ATOM     11  F   UNL     1       5.407   6.968  15.890  0.00  0.00    +0.000 F 
ATOM     12  C   UNL     1       3.670   7.489  17.413  0.00  0.00    +0.000 A 
ATOM     13  C   UNL     1       2.716   7.104  18.380  0.00  0.00    +0.000 A 
BRANCH   6  15
ATOM     14  C   UNL     1       1.538   5.642  20.954  0.00  0.00    +0.000 C 
ATOM     15  C   UNL     1       1.582   5.052  19.550  0.00  0.00    +0.000 C 
ENDBRANCH   6  15
ENDBRANCH   5  13
ENDBRANCH   4   5
ENDBRANCH   1   4
BRANCH   3  16
ATOM     16  C   UNL     1      -0.608  12.196  19.220  0.00  0.00    +0.000 C 
BRANCH  16  17
ATOM     17  C   UNL     1      -1.446  12.153  20.489  0.00  0.00    +0.000 A 
ATOM     18  C   UNL     1      -0.912  11.623  21.676  0.00  0.00    +0.000 A 
ATOM     19  C   UNL     1      -1.640  11.661  22.873  0.00  0.00    +0.000 A 
ATOM     20  C   UNL     1      -2.906  12.234  22.864  0.00  0.00    +0.000 A 
ATOM     21  N   UNL     1      -3.443  12.780  21.744  0.00  0.00    +0.000 NA
ATOM     22  C   UNL     1      -2.697  12.748  20.601  0.00  0.00    +0.000 A 
BRANCH  20  23
ATOM     23  C   UNL     1      -3.714  12.270  24.062  0.00  0.00    +0.000 C 
ATOM     24  N   UNL     1      -4.354  12.351  25.038  0.00  0.00    +0.000 NA
ENDBRANCH  20  23
ENDBRANCH  16  17
ENDBRANCH   3  16
BRANCH   3  25
ATOM     25  C   UNL     1      -1.377   9.944  18.429  0.00  0.00    +0.000 C 
BRANCH  25  26
ATOM     26  C   UNL     1      -2.409  10.464  17.489  0.00  0.00    +0.000 A 
ATOM     27  N   UNL     1      -2.337  10.646  16.187  0.00  0.00    +0.000 NA
ATOM     28  N   UNL     1      -3.586  11.080  15.791  0.00  0.00    +0.000 NA
ATOM     29  C   UNL     1      -4.326  11.128  16.873  0.00  0.00    +0.000 A 
ATOM     30  N   UNL     1      -5.613  11.454  17.019  0.00  0.00    +0.000 N 
ATOM     31  O   UNL     1      -3.654  10.742  17.996  0.00  0.00    +0.000 OA
ATOM     32  H   UNL     1      -6.181  11.463  16.179  0.00  0.00    +0.000 HD
ATOM     33  H   UNL     1      -6.097  11.153  17.854  0.00  0.00    +0.000 HD
ENDBRANCH  25  26
ENDBRANCH   3  25
TORSDOF 9
ENDMDL
