MODEL 1
REMARK VINA RESULT:      -8.5      0.000      0.000
REMARK  Name = 
REMARK  6 active torsions:
REMARK  status: ('A' for Active; 'I' for Inactive)
REMARK    1  A    between atoms: O_1  and  C_2
REMARK    2  A    between atoms: C_2  and  C_3
REMARK    3  A    between atoms: C_2  and  C_18
REMARK    4  A    between atoms: C_3  and  O_4
REMARK    5  A    between atoms: O_4  and  C_5
REMARK    6  A    between atoms: C_18  and  N_19
REMARK                            x       y       z     vdW  Elec       q    Type
REMARK                         _______ _______ _______ _____ _____    ______ ____
ROOT
ATOM      1  C   UNL     1       2.523   8.791  17.879  0.00  0.00    +0.000 C 
ENDROOT
BRANCH   1   2
ATOM      2  C   UNL     1       1.123   9.106  18.424  0.00  0.00    +0.000 C 
BRANCH   2   3
ATOM      3  O   UNL     1       0.269   9.449  17.320  0.00  0.00    +0.000 OA
ATOM      4  H   UNL     1       0.842   9.916  16.685  0.00  0.00    +0.000 HD
ENDBRANCH   2   3
BRANCH   2   5
ATOM      5  C   UNL     1       1.222  10.281  19.421  0.00  0.00    +0.000 C 
BRANCH   5   6
ATOM      6  N   UNL     1       0.533  10.013  20.682  0.00  0.00    +0.000 N 
ATOM      7  C   UNL     1       0.974   8.887  21.503  0.00  0.00    +0.000 C 
ATOM      8  C   UNL     1       1.178   9.345  22.941  0.00  0.00    +0.000 C 
ATOM      9  O   UNL     1      -0.037   9.857  23.509  0.00  0.00    +0.000 OA
ATOM     10  C   UNL     1      -0.702  10.715  22.659  0.00  0.00    +0.000 A 
ATOM     11  C   UNL     1      -1.718  11.465  23.261  0.00  0.00    +0.000 A 
ATOM     12  C   UNL     1      -2.468  12.358  22.505  0.00  0.00    +0.000 A 
ATOM     13  C   UNL     1      -2.193  12.509  21.150  0.00  0.00    +0.000 A 
ATOM     14  C   UNL     1      -1.173  11.759  20.548  0.00  0.00    +0.000 A 
ATOM     15  C   UNL     1      -0.416  10.833  21.277  0.00  0.00    +0.000 A 
ENDBRANCH   5   6
ENDBRANCH   2   5
ENDBRANCH   1   2
BRANCH   1  16
ATOM     16  O   UNL     1       3.012   7.604  18.509  0.00  0.00    +0.000 OA
BRANCH  16  17
ATOM     17  C   UNL     1       3.671   6.701  17.712  0.00  0.00    +0.000 A 
ATOM     18  C   UNL     1       4.539   7.045  16.662  0.00  0.00    +0.000 A 
ATOM     19  C   UNL     1       5.204   6.069  15.918  0.00  0.00    +0.000 A 
ATOM     20  C   UNL     1       5.039   4.711  16.195  0.00  0.00    +0.000 A 
ATOM     21  C   UNL     1       4.158   4.374  17.228  0.00  0.00    +0.000 A 
ATOM     22  N   UNL     1       3.808   3.135  17.716  0.00  0.00    +0.000 N 
ATOM     23  C   UNL     1       2.877   3.244  18.721  0.00  0.00    +0.000 A 
ATOM     24  C   UNL     1       2.245   2.252  19.480  0.00  0.00    +0.000 A 
ATOM     25  C   UNL     1       1.306   2.664  20.430  0.00  0.00    +0.000 A 
ATOM     26  C   UNL     1       1.012   4.013  20.612  0.00  0.00    +0.000 A 
ATOM     27  C   UNL     1       1.666   4.989  19.855  0.00  0.00    +0.000 A 
ATOM     28  C   UNL     1       2.623   4.603  18.892  0.00  0.00    +0.000 A 
ATOM     29  C   UNL     1       3.459   5.323  17.972  0.00  0.00    +0.000 A 
ATOM     30  H   UNL     1       4.177   2.260  17.373  0.00  0.00    +0.000 HD
ENDBRANCH  16  17
ENDBRANCH   1  16
TORSDOF 6
ENDMDL
MODEL 2
REMARK VINA RESULT:      -8.4      2.096      7.786
REMARK  Name = 
REMARK  6 active torsions:
REMARK  status: ('A' for Active; 'I' for Inactive)
REMARK    1  A    between atoms: O_1  and  C_2
REMARK    2  A    between atoms: C_2  and  C_3
REMARK    3  A    between atoms: C_2  and  C_18
REMARK    4  A    between atoms: C_3  and  O_4
REMARK    5  A    between atoms: O_4  and  C_5
REMARK    6  A    between atoms: C_18  and  N_19
REMARK                            x       y       z     vdW  Elec       q    Type
REMARK                         _______ _______ _______ _____ _____    ______ ____
ROOT
ATOM      1  C   UNL     1       1.214   5.171  20.518  0.00  0.00    +0.000 C 
ENDROOT
BRANCH   1   2
ATOM      2  C   UNL     1       2.114   3.945  20.730  0.00  0.00    +0.000 C 
BRANCH   2   3
ATOM      3  O   UNL     1       1.893   3.441  22.058  0.00  0.00    +0.000 OA
ATOM      4  H   UNL     1       1.508   2.553  21.937  0.00  0.00    +0.000 HD
ENDBRANCH   2   3
BRANCH   2   5
ATOM      5  C   UNL     1       3.588   4.364  20.545  0.00  0.00    +0.000 C 
BRANCH   5   6
ATOM      6  N   UNL     1       4.129   3.969  19.245  0.00  0.00    +0.000 N 
ATOM      7  C   UNL     1       3.424   2.954  18.465  0.00  0.00    +0.000 C 
ATOM      8  C   UNL     1       3.222   3.447  17.039  0.00  0.00    +0.000 C 
ATOM      9  O   UNL     1       4.474   3.712  16.389  0.00  0.00    +0.000 OA
ATOM     10  C   UNL     1       5.349   4.421  17.187  0.00  0.00    +0.000 A 
ATOM     11  C   UNL     1       6.451   4.958  16.514  0.00  0.00    +0.000 A 
ATOM     12  C   UNL     1       7.408   5.684  17.213  0.00  0.00    +0.000 A 
ATOM     13  C   UNL     1       7.256   5.883  18.581  0.00  0.00    +0.000 A 
ATOM     14  C   UNL     1       6.149   5.346  19.253  0.00  0.00    +0.000 A 
ATOM     15  C   UNL     1       5.180   4.589  18.583  0.00  0.00    +0.000 A 
ENDBRANCH   5   6
ENDBRANCH   2   5
ENDBRANCH   1   2
BRANCH   1  16
ATOM     16  O   UNL     1       1.969   6.355  20.786  0.00  0.00    +0.000 OA
BRANCH  16  17
ATOM     17  C   UNL     1       2.034   7.293  19.786  0.00  0.00    +0.000 A 
ATOM     18  C   UNL     1       2.691   7.109  18.558  0.00  0.00    +0.000 A 
ATOM     19  C   UNL     1       2.682   8.097  17.572  0.00  0.00    +0.000 A 
ATOM     20  C   UNL     1       2.010   9.305  17.765  0.00  0.00    +0.000 A 
ATOM     21  C   UNL     1       1.374   9.491  18.997  0.00  0.00    +0.000 A 
ATOM     22  N   UNL     1       0.645  10.565  19.457  0.00  0.00    +0.000 N 
ATOM     23  C   UNL     1       0.219  10.357  20.747  0.00  0.00    +0.000 A 
ATOM     24  C   UNL     1      -0.532  11.179  21.596  0.00  0.00    +0.000 A 
ATOM     25  C   UNL     1      -0.795  10.710  22.885  0.00  0.00    +0.000 A 
ATOM     26  C   UNL     1      -0.326   9.469  23.308  0.00  0.00    +0.000 A 
ATOM     27  C   UNL     1       0.409   8.656  22.440  0.00  0.00    +0.000 A 
ATOM     28  C   UNL     1       0.685   9.101  21.131  0.00  0.00    +0.000 A 
ATOM     29  C   UNL     1       1.387   8.536  20.012  0.00  0.00    +0.000 A 
ATOM     30  H   UNL     1       0.457  11.400  18.922  0.00  0.00    +0.000 HD
ENDBRANCH  16  17
ENDBRANCH   1  16
TORSDOF 6
ENDMDL
MODEL 3
REMARK VINA RESULT:      -8.4      2.117      4.103
REMARK  Name = 
REMARK  6 active torsions:
REMARK  status: ('A' for Active; 'I' for Inactive)
REMARK    1  A    between atoms: O_1  and  C_2
REMARK    2  A    between atoms: C_2  and  C_3
REMARK    3  A    between atoms: C_2  and  C_18
REMARK    4  A    between atoms: C_3  and  O_4
REMARK    5  A    between atoms: O_4  and  C_5
REMARK    6  A    between atoms: C_18  and  N_19
REMARK                            x       y       z     vdW  Elec       q    Type
REMARK                         _______ _______ _______ _____ _____    ______ ____
ROOT
ATOM      1  C   UNL     1       1.604   8.420  19.705  0.00  0.00    +0.000 C 
ENDROOT
BRANCH   1   2
ATOM      2  C   UNL     1       1.176   9.114  18.404  0.00  0.00    +0.000 C 
BRANCH   2   3
ATOM      3  O   UNL     1       2.223   8.951  17.434  0.00  0.00    +0.000 OA
ATOM      4  H   UNL     1       1.919   8.239  16.841  0.00  0.00    +0.000 HD
ENDBRANCH   2   3
BRANCH   2   5
ATOM      5  C   UNL     1       0.925  10.610  18.690  0.00  0.00    +0.000 C 
BRANCH   5   6
ATOM      6  N   UNL     1      -0.441  10.880  19.132  0.00  0.00    +0.000 N 
ATOM      7  C   UNL     1      -0.659  11.396  20.482  0.00  0.00    +0.000 C 
ATOM      8  C   UNL     1      -1.568  12.616  20.429  0.00  0.00    +0.000 C 
ATOM      9  O   UNL     1      -2.850  12.294  19.868  0.00  0.00    +0.000 OA
ATOM     10  C   UNL     1      -2.754  11.525  18.727  0.00  0.00    +0.000 A 
ATOM     11  C   UNL     1      -3.934  11.433  17.981  0.00  0.00    +0.000 A 
ATOM     12  C   UNL     1      -3.966  10.677  16.816  0.00  0.00    +0.000 A 
ATOM     13  C   UNL     1      -2.814  10.023  16.391  0.00  0.00    +0.000 A 
ATOM     14  C   UNL     1      -1.631  10.117  17.138  0.00  0.00    +0.000 A 
ATOM     15  C   UNL     1      -1.573  10.851  18.329  0.00  0.00    +0.000 A 
ENDBRANCH   5   6
ENDBRANCH   2   5
ENDBRANCH   1   2
BRANCH   1  16
ATOM     16  O   UNL     1       2.664   7.503  19.418  0.00  0.00    +0.000 OA
BRANCH  16  17
ATOM     17  C   UNL     1       2.392   6.167  19.576  0.00  0.00    +0.000 A 
ATOM     18  C   UNL     1       1.560   5.633  20.575  0.00  0.00    +0.000 A 
ATOM     19  C   UNL     1       1.301   4.263  20.650  0.00  0.00    +0.000 A 
ATOM     20  C   UNL     1       1.850   3.372  19.728  0.00  0.00    +0.000 A 
ATOM     21  C   UNL     1       2.692   3.906  18.747  0.00  0.00    +0.000 A 
ATOM     22  N   UNL     1       3.361   3.275  17.723  0.00  0.00    +0.000 N 
ATOM     23  C   UNL     1       4.116   4.168  17.001  0.00  0.00    +0.000 A 
ATOM     24  C   UNL     1       4.950   3.962  15.896  0.00  0.00    +0.000 A 
ATOM     25  C   UNL     1       5.625   5.071  15.378  0.00  0.00    +0.000 A 
ATOM     26  C   UNL     1       5.470   6.334  15.943  0.00  0.00    +0.000 A 
ATOM     27  C   UNL     1       4.620   6.522  17.037  0.00  0.00    +0.000 A 
ATOM     28  C   UNL     1       3.922   5.422  17.578  0.00  0.00    +0.000 A 
ATOM     29  C   UNL     1       2.993   5.265  18.662  0.00  0.00    +0.000 A 
ATOM     30  H   UNL     1       3.313   2.285  17.533  0.00  0.00    +0.000 HD
ENDBRANCH  16  17
ENDBRANCH   1  16
TORSDOF 6
ENDMDL
MODEL 4
REMARK VINA RESULT:      -8.4      1.951      2.665
REMARK  Name = 
REMARK  6 active torsions:
REMARK  status: ('A' for Active; 'I' for Inactive)
REMARK    1  A    between atoms: O_1  and  C_2
REMARK    2  A    between atoms: C_2  and  C_3
REMARK    3  A    between atoms: C_2  and  C_18
REMARK    4  A    between atoms: C_3  and  O_4
REMARK    5  A    between atoms: O_4  and  C_5
REMARK    6  A    between atoms: C_18  and  N_19
REMARK                            x       y       z     vdW  Elec       q    Type
REMARK                         _______ _______ _______ _____ _____    ______ ____
ROOT
ATOM      1  C   UNL     1       2.435   8.184  17.754  0.00  0.00    +0.000 C 
ENDROOT
BRANCH   1   2
ATOM      2  C   UNL     1       2.013   9.235  18.790  0.00  0.00    +0.000 C 
BRANCH   2   3
ATOM      3  O   UNL     1       1.087   8.627  19.707  0.00  0.00    +0.000 OA
ATOM      4  H   UNL     1       1.596   8.474  20.525  0.00  0.00    +0.000 HD
ENDBRANCH   2   3
BRANCH   2   5
ATOM      5  C   UNL     1       1.354  10.425  18.061  0.00  0.00    +0.000 C 
BRANCH   5   6
ATOM      6  N   UNL     1       0.192  10.952  18.773  0.00  0.00    +0.000 N 
ATOM      7  C   UNL     1       0.404  11.781  19.957  0.00  0.00    +0.000 C 
ATOM      8  C   UNL     1      -0.417  13.058  19.847  0.00  0.00    +0.000 C 
ATOM      9  O   UNL     1      -1.822  12.777  19.752  0.00  0.00    +0.000 OA
ATOM     10  C   UNL     1      -2.102  11.764  18.858  0.00  0.00    +0.000 A 
ATOM     11  C   UNL     1      -3.452  11.651  18.506  0.00  0.00    +0.000 A 
ATOM     12  C   UNL     1      -3.860  10.661  17.620  0.00  0.00    +0.000 A 
ATOM     13  C   UNL     1      -2.918   9.793  17.078  0.00  0.00    +0.000 A 
ATOM     14  C   UNL     1      -1.566   9.910  17.430  0.00  0.00    +0.000 A 
ATOM     15  C   UNL     1      -1.125  10.880  18.338  0.00  0.00    +0.000 A 
ENDBRANCH   5   6
ENDBRANCH   2   5
ENDBRANCH   1   2
BRANCH   1  16
ATOM     16  O   UNL     1       3.512   7.409  18.288  0.00  0.00    +0.000 OA
BRANCH  16  17
ATOM     17  C   UNL     1       4.015   6.408  17.494  0.00  0.00    +0.000 A 
ATOM     18  C   UNL     1       4.896   6.607  16.418  0.00  0.00    +0.000 A 
ATOM     19  C   UNL     1       5.395   5.534  15.678  0.00  0.00    +0.000 A 
ATOM     20  C   UNL     1       5.046   4.219  15.986  0.00  0.00    +0.000 A 
ATOM     21  C   UNL     1       4.153   4.027  17.046  0.00  0.00    +0.000 A 
ATOM     22  N   UNL     1       3.642   2.860  17.566  0.00  0.00    +0.000 N 
ATOM     23  C   UNL     1       2.763   3.117  18.590  0.00  0.00    +0.000 A 
ATOM     24  C   UNL     1       2.016   2.238  19.384  0.00  0.00    +0.000 A 
ATOM     25  C   UNL     1       1.170   2.796  20.347  0.00  0.00    +0.000 A 
ATOM     26  C   UNL     1       1.076   4.175  20.508  0.00  0.00    +0.000 A 
ATOM     27  C   UNL     1       1.843   5.036  19.716  0.00  0.00    +0.000 A 
ATOM     28  C   UNL     1       2.709   4.502  18.740  0.00  0.00    +0.000 A 
ATOM     29  C   UNL     1       3.616   5.079  17.787  0.00  0.00    +0.000 A 
ATOM     30  H   UNL     1       3.874   1.935  17.232  0.00  0.00    +0.000 HD
ENDBRANCH  16  17
ENDBRANCH   1  16
TORSDOF 6
ENDMDL
MODEL 5
REMARK VINA RESULT:      -8.3      1.497      2.236
REMARK  Name = 
REMARK  6 active torsions:
REMARK  status: ('A' for Active; 'I' for Inactive)
REMARK    1  A    between atoms: O_1  and  C_2
REMARK    2  A    between atoms: C_2  and  C_3
REMARK    3  A    between atoms: C_2  and  C_18
REMARK    4  A    between atoms: C_3  and  O_4
REMARK    5  A    between atoms: O_4  and  C_5
REMARK    6  A    between atoms: C_18  and  N_19
REMARK                            x       y       z     vdW  Elec       q    Type
REMARK                         _______ _______ _______ _____ _____    ______ ____
ROOT
ATOM      1  C   UNL     1       2.262   8.259  18.661  0.00  0.00    +0.000 C 
ENDROOT
BRANCH   1   2
ATOM      2  C   UNL     1       1.675   9.349  17.752  0.00  0.00    +0.000 C 
BRANCH   2   3
ATOM      3  O   UNL     1       2.410  10.565  17.964  0.00  0.00    +0.000 OA
ATOM      4  H   UNL     1       2.340  11.059  17.126  0.00  0.00    +0.000 HD
ENDBRANCH   2   3
BRANCH   2   5
ATOM      5  C   UNL     1       0.184   9.546  18.099  0.00  0.00    +0.000 C 
BRANCH   5   6
ATOM      6  N   UNL     1      -0.033  10.609  19.078  0.00  0.00    +0.000 N 
ATOM      7  C   UNL     1      -0.135  11.990  18.611  0.00  0.00    +0.000 C 
ATOM      8  C   UNL     1      -1.374  12.646  19.205  0.00  0.00    +0.000 C 
ATOM      9  O   UNL     1      -1.322  12.669  20.640  0.00  0.00    +0.000 OA
ATOM     10  C   UNL     1      -0.924  11.462  21.177  0.00  0.00    +0.000 A 
ATOM     11  C   UNL     1      -1.140  11.334  22.554  0.00  0.00    +0.000 A 
ATOM     12  C   UNL     1      -0.771  10.168  23.212  0.00  0.00    +0.000 A 
ATOM     13  C   UNL     1      -0.197   9.125  22.491  0.00  0.00    +0.000 A 
ATOM     14  C   UNL     1       0.016   9.254  21.111  0.00  0.00    +0.000 A 
ATOM     15  C   UNL     1      -0.323  10.425  20.423  0.00  0.00    +0.000 A 
ENDBRANCH   5   6
ENDBRANCH   2   5
ENDBRANCH   1   2
BRANCH   1  16
ATOM     16  O   UNL     1       2.260   7.014  17.957  0.00  0.00    +0.000 OA
BRANCH  16  17
ATOM     17  C   UNL     1       3.474   6.402  17.771  0.00  0.00    +0.000 A 
ATOM     18  C   UNL     1       4.478   6.863  16.902  0.00  0.00    +0.000 A 
ATOM     19  C   UNL     1       5.705   6.206  16.793  0.00  0.00    +0.000 A 
ATOM     20  C   UNL     1       5.986   5.070  17.553  0.00  0.00    +0.000 A 
ATOM     21  C   UNL     1       4.977   4.604  18.402  0.00  0.00    +0.000 A 
ATOM     22  N   UNL     1       4.975   3.525  19.257  0.00  0.00    +0.000 N 
ATOM     23  C   UNL     1       3.761   3.396  19.888  0.00  0.00    +0.000 A 
ATOM     24  C   UNL     1       3.322   2.446  20.818  0.00  0.00    +0.000 A 
ATOM     25  C   UNL     1       2.005   2.550  21.275  0.00  0.00    +0.000 A 
ATOM     26  C   UNL     1       1.164   3.561  20.820  0.00  0.00    +0.000 A 
ATOM     27  C   UNL     1       1.627   4.509  19.903  0.00  0.00    +0.000 A 
ATOM     28  C   UNL     1       2.953   4.434  19.428  0.00  0.00    +0.000 A 
ATOM     29  C   UNL     1       3.732   5.221  18.513  0.00  0.00    +0.000 A 
ATOM     30  H   UNL     1       5.759   2.903  19.394  0.00  0.00    +0.000 HD
ENDBRANCH  16  17
ENDBRANCH   1  16
TORSDOF 6
ENDMDL
MODEL 6
REMARK VINA RESULT:      -8.2      1.632      2.165
REMARK  Name = 
REMARK  6 active torsions:
REMARK  status: ('A' for Active; 'I' for Inactive)
REMARK    1  A    between atoms: O_1  and  C_2
REMARK    2  A    between atoms: C_2  and  C_3
REMARK    3  A    between atoms: C_2  and  C_18
REMARK    4  A    between atoms: C_3  and  O_4
REMARK    5  A    between atoms: O_4  and  C_5
REMARK    6  A    between atoms: C_18  and  N_19
REMARK                            x       y       z     vdW  Elec       q    Type
REMARK                         _______ _______ _______ _____ _____    ______ ____
ROOT
ATOM      1  C   UNL     1       3.194   8.609  17.561  0.00  0.00    +0.000 C 
ENDROOT
BRANCH   1   2
ATOM      2  C   UNL     1       1.845   9.302  17.797  0.00  0.00    +0.000 C 
BRANCH   2   3
ATOM      3  O   UNL     1       2.021  10.717  17.620  0.00  0.00    +0.000 OA
ATOM      4  H   UNL     1       1.761  10.897  16.698  0.00  0.00    +0.000 HD
ENDBRANCH   2   3
BRANCH   2   5
ATOM      5  C   UNL     1       1.360   8.988  19.229  0.00  0.00    +0.000 C 
BRANCH   5   6
ATOM      6  N   UNL     1       0.459  10.010  19.758  0.00  0.00    +0.000 N 
ATOM      7  C   UNL     1       0.862  10.761  20.945  0.00  0.00    +0.000 C 
ATOM      8  C   UNL     1       0.688  12.253  20.696  0.00  0.00    +0.000 C 
ATOM      9  O   UNL     1      -0.678  12.585  20.406  0.00  0.00    +0.000 OA
ATOM     10  C   UNL     1      -1.256  11.719  19.500  0.00  0.00    +0.000 A 
ATOM     11  C   UNL     1      -2.470  12.159  18.961  0.00  0.00    +0.000 A 
ATOM     12  C   UNL     1      -3.153  11.369  18.045  0.00  0.00    +0.000 A 
ATOM     13  C   UNL     1      -2.616  10.145  17.659  0.00  0.00    +0.000 A 
ATOM     14  C   UNL     1      -1.398   9.707  18.198  0.00  0.00    +0.000 A 
ATOM     15  C   UNL     1      -0.698  10.468  19.141  0.00  0.00    +0.000 A 
ENDBRANCH   5   6
ENDBRANCH   2   5
ENDBRANCH   1   2
BRANCH   1  16
ATOM     16  O   UNL     1       3.144   7.291  18.116  0.00  0.00    +0.000 OA
BRANCH  16  17
ATOM     17  C   UNL     1       3.858   6.314  17.467  0.00  0.00    +0.000 A 
ATOM     18  C   UNL     1       4.785   6.550  16.437  0.00  0.00    +0.000 A 
ATOM     19  C   UNL     1       5.502   5.507  15.850  0.00  0.00    +0.000 A 
ATOM     20  C   UNL     1       5.332   4.187  16.270  0.00  0.00    +0.000 A 
ATOM     21  C   UNL     1       4.394   3.955  17.281  0.00  0.00    +0.000 A 
ATOM     22  N   UNL     1       4.026   2.774  17.885  0.00  0.00    +0.000 N 
ATOM     23  C   UNL     1       3.035   2.982  18.815  0.00  0.00    +0.000 A 
ATOM     24  C   UNL     1       2.368   2.072  19.644  0.00  0.00    +0.000 A 
ATOM     25  C   UNL     1       1.370   2.575  20.484  0.00  0.00    +0.000 A 
ATOM     26  C   UNL     1       1.054   3.930  20.493  0.00  0.00    +0.000 A 
ATOM     27  C   UNL     1       1.743   4.824  19.669  0.00  0.00    +0.000 A 
ATOM     28  C   UNL     1       2.759   4.348  18.815  0.00  0.00    +0.000 A 
ATOM     29  C   UNL     1       3.643   4.971  17.870  0.00  0.00    +0.000 A 
ATOM     30  H   UNL     1       4.423   1.871  17.667  0.00  0.00    +0.000 HD
ENDBRANCH  16  17
ENDBRANCH   1  16
TORSDOF 6
ENDMDL
MODEL 7
REMARK VINA RESULT:      -8.2      1.916      2.423
REMARK  Name = 
REMARK  6 active torsions:
REMARK  status: ('A' for Active; 'I' for Inactive)
REMARK    1  A    between atoms: O_1  and  C_2
REMARK    2  A    between atoms: C_2  and  C_3
REMARK    3  A    between atoms: C_2  and  C_18
REMARK    4  A    between atoms: C_3  and  O_4
REMARK    5  A    between atoms: O_4  and  C_5
REMARK    6  A    between atoms: C_18  and  N_19
REMARK                            x       y       z     vdW  Elec       q    Type
REMARK                         _______ _______ _______ _____ _____    ______ ____
ROOT
ATOM      1  C   UNL     1       2.729   8.202  18.354  0.00  0.00    +0.000 C 
ENDROOT
BRANCH   1   2
ATOM      2  C   UNL     1       1.558   9.091  17.911  0.00  0.00    +0.000 C 
BRANCH   2   3
ATOM      3  O   UNL     1       2.091  10.290  17.326  0.00  0.00    +0.000 OA
ATOM      4  H   UNL     1       2.136  10.113  16.369  0.00  0.00    +0.000 HD
ENDBRANCH   2   3
BRANCH   2   5
ATOM      5  C   UNL     1       0.687   9.425  19.141  0.00  0.00    +0.000 C 
BRANCH   5   6
ATOM      6  N   UNL     1      -0.413  10.334  18.824  0.00  0.00    +0.000 N 
ATOM      7  C   UNL     1      -1.189  10.108  17.606  0.00  0.00    +0.000 C 
ATOM      8  C   UNL     1      -2.676  10.125  17.930  0.00  0.00    +0.000 C 
ATOM      9  O   UNL     1      -3.082  11.386  18.484  0.00  0.00    +0.000 OA
ATOM     10  C   UNL     1      -2.216  11.844  19.456  0.00  0.00    +0.000 A 
ATOM     11  C   UNL     1      -2.709  12.901  20.228  0.00  0.00    +0.000 A 
ATOM     12  C   UNL     1      -1.925  13.455  21.232  0.00  0.00    +0.000 A 
ATOM     13  C   UNL     1      -0.653  12.945  21.471  0.00  0.00    +0.000 A 
ATOM     14  C   UNL     1      -0.162  11.884  20.698  0.00  0.00    +0.000 A 
ATOM     15  C   UNL     1      -0.917  11.319  19.663  0.00  0.00    +0.000 A 
ENDBRANCH   5   6
ENDBRANCH   2   5
ENDBRANCH   1   2
BRANCH   1  16
ATOM     16  O   UNL     1       2.615   6.928  17.714  0.00  0.00    +0.000 OA
BRANCH  16  17
ATOM     17  C   UNL     1       3.767   6.196  17.571  0.00  0.00    +0.000 A 
ATOM     18  C   UNL     1       4.810   6.511  16.684  0.00  0.00    +0.000 A 
ATOM     19  C   UNL     1       5.971   5.739  16.621  0.00  0.00    +0.000 A 
ATOM     20  C   UNL     1       6.146   4.628  17.447  0.00  0.00    +0.000 A 
ATOM     21  C   UNL     1       5.097   4.307  18.314  0.00  0.00    +0.000 A 
ATOM     22  N   UNL     1       4.994   3.283  19.229  0.00  0.00    +0.000 N 
ATOM     23  C   UNL     1       3.772   3.303  19.859  0.00  0.00    +0.000 A 
ATOM     24  C   UNL     1       3.245   2.454  20.839  0.00  0.00    +0.000 A 
ATOM     25  C   UNL     1       1.944   2.705  21.281  0.00  0.00    +0.000 A 
ATOM     26  C   UNL     1       1.200   3.761  20.762  0.00  0.00    +0.000 A 
ATOM     27  C   UNL     1       1.750   4.608  19.796  0.00  0.00    +0.000 A 
ATOM     28  C   UNL     1       3.064   4.383  19.335  0.00  0.00    +0.000 A 
ATOM     29  C   UNL     1       3.914   5.041  18.382  0.00  0.00    +0.000 A 
ATOM     30  H   UNL     1       5.716   2.600  19.408  0.00  0.00    +0.000 HD
ENDBRANCH  16  17
ENDBRANCH   1  16
TORSDOF 6
ENDMDL
MODEL 8
REMARK VINA RESULT:      -8.2      2.638      8.368
REMARK  Name = 
REMARK  6 active torsions:
REMARK  status: ('A' for Active; 'I' for Inactive)
REMARK    1  A    between atoms: O_1  and  C_2
REMARK    2  A    between atoms: C_2  and  C_3
REMARK    3  A    between atoms: C_2  and  C_18
REMARK    4  A    between atoms: C_3  and  O_4
REMARK    5  A    between atoms: O_4  and  C_5
REMARK    6  A    between atoms: C_18  and  N_19
REMARK                            x       y       z     vdW  Elec       q    Type
REMARK                         _______ _______ _______ _____ _____    ______ ____
ROOT
ATOM      1  C   UNL     1       1.930   9.015  18.995  0.00  0.00    +0.000 C 
ENDROOT
BRANCH   1   2
ATOM      2  C   UNL     1       2.187   7.502  18.945  0.00  0.00    +0.000 C 
BRANCH   2   3
ATOM      3  O   UNL     1       2.755   7.093  20.200  0.00  0.00    +0.000 OA
ATOM      4  H   UNL     1       3.719   7.067  20.051  0.00  0.00    +0.000 HD
ENDBRANCH   2   3
BRANCH   2   5
ATOM      5  C   UNL     1       3.156   7.194  17.782  0.00  0.00    +0.000 C 
BRANCH   5   6
ATOM      6  N   UNL     1       3.870   5.932  17.961  0.00  0.00    +0.000 N 
ATOM      7  C   UNL     1       5.331   5.948  18.019  0.00  0.00    +0.000 C 
ATOM      8  C   UNL     1       5.808   5.164  19.233  0.00  0.00    +0.000 C 
ATOM      9  O   UNL     1       5.385   3.793  19.176  0.00  0.00    +0.000 OA
ATOM     10  C   UNL     1       4.059   3.660  18.817  0.00  0.00    +0.000 A 
ATOM     11  C   UNL     1       3.519   2.388  19.033  0.00  0.00    +0.000 A 
ATOM     12  C   UNL     1       2.196   2.127  18.700  0.00  0.00    +0.000 A 
ATOM     13  C   UNL     1       1.410   3.142  18.164  0.00  0.00    +0.000 A 
ATOM     14  C   UNL     1       1.952   4.417  17.951  0.00  0.00    +0.000 A 
ATOM     15  C   UNL     1       3.288   4.705  18.252  0.00  0.00    +0.000 A 
ENDBRANCH   5   6
ENDBRANCH   2   5
ENDBRANCH   1   2
BRANCH   1  16
ATOM     16  O   UNL     1       0.544   9.261  18.741  0.00  0.00    +0.000 OA
BRANCH  16  17
ATOM     17  C   UNL     1      -0.080  10.189  19.536  0.00  0.00    +0.000 A 
ATOM     18  C   UNL     1       0.375  10.593  20.803  0.00  0.00    +0.000 A 
ATOM     19  C   UNL     1      -0.295  11.573  21.539  0.00  0.00    +0.000 A 
ATOM     20  C   UNL     1      -1.437  12.198  21.038  0.00  0.00    +0.000 A 
ATOM     21  C   UNL     1      -1.897  11.779  19.785  0.00  0.00    +0.000 A 
ATOM     22  N   UNL     1      -2.981  12.213  19.055  0.00  0.00    +0.000 N 
ATOM     23  C   UNL     1      -3.100  11.509  17.881  0.00  0.00    +0.000 A 
ATOM     24  C   UNL     1      -4.050  11.611  16.858  0.00  0.00    +0.000 A 
ATOM     25  C   UNL     1      -3.935  10.732  15.778  0.00  0.00    +0.000 A 
ATOM     26  C   UNL     1      -2.912   9.789  15.725  0.00  0.00    +0.000 A 
ATOM     27  C   UNL     1      -1.964   9.713  16.750  0.00  0.00    +0.000 A 
ATOM     28  C   UNL     1      -2.051  10.592  17.850  0.00  0.00    +0.000 A 
ATOM     29  C   UNL     1      -1.268  10.784  19.038  0.00  0.00    +0.000 A 
ATOM     30  H   UNL     1      -3.612  12.944  19.348  0.00  0.00    +0.000 HD
ENDBRANCH  16  17
ENDBRANCH   1  16
TORSDOF 6
ENDMDL
MODEL 9
REMARK VINA RESULT:      -8.1      1.384      3.868
REMARK  Name = 
REMARK  6 active torsions:
REMARK  status: ('A' for Active; 'I' for Inactive)
REMARK    1  A    between atoms: O_1  and  C_2
REMARK    2  A    between atoms: C_2  and  C_3
REMARK    3  A    between atoms: C_2  and  C_18
REMARK    4  A    between atoms: C_3  and  O_4
REMARK    5  A    between atoms: O_4  and  C_5
REMARK    6  A    between atoms: C_18  and  N_19
REMARK                            x       y       z     vdW  Elec       q    Type
REMARK                         _______ _______ _______ _____ _____    ______ ____
ROOT
ATOM      1  C   UNL     1       1.340   6.898  21.168  0.00  0.00    +0.000 C 
ENDROOT
BRANCH   1   2
ATOM      2  C   UNL     1       1.286   8.432  21.105  0.00  0.00    +0.000 C 
BRANCH   2   3
ATOM      3  O   UNL     1       1.992   8.961  22.239  0.00  0.00    +0.000 OA
ATOM      4  H   UNL     1       1.371   9.582  22.663  0.00  0.00    +0.000 HD
ENDBRANCH   2   3
BRANCH   2   5
ATOM      5  C   UNL     1      -0.190   8.884  21.122  0.00  0.00    +0.000 C 
BRANCH   5   6
ATOM      6  N   UNL     1      -0.393  10.177  20.472  0.00  0.00    +0.000 N 
ATOM      7  C   UNL     1      -0.204  10.279  19.026  0.00  0.00    +0.000 C 
ATOM      8  C   UNL     1      -1.404  10.972  18.396  0.00  0.00    +0.000 C 
ATOM      9  O   UNL     1      -1.578  12.300  18.913  0.00  0.00    +0.000 OA
ATOM     10  C   UNL     1      -1.463  12.357  20.286  0.00  0.00    +0.000 A 
ATOM     11  C   UNL     1      -1.912  13.550  20.863  0.00  0.00    +0.000 A 
ATOM     12  C   UNL     1      -1.837  13.730  22.239  0.00  0.00    +0.000 A 
ATOM     13  C   UNL     1      -1.325  12.713  23.038  0.00  0.00    +0.000 A 
ATOM     14  C   UNL     1      -0.878  11.517  22.458  0.00  0.00    +0.000 A 
ATOM     15  C   UNL     1      -0.917  11.314  21.074  0.00  0.00    +0.000 A 
ENDBRANCH   5   6
ENDBRANCH   2   5
ENDBRANCH   1   2
BRANCH   1  16
ATOM     16  O   UNL     1       1.983   6.406  19.989  0.00  0.00    +0.000 OA
BRANCH  16  17
ATOM     17  C   UNL     1       1.946   5.050  19.778  0.00  0.00    +0.000 A 
ATOM     18  C   UNL     1       1.176   4.145  20.529  0.00  0.00    +0.000 A 
ATOM     19  C   UNL     1       1.160   2.781  20.230  0.00  0.00    +0.000 A 
ATOM     20  C   UNL     1       1.901   2.266  19.166  0.00  0.00    +0.000 A 
ATOM     21  C   UNL     1       2.680   3.168  18.435  0.00  0.00    +0.000 A 
ATOM     22  N   UNL     1       3.498   2.946  17.349  0.00  0.00    +0.000 N 
ATOM     23  C   UNL     1       4.115   4.106  16.950  0.00  0.00    +0.000 A 
ATOM     24  C   UNL     1       5.023   4.336  15.909  0.00  0.00    +0.000 A 
ATOM     25  C   UNL     1       5.514   5.635  15.753  0.00  0.00    +0.000 A 
ATOM     26  C   UNL     1       5.112   6.662  16.603  0.00  0.00    +0.000 A 
ATOM     27  C   UNL     1       4.192   6.416  17.626  0.00  0.00    +0.000 A 
ATOM     28  C   UNL     1       3.675   5.115  17.804  0.00  0.00    +0.000 A 
ATOM     29  C   UNL     1       2.739   4.530  18.724  0.00  0.00    +0.000 A 
ATOM     30  H   UNL     1       3.635   2.047  16.911  0.00  0.00    +0.000 HD
ENDBRANCH  16  17
ENDBRANCH   1  16
TORSDOF 6
ENDMDL
