MODEL 1
REMARK VINA RESULT:      -7.6      0.000      0.000
REMARK  Name = 
REMARK  5 active torsions:
REMARK  status: ('A' for Active; 'I' for Inactive)
REMARK    1  A    between atoms: C_2  and  C_12
REMARK    2  A    between atoms: N_3  and  C_4
REMARK    3  A    between atoms: C_4  and  C_5
REMARK    4  A    between atoms: C_5  and  C_6
REMARK    5  A    between atoms: C_15  and  C_16
REMARK                            x       y       z     vdW  Elec       q    Type
REMARK                         _______ _______ _______ _____ _____    ______ ____
ROOT
ATOM      1  O   UNL     1       8.264   5.840  19.386  0.00  0.00    +0.000 OA
ATOM      2  C   UNL     1       7.608   6.284  18.447  0.00  0.00    +0.000 C 
ATOM      3  N   UNL     1       7.775   7.558  17.946  0.00  0.00    +0.000 N 
ATOM      4  H   UNL     1       7.137   7.848  17.211  0.00  0.00    +0.000 HD
ENDROOT
BRANCH   2   5
ATOM      5  C   UNL     1       6.569   5.500  17.773  0.00  0.00    +0.000 A 
ATOM      6  C   UNL     1       6.587   5.230  16.417  0.00  0.00    +0.000 A 
ATOM      7  S   UNL     1       5.235   4.285  15.979  0.00  0.00    +0.000 S 
ATOM      8  C   UNL     1       4.707   4.275  17.622  0.00  0.00    +0.000 A 
ATOM      9  N   UNL     1       5.471   4.963  18.454  0.00  0.00    +0.000 NA
BRANCH   8  10
ATOM     10  C   UNL     1       3.478   3.575  18.013  0.00  0.00    +0.000 A 
ATOM     11  C   UNL     1       2.228   4.144  17.745  0.00  0.00    +0.000 A 
ATOM     12  C   UNL     1       1.060   3.494  18.141  0.00  0.00    +0.000 A 
ATOM     13  C   UNL     1       1.174   2.285  18.804  0.00  0.00    +0.000 A 
ATOM     14  N   UNL     1       2.355   1.696  19.083  0.00  0.00    +0.000 NA
ATOM     15  C   UNL     1       3.473   2.353  18.685  0.00  0.00    +0.000 A 
ENDBRANCH   8  10
ENDBRANCH   2   5
BRANCH   3  16
ATOM     16  C   UNL     1       8.729   8.467  18.549  0.00  0.00    +0.000 C 
BRANCH  16  17
ATOM     17  C   UNL     1       8.525   9.924  18.137  0.00  0.00    +0.000 C 
BRANCH  17  18
ATOM     18  C   UNL     1       9.622  10.819  18.662  0.00  0.00    +0.000 A 
ATOM     19  C   UNL     1      10.534  11.419  17.789  0.00  0.00    +0.000 A 
ATOM     20  C   UNL     1      11.533  12.225  18.317  0.00  0.00    +0.000 A 
ATOM     21  N   UNL     1      11.687  12.464  19.637  0.00  0.00    +0.000 NA
ATOM     22  C   UNL     1      10.804  11.869  20.465  0.00  0.00    +0.000 A 
ATOM     23  C   UNL     1       9.772  11.049  20.033  0.00  0.00    +0.000 A 
ENDBRANCH  17  18
ENDBRANCH  16  17
ENDBRANCH   3  16
TORSDOF 5
ENDMDL
MODEL 2
REMARK VINA RESULT:      -7.4      5.889      8.908
REMARK  Name = 
REMARK  5 active torsions:
REMARK  status: ('A' for Active; 'I' for Inactive)
REMARK    1  A    between atoms: C_2  and  C_12
REMARK    2  A    between atoms: N_3  and  C_4
REMARK    3  A    between atoms: C_4  and  C_5
REMARK    4  A    between atoms: C_5  and  C_6
REMARK    5  A    between atoms: C_15  and  C_16
REMARK                            x       y       z     vdW  Elec       q    Type
REMARK                         _______ _______ _______ _____ _____    ______ ____
ROOT
ATOM      1  O   UNL     1       4.240   5.897  19.041  0.00  0.00    +0.000 OA
ATOM      2  C   UNL     1       3.177   6.173  18.491  0.00  0.00    +0.000 C 
ATOM      3  N   UNL     1       2.554   5.333  17.592  0.00  0.00    +0.000 N 
ATOM      4  H   UNL     1       1.712   5.684  17.145  0.00  0.00    +0.000 HD
ENDROOT
BRANCH   2   5
ATOM      5  C   UNL     1       2.471   7.435  18.729  0.00  0.00    +0.000 A 
ATOM      6  C   UNL     1       2.328   8.414  17.763  0.00  0.00    +0.000 A 
ATOM      7  S   UNL     1       1.442   9.735  18.381  0.00  0.00    +0.000 S 
ATOM      8  C   UNL     1       1.283   8.924  19.896  0.00  0.00    +0.000 A 
ATOM      9  N   UNL     1       1.883   7.747  19.960  0.00  0.00    +0.000 NA
BRANCH   8  10
ATOM     10  C   UNL     1       0.562   9.547  21.011  0.00  0.00    +0.000 A 
ATOM     11  C   UNL     1      -0.402  10.532  20.764  0.00  0.00    +0.000 A 
ATOM     12  C   UNL     1      -1.068  11.145  21.824  0.00  0.00    +0.000 A 
ATOM     13  C   UNL     1      -0.748  10.759  23.113  0.00  0.00    +0.000 A 
ATOM     14  N   UNL     1       0.171   9.815  23.401  0.00  0.00    +0.000 NA
ATOM     15  C   UNL     1       0.802   9.236  22.349  0.00  0.00    +0.000 A 
ENDBRANCH   8  10
ENDBRANCH   2   5
BRANCH   3  16
ATOM     16  C   UNL     1       3.163   4.073  17.217  0.00  0.00    +0.000 C 
BRANCH  16  17
ATOM     17  C   UNL     1       2.376   2.852  17.691  0.00  0.00    +0.000 C 
BRANCH  17  18
ATOM     18  C   UNL     1       2.305   2.774  19.197  0.00  0.00    +0.000 A 
ATOM     19  C   UNL     1       3.446   2.489  19.953  0.00  0.00    +0.000 A 
ATOM     20  C   UNL     1       3.331   2.415  21.334  0.00  0.00    +0.000 A 
ATOM     21  N   UNL     1       2.173   2.596  22.002  0.00  0.00    +0.000 NA
ATOM     22  C   UNL     1       1.080   2.861  21.257  0.00  0.00    +0.000 A 
ATOM     23  C   UNL     1       1.095   2.956  19.873  0.00  0.00    +0.000 A 
ENDBRANCH  17  18
ENDBRANCH  16  17
ENDBRANCH   3  16
TORSDOF 5
ENDMDL
MODEL 3
REMARK VINA RESULT:      -7.4      1.557      1.862
REMARK  Name = 
REMARK  5 active torsions:
REMARK  status: ('A' for Active; 'I' for Inactive)
REMARK    1  A    between atoms: C_2  and  C_12
REMARK    2  A    between atoms: N_3  and  C_4
REMARK    3  A    between atoms: C_4  and  C_5
REMARK    4  A    between atoms: C_5  and  C_6
REMARK    5  A    between atoms: C_15  and  C_16
REMARK                            x       y       z     vdW  Elec       q    Type
REMARK                         _______ _______ _______ _____ _____    ______ ____
ROOT
ATOM      1  O   UNL     1       7.665   6.409  16.120  0.00  0.00    +0.000 OA
ATOM      2  C   UNL     1       6.995   6.346  17.147  0.00  0.00    +0.000 C 
ATOM      3  N   UNL     1       7.284   7.075  18.282  0.00  0.00    +0.000 N 
ATOM      4  H   UNL     1       6.706   6.901  19.098  0.00  0.00    +0.000 HD
ENDROOT
BRANCH   2   5
ATOM      5  C   UNL     1       5.822   5.475  17.272  0.00  0.00    +0.000 A 
ATOM      6  C   UNL     1       5.266   4.799  16.201  0.00  0.00    +0.000 A 
ATOM      7  S   UNL     1       3.927   3.873  16.712  0.00  0.00    +0.000 S 
ATOM      8  C   UNL     1       4.171   4.410  18.334  0.00  0.00    +0.000 A 
ATOM      9  N   UNL     1       5.171   5.260  18.492  0.00  0.00    +0.000 NA
BRANCH   8  10
ATOM     10  C   UNL     1       3.287   3.961  19.416  0.00  0.00    +0.000 A 
ATOM     11  C   UNL     1       2.046   4.578  19.613  0.00  0.00    +0.000 A 
ATOM     12  C   UNL     1       1.218   4.171  20.657  0.00  0.00    +0.000 A 
ATOM     13  C   UNL     1       1.656   3.154  21.487  0.00  0.00    +0.000 A 
ATOM     14  N   UNL     1       2.842   2.530  21.337  0.00  0.00    +0.000 NA
ATOM     15  C   UNL     1       3.626   2.947  20.311  0.00  0.00    +0.000 A 
ENDBRANCH   8  10
ENDBRANCH   2   5
BRANCH   3  16
ATOM     16  C   UNL     1       8.447   7.939  18.325  0.00  0.00    +0.000 C 
BRANCH  16  17
ATOM     17  C   UNL     1       8.139   9.392  17.968  0.00  0.00    +0.000 C 
BRANCH  17  18
ATOM     18  C   UNL     1       9.125  10.350  18.595  0.00  0.00    +0.000 A 
ATOM     19  C   UNL     1       9.202  10.489  19.984  0.00  0.00    +0.000 A 
ATOM     20  C   UNL     1      10.114  11.390  20.515  0.00  0.00    +0.000 A 
ATOM     21  N   UNL     1      10.937  12.155  19.768  0.00  0.00    +0.000 NA
ATOM     22  C   UNL     1      10.843  12.014  18.429  0.00  0.00    +0.000 A 
ATOM     23  C   UNL     1       9.964  11.141  17.805  0.00  0.00    +0.000 A 
ENDBRANCH  17  18
ENDBRANCH  16  17
ENDBRANCH   3  16
TORSDOF 5
ENDMDL
MODEL 4
REMARK VINA RESULT:      -7.4      5.834      8.907
REMARK  Name = 
REMARK  5 active torsions:
REMARK  status: ('A' for Active; 'I' for Inactive)
REMARK    1  A    between atoms: C_2  and  C_12
REMARK    2  A    between atoms: N_3  and  C_4
REMARK    3  A    between atoms: C_4  and  C_5
REMARK    4  A    between atoms: C_5  and  C_6
REMARK    5  A    between atoms: C_15  and  C_16
REMARK                            x       y       z     vdW  Elec       q    Type
REMARK                         _______ _______ _______ _____ _____    ______ ____
ROOT
ATOM      1  O   UNL     1       4.322   5.774  18.819  0.00  0.00    +0.000 OA
ATOM      2  C   UNL     1       3.212   6.052  18.373  0.00  0.00    +0.000 C 
ATOM      3  N   UNL     1       2.480   5.192  17.582  0.00  0.00    +0.000 N 
ATOM      4  H   UNL     1       1.602   5.544  17.212  0.00  0.00    +0.000 HD
ENDROOT
BRANCH   2   5
ATOM      5  C   UNL     1       2.560   7.340  18.629  0.00  0.00    +0.000 A 
ATOM      6  C   UNL     1       2.519   8.364  17.701  0.00  0.00    +0.000 A 
ATOM      7  S   UNL     1       1.671   9.704  18.330  0.00  0.00    +0.000 S 
ATOM      8  C   UNL     1       1.392   8.842  19.799  0.00  0.00    +0.000 A 
ATOM      9  N   UNL     1       1.926   7.633  19.842  0.00  0.00    +0.000 NA
BRANCH   8  10
ATOM     10  C   UNL     1       0.646   9.457  20.902  0.00  0.00    +0.000 A 
ATOM     11  C   UNL     1       0.759   8.945  22.200  0.00  0.00    +0.000 A 
ATOM     12  C   UNL     1       0.030   9.511  23.245  0.00  0.00    +0.000 A 
ATOM     13  C   UNL     1      -0.803  10.580  22.962  0.00  0.00    +0.000 A 
ATOM     14  N   UNL     1      -0.943  11.109  21.729  0.00  0.00    +0.000 NA
ATOM     15  C   UNL     1      -0.220  10.537  20.734  0.00  0.00    +0.000 A 
ENDBRANCH   8  10
ENDBRANCH   2   5
BRANCH   3  16
ATOM     16  C   UNL     1       3.021   3.903  17.200  0.00  0.00    +0.000 C 
BRANCH  16  17
ATOM     17  C   UNL     1       2.238   2.721  17.770  0.00  0.00    +0.000 C 
BRANCH  17  18
ATOM     18  C   UNL     1       2.285   2.686  19.279  0.00  0.00    +0.000 A 
ATOM     19  C   UNL     1       1.123   2.867  20.035  0.00  0.00    +0.000 A 
ATOM     20  C   UNL     1       1.215   2.840  21.419  0.00  0.00    +0.000 A 
ATOM     21  N   UNL     1       2.370   2.654  22.091  0.00  0.00    +0.000 NA
ATOM     22  C   UNL     1       3.484   2.491  21.346  0.00  0.00    +0.000 A 
ATOM     23  C   UNL     1       3.492   2.501  19.960  0.00  0.00    +0.000 A 
ENDBRANCH  17  18
ENDBRANCH  16  17
ENDBRANCH   3  16
TORSDOF 5
ENDMDL
MODEL 5
REMARK VINA RESULT:      -7.2      0.712      1.433
REMARK  Name = 
REMARK  5 active torsions:
REMARK  status: ('A' for Active; 'I' for Inactive)
REMARK    1  A    between atoms: C_2  and  C_12
REMARK    2  A    between atoms: N_3  and  C_4
REMARK    3  A    between atoms: C_4  and  C_5
REMARK    4  A    between atoms: C_5  and  C_6
REMARK    5  A    between atoms: C_15  and  C_16
REMARK                            x       y       z     vdW  Elec       q    Type
REMARK                         _______ _______ _______ _____ _____    ______ ____
ROOT
ATOM      1  O   UNL     1       8.317   6.112  19.257  0.00  0.00    +0.000 OA
ATOM      2  C   UNL     1       7.579   6.592  18.400  0.00  0.00    +0.000 C 
ATOM      3  N   UNL     1       7.691   7.890  17.950  0.00  0.00    +0.000 N 
ATOM      4  H   UNL     1       6.991   8.208  17.287  0.00  0.00    +0.000 HD
ENDROOT
BRANCH   2   5
ATOM      5  C   UNL     1       6.493   5.828  17.778  0.00  0.00    +0.000 A 
ATOM      6  C   UNL     1       6.415   5.597  16.417  0.00  0.00    +0.000 A 
ATOM      7  S   UNL     1       5.033   4.666  16.050  0.00  0.00    +0.000 S 
ATOM      8  C   UNL     1       4.623   4.608  17.725  0.00  0.00    +0.000 A 
ATOM      9  N   UNL     1       5.445   5.272  18.520  0.00  0.00    +0.000 NA
BRANCH   8  10
ATOM     10  C   UNL     1       3.423   3.897  18.181  0.00  0.00    +0.000 A 
ATOM     11  C   UNL     1       3.451   3.163  19.373  0.00  0.00    +0.000 A 
ATOM     12  C   UNL     1       2.320   2.464  19.793  0.00  0.00    +0.000 A 
ATOM     13  C   UNL     1       1.185   2.514  19.004  0.00  0.00    +0.000 A 
ATOM     14  N   UNL     1       1.110   3.209  17.850  0.00  0.00    +0.000 NA
ATOM     15  C   UNL     1       2.225   3.879  17.468  0.00  0.00    +0.000 A 
ENDBRANCH   8  10
ENDBRANCH   2   5
BRANCH   3  16
ATOM     16  C   UNL     1       8.686   8.781  18.513  0.00  0.00    +0.000 C 
BRANCH  16  17
ATOM     17  C   UNL     1       8.642  10.191  17.925  0.00  0.00    +0.000 C 
BRANCH  17  18
ATOM     18  C   UNL     1       9.724  11.076  18.498  0.00  0.00    +0.000 A 
ATOM     19  C   UNL     1       9.933  11.148  19.878  0.00  0.00    +0.000 A 
ATOM     20  C   UNL     1      10.930  11.984  20.360  0.00  0.00    +0.000 A 
ATOM     21  N   UNL     1      11.717  12.748  19.572  0.00  0.00    +0.000 NA
ATOM     22  C   UNL     1      11.494  12.673  18.243  0.00  0.00    +0.000 A 
ATOM     23  C   UNL     1      10.524  11.867  17.667  0.00  0.00    +0.000 A 
ENDBRANCH  17  18
ENDBRANCH  16  17
ENDBRANCH   3  16
TORSDOF 5
ENDMDL
MODEL 6
REMARK VINA RESULT:      -7.2      1.707      1.954
REMARK  Name = 
REMARK  5 active torsions:
REMARK  status: ('A' for Active; 'I' for Inactive)
REMARK    1  A    between atoms: C_2  and  C_12
REMARK    2  A    between atoms: N_3  and  C_4
REMARK    3  A    between atoms: C_4  and  C_5
REMARK    4  A    between atoms: C_5  and  C_6
REMARK    5  A    between atoms: C_15  and  C_16
REMARK                            x       y       z     vdW  Elec       q    Type
REMARK                         _______ _______ _______ _____ _____    ______ ____
ROOT
ATOM      1  O   UNL     1       7.638   6.421  16.101  0.00  0.00    +0.000 OA
ATOM      2  C   UNL     1       7.001   6.324  17.146  0.00  0.00    +0.000 C 
ATOM      3  N   UNL     1       7.281   7.070  18.272  0.00  0.00    +0.000 N 
ATOM      4  H   UNL     1       6.735   6.866  19.104  0.00  0.00    +0.000 HD
ENDROOT
BRANCH   2   5
ATOM      5  C   UNL     1       5.881   5.390  17.303  0.00  0.00    +0.000 A 
ATOM      6  C   UNL     1       5.478   4.520  16.307  0.00  0.00    +0.000 A 
ATOM      7  S   UNL     1       4.160   3.576  16.839  0.00  0.00    +0.000 S 
ATOM      8  C   UNL     1       4.208   4.367  18.372  0.00  0.00    +0.000 A 
ATOM      9  N   UNL     1       5.130   5.308  18.481  0.00  0.00    +0.000 NA
BRANCH   8  10
ATOM     10  C   UNL     1       3.255   4.015  19.430  0.00  0.00    +0.000 A 
ATOM     11  C   UNL     1       3.515   2.936  20.283  0.00  0.00    +0.000 A 
ATOM     12  C   UNL     1       2.597   2.584  21.270  0.00  0.00    +0.000 A 
ATOM     13  C   UNL     1       1.431   3.321  21.378  0.00  0.00    +0.000 A 
ATOM     14  N   UNL     1       1.136   4.369  20.581  0.00  0.00    +0.000 NA
ATOM     15  C   UNL     1       2.050   4.689  19.630  0.00  0.00    +0.000 A 
ENDBRANCH   8  10
ENDBRANCH   2   5
BRANCH   3  16
ATOM     16  C   UNL     1       8.396   7.996  18.283  0.00  0.00    +0.000 C 
BRANCH  16  17
ATOM     17  C   UNL     1       8.045   9.376  17.729  0.00  0.00    +0.000 C 
BRANCH  17  18
ATOM     18  C   UNL     1       8.804  10.477  18.431  0.00  0.00    +0.000 A 
ATOM     19  C   UNL     1       8.956  11.732  17.836  0.00  0.00    +0.000 A 
ATOM     20  C   UNL     1       9.673  12.710  18.512  0.00  0.00    +0.000 A 
ATOM     21  N   UNL     1      10.245  12.522  19.719  0.00  0.00    +0.000 NA
ATOM     22  C   UNL     1      10.097  11.301  20.274  0.00  0.00    +0.000 A 
ATOM     23  C   UNL     1       9.399  10.262  19.678  0.00  0.00    +0.000 A 
ENDBRANCH  17  18
ENDBRANCH  16  17
ENDBRANCH   3  16
TORSDOF 5
ENDMDL
MODEL 7
REMARK VINA RESULT:      -7.2      1.346      1.630
REMARK  Name = 
REMARK  5 active torsions:
REMARK  status: ('A' for Active; 'I' for Inactive)
REMARK    1  A    between atoms: C_2  and  C_12
REMARK    2  A    between atoms: N_3  and  C_4
REMARK    3  A    between atoms: C_4  and  C_5
REMARK    4  A    between atoms: C_5  and  C_6
REMARK    5  A    between atoms: C_15  and  C_16
REMARK                            x       y       z     vdW  Elec       q    Type
REMARK                         _______ _______ _______ _____ _____    ______ ____
ROOT
ATOM      1  O   UNL     1       8.299   5.869  19.355  0.00  0.00    +0.000 OA
ATOM      2  C   UNL     1       7.405   6.194  18.578  0.00  0.00    +0.000 C 
ATOM      3  N   UNL     1       7.415   7.377  17.869  0.00  0.00    +0.000 N 
ATOM      4  H   UNL     1       6.597   7.579  17.303  0.00  0.00    +0.000 HD
ENDROOT
BRANCH   2   5
ATOM      5  C   UNL     1       6.228   5.355  18.336  0.00  0.00    +0.000 A 
ATOM      6  C   UNL     1       5.951   4.776  17.111  0.00  0.00    +0.000 A 
ATOM      7  S   UNL     1       4.514   3.859  17.197  0.00  0.00    +0.000 S 
ATOM      8  C   UNL     1       4.348   4.270  18.865  0.00  0.00    +0.000 A 
ATOM      9  N   UNL     1       5.287   5.074  19.334  0.00  0.00    +0.000 NA
BRANCH   8  10
ATOM     10  C   UNL     1       3.214   3.774  19.652  0.00  0.00    +0.000 A 
ATOM     11  C   UNL     1       1.930   4.289  19.441  0.00  0.00    +0.000 A 
ATOM     12  C   UNL     1       0.857   3.838  20.208  0.00  0.00    +0.000 A 
ATOM     13  C   UNL     1       1.097   2.881  21.176  0.00  0.00    +0.000 A 
ATOM     14  N   UNL     1       2.315   2.354  21.417  0.00  0.00    +0.000 NA
ATOM     15  C   UNL     1       3.340   2.811  20.654  0.00  0.00    +0.000 A 
ENDBRANCH   8  10
ENDBRANCH   2   5
BRANCH   3  16
ATOM     16  C   UNL     1       8.490   8.332  18.047  0.00  0.00    +0.000 C 
BRANCH  16  17
ATOM     17  C   UNL     1       8.078   9.774  17.753  0.00  0.00    +0.000 C 
BRANCH  17  18
ATOM     18  C   UNL     1       8.972  10.772  18.451  0.00  0.00    +0.000 A 
ATOM     19  C   UNL     1       9.403  10.551  19.761  0.00  0.00    +0.000 A 
ATOM     20  C   UNL     1      10.214  11.500  20.367  0.00  0.00    +0.000 A 
ATOM     21  N   UNL     1      10.612  12.641  19.766  0.00  0.00    +0.000 NA
ATOM     22  C   UNL     1      10.178  12.843  18.505  0.00  0.00    +0.000 A 
ATOM     23  C   UNL     1       9.367  11.953  17.816  0.00  0.00    +0.000 A 
ENDBRANCH  17  18
ENDBRANCH  16  17
ENDBRANCH   3  16
TORSDOF 5
ENDMDL
MODEL 8
REMARK VINA RESULT:      -7.0      1.720      2.096
REMARK  Name = 
REMARK  5 active torsions:
REMARK  status: ('A' for Active; 'I' for Inactive)
REMARK    1  A    between atoms: C_2  and  C_12
REMARK    2  A    between atoms: N_3  and  C_4
REMARK    3  A    between atoms: C_4  and  C_5
REMARK    4  A    between atoms: C_5  and  C_6
REMARK    5  A    between atoms: C_15  and  C_16
REMARK                            x       y       z     vdW  Elec       q    Type
REMARK                         _______ _______ _______ _____ _____    ______ ____
ROOT
ATOM      1  O   UNL     1       7.758   6.203  15.837  0.00  0.00    +0.000 OA
ATOM      2  C   UNL     1       6.903   6.345  16.707  0.00  0.00    +0.000 C 
ATOM      3  N   UNL     1       6.854   7.439  17.545  0.00  0.00    +0.000 N 
ATOM      4  H   UNL     1       6.147   7.428  18.272  0.00  0.00    +0.000 HD
ENDROOT
BRANCH   2   5
ATOM      5  C   UNL     1       5.853   5.351  16.949  0.00  0.00    +0.000 A 
ATOM      6  C   UNL     1       5.736   4.182  16.220  0.00  0.00    +0.000 A 
ATOM      7  S   UNL     1       4.414   3.260  16.781  0.00  0.00    +0.000 S 
ATOM      8  C   UNL     1       4.079   4.461  17.974  0.00  0.00    +0.000 A 
ATOM      9  N   UNL     1       4.881   5.511  17.944  0.00  0.00    +0.000 NA
BRANCH   8  10
ATOM     10  C   UNL     1       2.957   4.303  18.906  0.00  0.00    +0.000 A 
ATOM     11  C   UNL     1       2.011   3.291  18.704  0.00  0.00    +0.000 A 
ATOM     12  C   UNL     1       0.928   3.158  19.571  0.00  0.00    +0.000 A 
ATOM     13  C   UNL     1       0.816   4.048  20.624  0.00  0.00    +0.000 A 
ATOM     14  N   UNL     1       1.701   5.038  20.860  0.00  0.00    +0.000 NA
ATOM     15  C   UNL     1       2.744   5.142  19.999  0.00  0.00    +0.000 A 
ENDBRANCH   8  10
ENDBRANCH   2   5
BRANCH   3  16
ATOM     16  C   UNL     1       7.862   8.477  17.458  0.00  0.00    +0.000 C 
BRANCH  16  17
ATOM     17  C   UNL     1       8.631   8.689  18.762  0.00  0.00    +0.000 C 
BRANCH  17  18
ATOM     18  C   UNL     1       9.058  10.127  18.939  0.00  0.00    +0.000 A 
ATOM     19  C   UNL     1       9.564  10.576  20.162  0.00  0.00    +0.000 A 
ATOM     20  C   UNL     1       9.933  11.908  20.283  0.00  0.00    +0.000 A 
ATOM     21  N   UNL     1       9.828  12.811  19.286  0.00  0.00    +0.000 NA
ATOM     22  C   UNL     1       9.329  12.362  18.115  0.00  0.00    +0.000 A 
ATOM     23  C   UNL     1       8.934  11.051  17.897  0.00  0.00    +0.000 A 
ENDBRANCH  17  18
ENDBRANCH  16  17
ENDBRANCH   3  16
TORSDOF 5
ENDMDL
MODEL 9
REMARK VINA RESULT:      -7.0      5.409      7.857
REMARK  Name = 
REMARK  5 active torsions:
REMARK  status: ('A' for Active; 'I' for Inactive)
REMARK    1  A    between atoms: C_2  and  C_12
REMARK    2  A    between atoms: N_3  and  C_4
REMARK    3  A    between atoms: C_4  and  C_5
REMARK    4  A    between atoms: C_5  and  C_6
REMARK    5  A    between atoms: C_15  and  C_16
REMARK                            x       y       z     vdW  Elec       q    Type
REMARK                         _______ _______ _______ _____ _____    ______ ____
ROOT
ATOM      1  O   UNL     1       2.104   4.876  20.802  0.00  0.00    +0.000 OA
ATOM      2  C   UNL     1       2.462   5.605  19.881  0.00  0.00    +0.000 C 
ATOM      3  N   UNL     1       3.299   5.186  18.869  0.00  0.00    +0.000 N 
ATOM      4  H   UNL     1       3.586   5.885  18.191  0.00  0.00    +0.000 HD
ENDROOT
BRANCH   2   5
ATOM      5  C   UNL     1       2.040   7.005  19.774  0.00  0.00    +0.000 A 
ATOM      6  C   UNL     1       2.227   7.766  18.635  0.00  0.00    +0.000 A 
ATOM      7  S   UNL     1       1.604   9.339  18.860  0.00  0.00    +0.000 S 
ATOM      8  C   UNL     1       1.105   8.916  20.457  0.00  0.00    +0.000 A 
ATOM      9  N   UNL     1       1.411   7.683  20.825  0.00  0.00    +0.000 NA
BRANCH   8  10
ATOM     10  C   UNL     1       0.431   9.893  21.318  0.00  0.00    +0.000 A 
ATOM     11  C   UNL     1      -0.379   9.461  22.374  0.00  0.00    +0.000 A 
ATOM     12  C   UNL     1      -1.043  10.389  23.176  0.00  0.00    +0.000 A 
ATOM     13  C   UNL     1      -0.882  11.734  22.896  0.00  0.00    +0.000 A 
ATOM     14  N   UNL     1      -0.112  12.199  21.891  0.00  0.00    +0.000 NA
ATOM     15  C   UNL     1       0.522  11.272  21.129  0.00  0.00    +0.000 A 
ENDBRANCH   8  10
ENDBRANCH   2   5
BRANCH   3  16
ATOM     16  C   UNL     1       3.841   3.841  18.871  0.00  0.00    +0.000 C 
BRANCH  16  17
ATOM     17  C   UNL     1       4.158   3.311  17.473  0.00  0.00    +0.000 C 
BRANCH  17  18
ATOM     18  C   UNL     1       5.294   4.066  16.826  0.00  0.00    +0.000 A 
ATOM     19  C   UNL     1       5.302   4.302  15.448  0.00  0.00    +0.000 A 
ATOM     20  C   UNL     1       6.373   4.989  14.894  0.00  0.00    +0.000 A 
ATOM     21  N   UNL     1       7.423   5.446  15.608  0.00  0.00    +0.000 NA
ATOM     22  C   UNL     1       7.403   5.201  16.935  0.00  0.00    +0.000 A 
ATOM     23  C   UNL     1       6.379   4.525  17.580  0.00  0.00    +0.000 A 
ENDBRANCH  17  18
ENDBRANCH  16  17
ENDBRANCH   3  16
TORSDOF 5
ENDMDL
