MODEL 1
REMARK VINA RESULT:      -7.4      0.000      0.000
REMARK  Name = 
REMARK  2 active torsions:
REMARK  status: ('A' for Active; 'I' for Inactive)
REMARK    1  A    between atoms: C_1  and  C_2
REMARK    2  A    between atoms: C_4  and  N_5
REMARK                            x       y       z     vdW  Elec       q    Type
REMARK                         _______ _______ _______ _____ _____    ______ ____
ROOT
ATOM      1  C   UNL     1       8.040   5.615  19.333  0.00  0.00    +0.000 C 
ATOM      2  C   UNL     1       7.016   5.086  18.376  0.00  0.00    +0.000 A 
ATOM      3  C   UNL     1       7.201   5.171  17.017  0.00  0.00    +0.000 A 
ATOM      4  C   UNL     1       6.258   4.563  16.213  0.00  0.00    +0.000 A 
ATOM      5  N   UNL     1       5.206   3.923  16.749  0.00  0.00    +0.000 NA
ATOM      6  C   UNL     1       5.052   3.924  18.086  0.00  0.00    +0.000 A 
ATOM      7  N   UNL     1       3.902   3.388  18.618  0.00  0.00    +0.000 N 
ATOM      8  C   UNL     1       3.258   2.297  17.901  0.00  0.00    +0.000 C 
ATOM      9  C   UNL     1       1.750   2.410  18.119  0.00  0.00    +0.000 C 
ATOM     10  C   UNL     1       1.402   2.455  19.608  0.00  0.00    +0.000 C 
ATOM     11  C   UNL     1       2.215   3.517  20.351  0.00  0.00    +0.000 C 
ATOM     12  C   UNL     1       3.714   3.399  20.062  0.00  0.00    +0.000 C 
ATOM     13  N   UNL     1       5.942   4.487  18.914  0.00  0.00    +0.000 NA
ENDROOT
BRANCH   4  14
ATOM     14  N   UNL     1       6.471   4.524  14.841  0.00  0.00    +0.000 N 
ATOM     15  C   UNL     1       5.387   4.035  13.991  0.00  0.00    +0.000 C 
ATOM     16  C   UNL     1       6.042   3.362  12.780  0.00  0.00    +0.000 C 
ATOM     17  C   UNL     1       7.036   4.289  12.071  0.00  0.00    +0.000 C 
ATOM     18  C   UNL     1       8.011   4.955  13.048  0.00  0.00    +0.000 C 
ATOM     19  C   UNL     1       7.271   5.582  14.228  0.00  0.00    +0.000 C 
ENDBRANCH   4  14
TORSDOF 1
ENDMDL
MODEL 2
REMARK VINA RESULT:      -7.1      4.013      7.413
REMARK  Name = 
REMARK  2 active torsions:
REMARK  status: ('A' for Active; 'I' for Inactive)
REMARK    1  A    between atoms: C_1  and  C_2
REMARK    2  A    between atoms: C_4  and  N_5
REMARK                            x       y       z     vdW  Elec       q    Type
REMARK                         _______ _______ _______ _____ _____    ______ ____
ROOT
ATOM      1  C   UNL     1       1.954   3.416  21.410  0.00  0.00    +0.000 C 
ATOM      2  C   UNL     1       2.169   4.636  20.570  0.00  0.00    +0.000 A 
ATOM      3  C   UNL     1       1.517   5.815  20.845  0.00  0.00    +0.000 A 
ATOM      4  C   UNL     1       1.856   6.916  20.086  0.00  0.00    +0.000 A 
ATOM      5  N   UNL     1       2.782   6.826  19.117  0.00  0.00    +0.000 NA
ATOM      6  C   UNL     1       3.343   5.630  18.859  0.00  0.00    +0.000 A 
ATOM      7  N   UNL     1       4.187   5.516  17.778  0.00  0.00    +0.000 N 
ATOM      8  C   UNL     1       4.961   6.684  17.386  0.00  0.00    +0.000 C 
ATOM      9  C   UNL     1       5.133   6.654  15.869  0.00  0.00    +0.000 C 
ATOM     10  C   UNL     1       5.740   5.331  15.400  0.00  0.00    +0.000 C 
ATOM     11  C   UNL     1       4.981   4.126  15.960  0.00  0.00    +0.000 C 
ATOM     12  C   UNL     1       4.787   4.224  17.476  0.00  0.00    +0.000 C 
ATOM     13  N   UNL     1       3.061   4.532  19.573  0.00  0.00    +0.000 NA
ENDROOT
BRANCH   4  14
ATOM     14  N   UNL     1       1.307   8.150  20.410  0.00  0.00    +0.000 N 
ATOM     15  C   UNL     1       1.500   8.651  21.769  0.00  0.00    +0.000 C 
ATOM     16  C   UNL     1       0.265   9.493  22.111  0.00  0.00    +0.000 C 
ATOM     17  C   UNL     1      -0.000  10.581  21.064  0.00  0.00    +0.000 C 
ATOM     18  C   UNL     1       0.036  10.035  19.633  0.00  0.00    +0.000 C 
ATOM     19  C   UNL     1       1.291   9.197  19.391  0.00  0.00    +0.000 C 
ENDBRANCH   4  14
TORSDOF 1
ENDMDL
MODEL 3
REMARK VINA RESULT:      -7.0      1.334      1.782
REMARK  Name = 
REMARK  2 active torsions:
REMARK  status: ('A' for Active; 'I' for Inactive)
REMARK    1  A    between atoms: C_1  and  C_2
REMARK    2  A    between atoms: C_4  and  N_5
REMARK                            x       y       z     vdW  Elec       q    Type
REMARK                         _______ _______ _______ _____ _____    ______ ____
ROOT
ATOM      1  C   UNL     1       7.854   7.477  18.184  0.00  0.00    +0.000 C 
ATOM      2  C   UNL     1       6.897   6.572  17.473  0.00  0.00    +0.000 A 
ATOM      3  C   UNL     1       7.118   6.181  16.173  0.00  0.00    +0.000 A 
ATOM      4  C   UNL     1       6.242   5.261  15.633  0.00  0.00    +0.000 A 
ATOM      5  N   UNL     1       5.217   4.780  16.356  0.00  0.00    +0.000 NA
ATOM      6  C   UNL     1       5.022   5.245  17.603  0.00  0.00    +0.000 A 
ATOM      7  N   UNL     1       3.893   4.852  18.285  0.00  0.00    +0.000 N 
ATOM      8  C   UNL     1       3.344   3.535  17.999  0.00  0.00    +0.000 C 
ATOM      9  C   UNL     1       1.826   3.609  18.154  0.00  0.00    +0.000 C 
ATOM     10  C   UNL     1       1.429   4.155  19.526  0.00  0.00    +0.000 C 
ATOM     11  C   UNL     1       2.148   5.467  19.847  0.00  0.00    +0.000 C 
ATOM     12  C   UNL     1       3.659   5.362  19.629  0.00  0.00    +0.000 C 
ATOM     13  N   UNL     1       5.848   6.127  18.181  0.00  0.00    +0.000 NA
ENDROOT
BRANCH   4  14
ATOM     14  N   UNL     1       6.500   4.753  14.366  0.00  0.00    +0.000 N 
ATOM     15  C   UNL     1       7.787   5.067  13.749  0.00  0.00    +0.000 C 
ATOM     16  C   UNL     1       7.550   5.124  12.235  0.00  0.00    +0.000 C 
ATOM     17  C   UNL     1       6.886   3.848  11.705  0.00  0.00    +0.000 C 
ATOM     18  C   UNL     1       5.666   3.437  12.537  0.00  0.00    +0.000 C 
ATOM     19  C   UNL     1       5.991   3.425  14.030  0.00  0.00    +0.000 C 
ENDBRANCH   4  14
TORSDOF 1
ENDMDL
MODEL 4
REMARK VINA RESULT:      -7.0      0.851      5.975
REMARK  Name = 
REMARK  2 active torsions:
REMARK  status: ('A' for Active; 'I' for Inactive)
REMARK    1  A    between atoms: C_1  and  C_2
REMARK    2  A    between atoms: C_4  and  N_5
REMARK                            x       y       z     vdW  Elec       q    Type
REMARK                         _______ _______ _______ _____ _____    ______ ____
ROOT
ATOM      1  C   UNL     1       7.824   6.520  18.543  0.00  0.00    +0.000 C 
ATOM      2  C   UNL     1       6.907   5.564  17.845  0.00  0.00    +0.000 A 
ATOM      3  C   UNL     1       5.952   4.858  18.536  0.00  0.00    +0.000 A 
ATOM      4  C   UNL     1       5.082   4.082  17.797  0.00  0.00    +0.000 A 
ATOM      5  N   UNL     1       5.179   4.023  16.459  0.00  0.00    +0.000 NA
ATOM      6  C   UNL     1       6.172   4.693  15.845  0.00  0.00    +0.000 A 
ATOM      7  N   UNL     1       6.350   4.517  14.492  0.00  0.00    +0.000 N 
ATOM      8  C   UNL     1       5.178   4.225  13.680  0.00  0.00    +0.000 C 
ATOM      9  C   UNL     1       5.611   3.314  12.532  0.00  0.00    +0.000 C 
ATOM     10  C   UNL     1       6.770   3.923  11.741  0.00  0.00    +0.000 C 
ATOM     11  C   UNL     1       7.919   4.355  12.655  0.00  0.00    +0.000 C 
ATOM     12  C   UNL     1       7.432   5.222  13.819  0.00  0.00    +0.000 C 
ATOM     13  N   UNL     1       7.036   5.471  16.512  0.00  0.00    +0.000 NA
ENDROOT
BRANCH   4  14
ATOM     14  N   UNL     1       4.030   3.449  18.447  0.00  0.00    +0.000 N 
ATOM     15  C   UNL     1       2.940   2.917  17.632  0.00  0.00    +0.000 C 
ATOM     16  C   UNL     1       1.665   3.016  18.478  0.00  0.00    +0.000 C 
ATOM     17  C   UNL     1       1.825   2.340  19.845  0.00  0.00    +0.000 C 
ATOM     18  C   UNL     1       3.112   2.767  20.560  0.00  0.00    +0.000 C 
ATOM     19  C   UNL     1       4.323   2.652  19.636  0.00  0.00    +0.000 C 
ENDBRANCH   4  14
TORSDOF 1
ENDMDL
MODEL 5
REMARK VINA RESULT:      -7.0      3.917      5.208
REMARK  Name = 
REMARK  2 active torsions:
REMARK  status: ('A' for Active; 'I' for Inactive)
REMARK    1  A    between atoms: C_1  and  C_2
REMARK    2  A    between atoms: C_4  and  N_5
REMARK                            x       y       z     vdW  Elec       q    Type
REMARK                         _______ _______ _______ _____ _____    ______ ____
ROOT
ATOM      1  C   UNL     1       2.137   3.960  21.415  0.00  0.00    +0.000 C 
ATOM      2  C   UNL     1       2.673   4.886  20.368  0.00  0.00    +0.000 A 
ATOM      3  C   UNL     1       3.700   4.505  19.538  0.00  0.00    +0.000 A 
ATOM      4  C   UNL     1       4.058   5.381  18.533  0.00  0.00    +0.000 A 
ATOM      5  N   UNL     1       3.424   6.556  18.387  0.00  0.00    +0.000 NA
ATOM      6  C   UNL     1       2.465   6.896  19.267  0.00  0.00    +0.000 A 
ATOM      7  N   UNL     1       1.919   8.156  19.195  0.00  0.00    +0.000 N 
ATOM      8  C   UNL     1       1.846   8.798  17.891  0.00  0.00    +0.000 C 
ATOM      9  C   UNL     1       2.016  10.303  18.091  0.00  0.00    +0.000 C 
ATOM     10  C   UNL     1       1.007  10.851  19.102  0.00  0.00    +0.000 C 
ATOM     11  C   UNL     1       1.013  10.049  20.404  0.00  0.00    +0.000 C 
ATOM     12  C   UNL     1       0.893   8.544  20.153  0.00  0.00    +0.000 C 
ATOM     13  N   UNL     1       2.069   6.079  20.253  0.00  0.00    +0.000 NA
ENDROOT
BRANCH   4  14
ATOM     14  N   UNL     1       5.008   4.982  17.602  0.00  0.00    +0.000 N 
ATOM     15  C   UNL     1       6.338   4.620  18.090  0.00  0.00    +0.000 C 
ATOM     16  C   UNL     1       7.332   4.991  16.984  0.00  0.00    +0.000 C 
ATOM     17  C   UNL     1       6.958   4.364  15.636  0.00  0.00    +0.000 C 
ATOM     18  C   UNL     1       5.483   4.581  15.281  0.00  0.00    +0.000 C 
ATOM     19  C   UNL     1       4.570   4.203  16.447  0.00  0.00    +0.000 C 
ENDBRANCH   4  14
TORSDOF 1
ENDMDL
MODEL 6
REMARK VINA RESULT:      -6.9      4.213      5.287
REMARK  Name = 
REMARK  2 active torsions:
REMARK  status: ('A' for Active; 'I' for Inactive)
REMARK    1  A    between atoms: C_1  and  C_2
REMARK    2  A    between atoms: C_4  and  N_5
REMARK                            x       y       z     vdW  Elec       q    Type
REMARK                         _______ _______ _______ _____ _____    ______ ____
ROOT
ATOM      1  C   UNL     1       2.185   4.220  21.078  0.00  0.00    +0.000 C 
ATOM      2  C   UNL     1       2.708   5.242  20.117  0.00  0.00    +0.000 A 
ATOM      3  C   UNL     1       3.771   4.965  19.291  0.00  0.00    +0.000 A 
ATOM      4  C   UNL     1       4.117   5.926  18.362  0.00  0.00    +0.000 A 
ATOM      5  N   UNL     1       3.438   7.083  18.284  0.00  0.00    +0.000 NA
ATOM      6  C   UNL     1       2.443   7.317  19.159  0.00  0.00    +0.000 A 
ATOM      7  N   UNL     1       1.846   8.557  19.162  0.00  0.00    +0.000 N 
ATOM      8  C   UNL     1       1.779   9.289  17.906  0.00  0.00    +0.000 C 
ATOM      9  C   UNL     1       1.881  10.781  18.219  0.00  0.00    +0.000 C 
ATOM     10  C   UNL     1       0.824  11.212  19.237  0.00  0.00    +0.000 C 
ATOM     11  C   UNL     1       0.829  10.317  20.478  0.00  0.00    +0.000 C 
ATOM     12  C   UNL     1       0.780   8.831  20.115  0.00  0.00    +0.000 C 
ATOM     13  N   UNL     1       2.057   6.415  20.071  0.00  0.00    +0.000 NA
ENDROOT
BRANCH   4  14
ATOM     14  N   UNL     1       5.107   5.636  17.433  0.00  0.00    +0.000 N 
ATOM     15  C   UNL     1       4.985   6.212  16.096  0.00  0.00    +0.000 C 
ATOM     16  C   UNL     1       5.625   5.215  15.123  0.00  0.00    +0.000 C 
ATOM     17  C   UNL     1       7.057   4.850  15.528  0.00  0.00    +0.000 C 
ATOM     18  C   UNL     1       7.165   4.470  17.009  0.00  0.00    +0.000 C 
ATOM     19  C   UNL     1       6.486   5.510  17.899  0.00  0.00    +0.000 C 
ENDBRANCH   4  14
TORSDOF 1
ENDMDL
MODEL 7
REMARK VINA RESULT:      -6.9      4.122      7.277
REMARK  Name = 
REMARK  2 active torsions:
REMARK  status: ('A' for Active; 'I' for Inactive)
REMARK    1  A    between atoms: C_1  and  C_2
REMARK    2  A    between atoms: C_4  and  N_5
REMARK                            x       y       z     vdW  Elec       q    Type
REMARK                         _______ _______ _______ _____ _____    ______ ____
ROOT
ATOM      1  C   UNL     1       2.162   3.754  21.427  0.00  0.00    +0.000 C 
ATOM      2  C   UNL     1       2.354   4.905  20.490  0.00  0.00    +0.000 A 
ATOM      3  C   UNL     1       1.700   6.098  20.684  0.00  0.00    +0.000 A 
ATOM      4  C   UNL     1       2.018   7.139  19.834  0.00  0.00    +0.000 A 
ATOM      5  N   UNL     1       2.928   6.977  18.859  0.00  0.00    +0.000 NA
ATOM      6  C   UNL     1       3.492   5.767  18.685  0.00  0.00    +0.000 A 
ATOM      7  N   UNL     1       4.316   5.573  17.601  0.00  0.00    +0.000 N 
ATOM      8  C   UNL     1       5.076   6.711  17.105  0.00  0.00    +0.000 C 
ATOM      9  C   UNL     1       5.221   6.562  15.592  0.00  0.00    +0.000 C 
ATOM     10  C   UNL     1       5.827   5.209  15.217  0.00  0.00    +0.000 C 
ATOM     11  C   UNL     1       5.087   4.049  15.884  0.00  0.00    +0.000 C 
ATOM     12  C   UNL     1       4.919   4.264  17.391  0.00  0.00    +0.000 C 
ATOM     13  N   UNL     1       3.229   4.727  19.489  0.00  0.00    +0.000 NA
ENDROOT
BRANCH   4  14
ATOM     14  N   UNL     1       1.467   8.391  20.071  0.00  0.00    +0.000 N 
ATOM     15  C   UNL     1       1.165   9.238  18.919  0.00  0.00    +0.000 C 
ATOM     16  C   UNL     1       1.346  10.690  19.375  0.00  0.00    +0.000 C 
ATOM     17  C   UNL     1       0.525  11.008  20.630  0.00  0.00    +0.000 C 
ATOM     18  C   UNL     1       0.707   9.955  21.729  0.00  0.00    +0.000 C 
ATOM     19  C   UNL     1       0.526   8.542  21.178  0.00  0.00    +0.000 C 
ENDBRANCH   4  14
TORSDOF 1
ENDMDL
MODEL 8
REMARK VINA RESULT:      -6.9      4.115      5.475
REMARK  Name = 
REMARK  2 active torsions:
REMARK  status: ('A' for Active; 'I' for Inactive)
REMARK    1  A    between atoms: C_1  and  C_2
REMARK    2  A    between atoms: C_4  and  N_5
REMARK                            x       y       z     vdW  Elec       q    Type
REMARK                         _______ _______ _______ _____ _____    ______ ____
ROOT
ATOM      1  C   UNL     1       2.078   3.764  21.468  0.00  0.00    +0.000 C 
ATOM      2  C   UNL     1       2.449   4.887  20.551  0.00  0.00    +0.000 A 
ATOM      3  C   UNL     1       3.359   4.707  19.536  0.00  0.00    +0.000 A 
ATOM      4  C   UNL     1       3.560   5.766  18.673  0.00  0.00    +0.000 A 
ATOM      5  N   UNL     1       2.892   6.921  18.834  0.00  0.00    +0.000 NA
ATOM      6  C   UNL     1       2.058   7.053  19.881  0.00  0.00    +0.000 A 
ATOM      7  N   UNL     1       1.484   8.281  20.117  0.00  0.00    +0.000 N 
ATOM      8  C   UNL     1       1.222   9.146  18.976  0.00  0.00    +0.000 C 
ATOM      9  C   UNL     1       1.393  10.595  19.429  0.00  0.00    +0.000 C 
ATOM     10  C   UNL     1       0.522  10.907  20.647  0.00  0.00    +0.000 C 
ATOM     11  C   UNL     1       0.720   9.882  21.766  0.00  0.00    +0.000 C 
ATOM     12  C   UNL     1       0.593   8.444  21.257  0.00  0.00    +0.000 C 
ATOM     13  N   UNL     1       1.815   6.054  20.740  0.00  0.00    +0.000 NA
ENDROOT
BRANCH   4  14
ATOM     14  N   UNL     1       4.381   5.584  17.568  0.00  0.00    +0.000 N 
ATOM     15  C   UNL     1       5.051   6.757  17.010  0.00  0.00    +0.000 C 
ATOM     16  C   UNL     1       5.194   6.511  15.503  0.00  0.00    +0.000 C 
ATOM     17  C   UNL     1       5.888   5.178  15.199  0.00  0.00    +0.000 C 
ATOM     18  C   UNL     1       5.286   4.013  15.992  0.00  0.00    +0.000 C 
ATOM     19  C   UNL     1       5.166   4.356  17.476  0.00  0.00    +0.000 C 
ENDBRANCH   4  14
TORSDOF 1
ENDMDL
MODEL 9
REMARK VINA RESULT:      -6.8      0.950      6.031
REMARK  Name = 
REMARK  2 active torsions:
REMARK  status: ('A' for Active; 'I' for Inactive)
REMARK    1  A    between atoms: C_1  and  C_2
REMARK    2  A    between atoms: C_4  and  N_5
REMARK                            x       y       z     vdW  Elec       q    Type
REMARK                         _______ _______ _______ _____ _____    ______ ____
ROOT
ATOM      1  C   UNL     1       7.802   6.822  18.227  0.00  0.00    +0.000 C 
ATOM      2  C   UNL     1       6.902   5.819  17.576  0.00  0.00    +0.000 A 
ATOM      3  C   UNL     1       5.946   5.144  18.298  0.00  0.00    +0.000 A 
ATOM      4  C   UNL     1       5.091   4.318  17.597  0.00  0.00    +0.000 A 
ATOM      5  N   UNL     1       5.203   4.182  16.265  0.00  0.00    +0.000 NA
ATOM      6  C   UNL     1       6.196   4.826  15.624  0.00  0.00    +0.000 A 
ATOM      7  N   UNL     1       6.389   4.574  14.285  0.00  0.00    +0.000 N 
ATOM      8  C   UNL     1       5.229   4.223  13.479  0.00  0.00    +0.000 C 
ATOM      9  C   UNL     1       5.683   3.252  12.391  0.00  0.00    +0.000 C 
ATOM     10  C   UNL     1       6.844   3.826  11.577  0.00  0.00    +0.000 C 
ATOM     11  C   UNL     1       7.979   4.322  12.475  0.00  0.00    +0.000 C 
ATOM     12  C   UNL     1       7.471   5.249  13.582  0.00  0.00    +0.000 C 
ATOM     13  N   UNL     1       7.045   5.650  16.252  0.00  0.00    +0.000 NA
ENDROOT
BRANCH   4  14
ATOM     14  N   UNL     1       4.040   3.712  18.272  0.00  0.00    +0.000 N 
ATOM     15  C   UNL     1       3.767   4.138  19.643  0.00  0.00    +0.000 C 
ATOM     16  C   UNL     1       3.208   2.918  20.384  0.00  0.00    +0.000 C 
ATOM     17  C   UNL     1       2.005   2.304  19.659  0.00  0.00    +0.000 C 
ATOM     18  C   UNL     1       2.272   2.089  18.165  0.00  0.00    +0.000 C 
ATOM     19  C   UNL     1       2.843   3.349  17.517  0.00  0.00    +0.000 C 
ENDBRANCH   4  14
TORSDOF 1
ENDMDL
