MODEL 1
REMARK VINA RESULT:      -7.2      0.000      0.000
REMARK  Name = 
REMARK  8 active torsions:
REMARK  status: ('A' for Active; 'I' for Inactive)
REMARK    1  A    between atoms: C_1  and  N_2
REMARK    2  A    between atoms: N_2  and  C_3
REMARK    3  A    between atoms: N_2  and  C_4
REMARK    4  A    between atoms: C_4  and  C_5
REMARK    5  A    between atoms: C_5  and  N_6
REMARK    6  A    between atoms: N_6  and  C_7
REMARK    7  A    between atoms: N_6  and  C_8
REMARK    8  A    between atoms: N_16  and  C_17
REMARK                            x       y       z     vdW  Elec       q    Type
REMARK                         _______ _______ _______ _____ _____    ______ ____
ROOT
ATOM      1  C   UNL     1       4.676   4.558  16.797  0.00  0.00    +0.000 A 
ATOM      2  C   UNL     1       4.259   3.326  17.394  0.00  0.00    +0.000 A 
ATOM      3  C   UNL     1       3.368   3.395  18.451  0.00  0.00    +0.000 A 
ATOM      4  C   UNL     1       2.767   4.575  18.895  0.00  0.00    +0.000 A 
ATOM      5  C   UNL     1       3.136   5.750  18.320  0.00  0.00    +0.000 A 
ATOM      6  C   UNL     1       4.079   5.787  17.284  0.00  0.00    +0.000 A 
ATOM      7  C   UNL     1       4.231   7.176  16.976  0.00  0.00    +0.000 A 
ATOM      8  C   UNL     1       3.456   7.914  17.844  0.00  0.00    +0.000 A 
ATOM      9  N   UNL     1       2.781   7.033  18.649  0.00  0.00    +0.000 N 
ATOM     10  C   UNL     1       1.876   7.458  19.693  0.00  0.00    +0.000 C 
ATOM     11  C   UNL     1       1.978   4.205  20.108  0.00  0.00    +0.000 C 
ATOM     12  C   UNL     1       0.819   3.266  19.715  0.00  0.00    +0.000 C 
ATOM     13  C   UNL     1       1.551   1.930  19.404  0.00  0.00    +0.000 C 
ATOM     14  C   UNL     1       3.019   2.340  19.465  0.00  0.00    +0.000 C 
ATOM     15  O   UNL     1       2.900   3.202  20.657  0.00  0.00    +0.000 OA
ENDROOT
BRANCH   1  16
ATOM     16  N   UNL     1       5.679   4.542  15.809  0.00  0.00    +0.000 N 
ATOM     17  C   UNL     1       5.272   4.340  14.423  0.00  0.00    +0.000 C 
BRANCH  16  18
ATOM     18  C   UNL     1       7.031   5.066  16.044  0.00  0.00    +0.000 C 
BRANCH  18  19
ATOM     19  C   UNL     1       7.596   4.566  17.392  0.00  0.00    +0.000 C 
BRANCH  19  21
ATOM     20  C   UNL     1       7.651   6.937  17.786  0.00  0.00    +0.000 C 
ATOM     21  N   UNL     1       7.792   5.619  18.416  0.00  0.00    +0.000 NA
ATOM     22  C   UNL     1       6.840   5.498  19.521  0.00  0.00    +0.000 C 
ENDBRANCH  19  21
ENDBRANCH  18  19
ENDBRANCH  16  18
ENDBRANCH   1  16
TORSDOF 4
ENDMDL
MODEL 2
REMARK VINA RESULT:      -6.9      2.645      6.150
REMARK  Name = 
REMARK  8 active torsions:
REMARK  status: ('A' for Active; 'I' for Inactive)
REMARK    1  A    between atoms: C_1  and  N_2
REMARK    2  A    between atoms: N_2  and  C_3
REMARK    3  A    between atoms: N_2  and  C_4
REMARK    4  A    between atoms: C_4  and  C_5
REMARK    5  A    between atoms: C_5  and  N_6
REMARK    6  A    between atoms: N_6  and  C_7
REMARK    7  A    between atoms: N_6  and  C_8
REMARK    8  A    between atoms: N_16  and  C_17
REMARK                            x       y       z     vdW  Elec       q    Type
REMARK                         _______ _______ _______ _____ _____    ______ ____
ROOT
ATOM      1  C   UNL     1       2.586   7.325  18.849  0.00  0.00    +0.000 A 
ATOM      2  C   UNL     1       3.475   7.504  17.742  0.00  0.00    +0.000 A 
ATOM      3  C   UNL     1       4.307   6.449  17.410  0.00  0.00    +0.000 A 
ATOM      4  C   UNL     1       4.255   5.189  18.012  0.00  0.00    +0.000 A 
ATOM      5  C   UNL     1       3.398   4.998  19.049  0.00  0.00    +0.000 A 
ATOM      6  C   UNL     1       2.560   6.027  19.498  0.00  0.00    +0.000 A 
ATOM      7  C   UNL     1       1.852   5.466  20.608  0.00  0.00    +0.000 A 
ATOM      8  C   UNL     1       2.312   4.186  20.830  0.00  0.00    +0.000 A 
ATOM      9  N   UNL     1       3.244   3.906  19.863  0.00  0.00    +0.000 N 
ATOM     10  C   UNL     1       3.948   2.646  19.793  0.00  0.00    +0.000 C 
ATOM     11  C   UNL     1       5.388   4.409  17.431  0.00  0.00    +0.000 C 
ATOM     12  C   UNL     1       5.145   4.167  15.927  0.00  0.00    +0.000 C 
ATOM     13  C   UNL     1       5.391   5.571  15.309  0.00  0.00    +0.000 C 
ATOM     14  C   UNL     1       5.539   6.451  16.547  0.00  0.00    +0.000 C 
ATOM     15  O   UNL     1       6.362   5.504  17.324  0.00  0.00    +0.000 OA
ENDROOT
BRANCH   1  16
ATOM     16  N   UNL     1       1.819   8.415  19.303  0.00  0.00    +0.000 N 
ATOM     17  C   UNL     1       1.206   9.283  18.305  0.00  0.00    +0.000 C 
BRANCH  16  18
ATOM     18  C   UNL     1       1.314   8.510  20.679  0.00  0.00    +0.000 C 
BRANCH  18  19
ATOM     19  C   UNL     1       0.273   9.643  20.813  0.00  0.00    +0.000 C 
BRANCH  19  21
ATOM     20  C   UNL     1      -0.406  11.657  21.937  0.00  0.00    +0.000 C 
ATOM     21  N   UNL     1       0.333  10.399  22.087  0.00  0.00    +0.000 NA
ATOM     22  C   UNL     1      -0.216   9.636  23.208  0.00  0.00    +0.000 C 
ENDBRANCH  19  21
ENDBRANCH  18  19
ENDBRANCH  16  18
ENDBRANCH   1  16
TORSDOF 4
ENDMDL
MODEL 3
REMARK VINA RESULT:      -6.9      1.330      2.769
REMARK  Name = 
REMARK  8 active torsions:
REMARK  status: ('A' for Active; 'I' for Inactive)
REMARK    1  A    between atoms: C_1  and  N_2
REMARK    2  A    between atoms: N_2  and  C_3
REMARK    3  A    between atoms: N_2  and  C_4
REMARK    4  A    between atoms: C_4  and  C_5
REMARK    5  A    between atoms: C_5  and  N_6
REMARK    6  A    between atoms: N_6  and  C_7
REMARK    7  A    between atoms: N_6  and  C_8
REMARK    8  A    between atoms: N_16  and  C_17
REMARK                            x       y       z     vdW  Elec       q    Type
REMARK                         _______ _______ _______ _____ _____    ______ ____
ROOT
ATOM      1  C   UNL     1       4.903   4.575  17.694  0.00  0.00    +0.000 A 
ATOM      2  C   UNL     1       4.445   3.515  18.538  0.00  0.00    +0.000 A 
ATOM      3  C   UNL     1       3.423   3.799  19.427  0.00  0.00    +0.000 A 
ATOM      4  C   UNL     1       2.738   5.016  19.474  0.00  0.00    +0.000 A 
ATOM      5  C   UNL     1       3.148   6.024  18.660  0.00  0.00    +0.000 A 
ATOM      6  C   UNL     1       4.216   5.852  17.770  0.00  0.00    +0.000 A 
ATOM      7  C   UNL     1       4.371   7.123  17.131  0.00  0.00    +0.000 A 
ATOM      8  C   UNL     1       3.471   8.010  17.679  0.00  0.00    +0.000 A 
ATOM      9  N   UNL     1       2.720   7.326  18.600  0.00  0.00    +0.000 N 
ATOM     10  C   UNL     1       1.676   7.949  19.381  0.00  0.00    +0.000 C 
ATOM     11  C   UNL     1       1.809   4.921  20.639  0.00  0.00    +0.000 C 
ATOM     12  C   UNL     1       0.736   3.846  20.369  0.00  0.00    +0.000 C 
ATOM     13  C   UNL     1       1.536   2.521  20.507  0.00  0.00    +0.000 C 
ATOM     14  C   UNL     1       2.973   3.019  20.632  0.00  0.00    +0.000 C 
ATOM     15  O   UNL     1       2.677   4.148  21.536  0.00  0.00    +0.000 OA
ENDROOT
BRANCH   1  16
ATOM     16  N   UNL     1       6.026   4.367  16.870  0.00  0.00    +0.000 N 
ATOM     17  C   UNL     1       7.347   4.599  17.443  0.00  0.00    +0.000 C 
BRANCH  16  18
ATOM     18  C   UNL     1       5.961   3.602  15.618  0.00  0.00    +0.000 C 
BRANCH  18  19
ATOM     19  C   UNL     1       6.059   4.534  14.390  0.00  0.00    +0.000 C 
BRANCH  19  21
ATOM     20  C   UNL     1       5.752   3.359  12.315  0.00  0.00    +0.000 C 
ATOM     21  N   UNL     1       6.749   3.948  13.216  0.00  0.00    +0.000 NA
ATOM     22  C   UNL     1       7.542   4.941  12.491  0.00  0.00    +0.000 C 
ENDBRANCH  19  21
ENDBRANCH  18  19
ENDBRANCH  16  18
ENDBRANCH   1  16
TORSDOF 4
ENDMDL
MODEL 4
REMARK VINA RESULT:      -6.8      2.708      6.328
REMARK  Name = 
REMARK  8 active torsions:
REMARK  status: ('A' for Active; 'I' for Inactive)
REMARK    1  A    between atoms: C_1  and  N_2
REMARK    2  A    between atoms: N_2  and  C_3
REMARK    3  A    between atoms: N_2  and  C_4
REMARK    4  A    between atoms: C_4  and  C_5
REMARK    5  A    between atoms: C_5  and  N_6
REMARK    6  A    between atoms: N_6  and  C_7
REMARK    7  A    between atoms: N_6  and  C_8
REMARK    8  A    between atoms: N_16  and  C_17
REMARK                            x       y       z     vdW  Elec       q    Type
REMARK                         _______ _______ _______ _____ _____    ______ ____
ROOT
ATOM      1  C   UNL     1       2.428   7.333  18.878  0.00  0.00    +0.000 A 
ATOM      2  C   UNL     1       3.330   7.560  17.791  0.00  0.00    +0.000 A 
ATOM      3  C   UNL     1       4.227   6.553  17.480  0.00  0.00    +0.000 A 
ATOM      4  C   UNL     1       4.232   5.292  18.083  0.00  0.00    +0.000 A 
ATOM      5  C   UNL     1       3.364   5.056  19.101  0.00  0.00    +0.000 A 
ATOM      6  C   UNL     1       2.459   6.037  19.529  0.00  0.00    +0.000 A 
ATOM      7  C   UNL     1       1.759   5.439  20.624  0.00  0.00    +0.000 A 
ATOM      8  C   UNL     1       2.284   4.187  20.860  0.00  0.00    +0.000 A 
ATOM      9  N   UNL     1       3.252   3.957  19.915  0.00  0.00    +0.000 N 
ATOM     10  C   UNL     1       4.026   2.738  19.864  0.00  0.00    +0.000 C 
ATOM     11  C   UNL     1       5.419   4.576  17.530  0.00  0.00    +0.000 C 
ATOM     12  C   UNL     1       5.223   4.318  16.022  0.00  0.00    +0.000 C 
ATOM     13  C   UNL     1       5.405   5.734  15.406  0.00  0.00    +0.000 C 
ATOM     14  C   UNL     1       5.476   6.622  16.645  0.00  0.00    +0.000 C 
ATOM     15  O   UNL     1       6.333   5.723  17.443  0.00  0.00    +0.000 OA
ENDROOT
BRANCH   1  16
ATOM     16  N   UNL     1       1.592   8.379  19.312  0.00  0.00    +0.000 N 
ATOM     17  C   UNL     1       1.442   8.585  20.748  0.00  0.00    +0.000 C 
BRANCH  16  18
ATOM     18  C   UNL     1       1.164   9.472  18.428  0.00  0.00    +0.000 C 
BRANCH  18  19
ATOM     19  C   UNL     1       0.337  10.523  19.201  0.00  0.00    +0.000 C 
BRANCH  19  21
ATOM     20  C   UNL     1      -1.716  11.773  19.259  0.00  0.00    +0.000 C 
ATOM     21  N   UNL     1      -1.125  10.463  18.964  0.00  0.00    +0.000 NA
ATOM     22  C   UNL     1      -1.446  10.076  17.590  0.00  0.00    +0.000 C 
ENDBRANCH  19  21
ENDBRANCH  18  19
ENDBRANCH  16  18
ENDBRANCH   1  16
TORSDOF 4
ENDMDL
MODEL 5
REMARK VINA RESULT:      -6.8      2.168      5.194
REMARK  Name = 
REMARK  8 active torsions:
REMARK  status: ('A' for Active; 'I' for Inactive)
REMARK    1  A    between atoms: C_1  and  N_2
REMARK    2  A    between atoms: N_2  and  C_3
REMARK    3  A    between atoms: N_2  and  C_4
REMARK    4  A    between atoms: C_4  and  C_5
REMARK    5  A    between atoms: C_5  and  N_6
REMARK    6  A    between atoms: N_6  and  C_7
REMARK    7  A    between atoms: N_6  and  C_8
REMARK    8  A    between atoms: N_16  and  C_17
REMARK                            x       y       z     vdW  Elec       q    Type
REMARK                         _______ _______ _______ _____ _____    ______ ____
ROOT
ATOM      1  C   UNL     1       2.562   6.619  18.708  0.00  0.00    +0.000 A 
ATOM      2  C   UNL     1       1.809   5.495  19.172  0.00  0.00    +0.000 A 
ATOM      3  C   UNL     1       2.157   4.246  18.690  0.00  0.00    +0.000 A 
ATOM      4  C   UNL     1       3.262   4.001  17.870  0.00  0.00    +0.000 A 
ATOM      5  C   UNL     1       4.001   5.058  17.442  0.00  0.00    +0.000 A 
ATOM      6  C   UNL     1       3.688   6.368  17.827  0.00  0.00    +0.000 A 
ATOM      7  C   UNL     1       4.647   7.188  17.153  0.00  0.00    +0.000 A 
ATOM      8  C   UNL     1       5.440   6.388  16.360  0.00  0.00    +0.000 A 
ATOM      9  N   UNL     1       5.048   5.089  16.556  0.00  0.00    +0.000 N 
ATOM     10  C   UNL     1       5.660   3.972  15.872  0.00  0.00    +0.000 C 
ATOM     11  C   UNL     1       3.193   2.555  17.506  0.00  0.00    +0.000 C 
ATOM     12  C   UNL     1       3.401   1.685  18.763  0.00  0.00    +0.000 C 
ATOM     13  C   UNL     1       2.065   1.872  19.535  0.00  0.00    +0.000 C 
ATOM     14  C   UNL     1       1.371   2.964  18.726  0.00  0.00    +0.000 C 
ATOM     15  O   UNL     1       1.733   2.438  17.395  0.00  0.00    +0.000 OA
ENDROOT
BRANCH   1  16
ATOM     16  N   UNL     1       2.158   7.919  19.069  0.00  0.00    +0.000 N 
ATOM     17  C   UNL     1       1.859   8.865  18.000  0.00  0.00    +0.000 C 
BRANCH  16  18
ATOM     18  C   UNL     1       1.684   8.256  20.418  0.00  0.00    +0.000 C 
BRANCH  18  19
ATOM     19  C   UNL     1       0.869   9.568  20.410  0.00  0.00    +0.000 C 
BRANCH  19  21
ATOM     20  C   UNL     1      -0.079  11.432  21.596  0.00  0.00    +0.000 C 
ATOM     21  N   UNL     1       0.823  10.281  21.709  0.00  0.00    +0.000 NA
ATOM     22  C   UNL     1       0.377   9.412  22.800  0.00  0.00    +0.000 C 
ENDBRANCH  19  21
ENDBRANCH  18  19
ENDBRANCH  16  18
ENDBRANCH   1  16
TORSDOF 4
ENDMDL
MODEL 6
REMARK VINA RESULT:      -6.7      2.399      5.825
REMARK  Name = 
REMARK  8 active torsions:
REMARK  status: ('A' for Active; 'I' for Inactive)
REMARK    1  A    between atoms: C_1  and  N_2
REMARK    2  A    between atoms: N_2  and  C_3
REMARK    3  A    between atoms: N_2  and  C_4
REMARK    4  A    between atoms: C_4  and  C_5
REMARK    5  A    between atoms: C_5  and  N_6
REMARK    6  A    between atoms: N_6  and  C_7
REMARK    7  A    between atoms: N_6  and  C_8
REMARK    8  A    between atoms: N_16  and  C_17
REMARK                            x       y       z     vdW  Elec       q    Type
REMARK                         _______ _______ _______ _____ _____    ______ ____
ROOT
ATOM      1  C   UNL     1       2.966   6.697  18.065  0.00  0.00    +0.000 A 
ATOM      2  C   UNL     1       4.133   6.956  17.280  0.00  0.00    +0.000 A 
ATOM      3  C   UNL     1       4.888   5.869  16.873  0.00  0.00    +0.000 A 
ATOM      4  C   UNL     1       4.523   4.537  17.084  0.00  0.00    +0.000 A 
ATOM      5  C   UNL     1       3.402   4.277  17.808  0.00  0.00    +0.000 A 
ATOM      6  C   UNL     1       2.607   5.313  18.315  0.00  0.00    +0.000 A 
ATOM      7  C   UNL     1       1.564   4.655  19.041  0.00  0.00    +0.000 A 
ATOM      8  C   UNL     1       1.787   3.296  19.007  0.00  0.00    +0.000 A 
ATOM      9  N   UNL     1       2.902   3.075  18.240  0.00  0.00    +0.000 N 
ATOM     10  C   UNL     1       3.438   1.756  17.994  0.00  0.00    +0.000 C 
ATOM     11  C   UNL     1       5.665   3.714  16.589  0.00  0.00    +0.000 C 
ATOM     12  C   UNL     1       5.805   3.874  15.061  0.00  0.00    +0.000 C 
ATOM     13  C   UNL     1       6.379   5.311  14.918  0.00  0.00    +0.000 C 
ATOM     14  C   UNL     1       6.296   5.838  16.347  0.00  0.00    +0.000 C 
ATOM     15  O   UNL     1       6.758   4.601  17.006  0.00  0.00    +0.000 OA
ENDROOT
BRANCH   1  16
ATOM     16  N   UNL     1       2.245   7.777  18.609  0.00  0.00    +0.000 N 
ATOM     17  C   UNL     1       1.979   7.768  20.043  0.00  0.00    +0.000 C 
BRANCH  16  18
ATOM     18  C   UNL     1       2.069   9.051  17.899  0.00  0.00    +0.000 C 
BRANCH  18  19
ATOM     19  C   UNL     1       0.780   9.770  18.357  0.00  0.00    +0.000 C 
BRANCH  19  21
ATOM     20  C   UNL     1       0.897  11.327  20.185  0.00  0.00    +0.000 C 
ATOM     21  N   UNL     1       0.958  11.195  18.725  0.00  0.00    +0.000 NA
ATOM     22  C   UNL     1       2.226  11.737  18.234  0.00  0.00    +0.000 C 
ENDBRANCH  19  21
ENDBRANCH  18  19
ENDBRANCH  16  18
ENDBRANCH   1  16
TORSDOF 4
ENDMDL
MODEL 7
REMARK VINA RESULT:      -6.7      2.385      5.896
REMARK  Name = 
REMARK  8 active torsions:
REMARK  status: ('A' for Active; 'I' for Inactive)
REMARK    1  A    between atoms: C_1  and  N_2
REMARK    2  A    between atoms: N_2  and  C_3
REMARK    3  A    between atoms: N_2  and  C_4
REMARK    4  A    between atoms: C_4  and  C_5
REMARK    5  A    between atoms: C_5  and  N_6
REMARK    6  A    between atoms: N_6  and  C_7
REMARK    7  A    between atoms: N_6  and  C_8
REMARK    8  A    between atoms: N_16  and  C_17
REMARK                            x       y       z     vdW  Elec       q    Type
REMARK                         _______ _______ _______ _____ _____    ______ ____
ROOT
ATOM      1  C   UNL     1       2.864   6.791  18.411  0.00  0.00    +0.000 A 
ATOM      2  C   UNL     1       3.964   7.068  17.539  0.00  0.00    +0.000 A 
ATOM      3  C   UNL     1       4.661   5.989  17.023  0.00  0.00    +0.000 A 
ATOM      4  C   UNL     1       4.291   4.654  17.209  0.00  0.00    +0.000 A 
ATOM      5  C   UNL     1       3.233   4.379  18.016  0.00  0.00    +0.000 A 
ATOM      6  C   UNL     1       2.504   5.403  18.634  0.00  0.00    +0.000 A 
ATOM      7  C   UNL     1       1.517   4.729  19.420  0.00  0.00    +0.000 A 
ATOM      8  C   UNL     1       1.711   3.370  19.310  0.00  0.00    +0.000 A 
ATOM      9  N   UNL     1       2.751   3.167  18.440  0.00  0.00    +0.000 N 
ATOM     10  C   UNL     1       3.240   1.852  18.093  0.00  0.00    +0.000 C 
ATOM     11  C   UNL     1       5.371   3.837  16.582  0.00  0.00    +0.000 C 
ATOM     12  C   UNL     1       5.382   4.061  15.055  0.00  0.00    +0.000 C 
ATOM     13  C   UNL     1       5.966   5.495  14.923  0.00  0.00    +0.000 C 
ATOM     14  C   UNL     1       6.018   5.961  16.375  0.00  0.00    +0.000 C 
ATOM     15  O   UNL     1       6.513   4.689  16.938  0.00  0.00    +0.000 OA
ENDROOT
BRANCH   1  16
ATOM     16  N   UNL     1       2.213   7.857  19.062  0.00  0.00    +0.000 N 
ATOM     17  C   UNL     1       1.578   8.878  18.235  0.00  0.00    +0.000 C 
BRANCH  16  18
ATOM     18  C   UNL     1       1.833   7.807  20.479  0.00  0.00    +0.000 C 
BRANCH  18  19
ATOM     19  C   UNL     1       0.662   8.770  20.777  0.00  0.00    +0.000 C 
BRANCH  19  21
ATOM     20  C   UNL     1       0.753  11.128  21.240  0.00  0.00    +0.000 C 
ATOM     21  N   UNL     1       0.942   9.791  21.814  0.00  0.00    +0.000 NA
ATOM     22  C   UNL     1       0.083   9.634  22.988  0.00  0.00    +0.000 C 
ENDBRANCH  19  21
ENDBRANCH  18  19
ENDBRANCH  16  18
ENDBRANCH   1  16
TORSDOF 4
ENDMDL
MODEL 8
REMARK VINA RESULT:      -6.7      2.605      5.716
REMARK  Name = 
REMARK  8 active torsions:
REMARK  status: ('A' for Active; 'I' for Inactive)
REMARK    1  A    between atoms: C_1  and  N_2
REMARK    2  A    between atoms: N_2  and  C_3
REMARK    3  A    between atoms: N_2  and  C_4
REMARK    4  A    between atoms: C_4  and  C_5
REMARK    5  A    between atoms: C_5  and  N_6
REMARK    6  A    between atoms: N_6  and  C_7
REMARK    7  A    between atoms: N_6  and  C_8
REMARK    8  A    between atoms: N_16  and  C_17
REMARK                            x       y       z     vdW  Elec       q    Type
REMARK                         _______ _______ _______ _____ _____    ______ ____
ROOT
ATOM      1  C   UNL     1       2.081   7.135  19.761  0.00  0.00    +0.000 A 
ATOM      2  C   UNL     1       1.548   6.119  20.615  0.00  0.00    +0.000 A 
ATOM      3  C   UNL     1       1.891   4.806  20.342  0.00  0.00    +0.000 A 
ATOM      4  C   UNL     1       2.807   4.422  19.359  0.00  0.00    +0.000 A 
ATOM      5  C   UNL     1       3.339   5.381  18.556  0.00  0.00    +0.000 A 
ATOM      6  C   UNL     1       3.004   6.732  18.717  0.00  0.00    +0.000 A 
ATOM      7  C   UNL     1       3.717   7.413  17.680  0.00  0.00    +0.000 A 
ATOM      8  C   UNL     1       4.385   6.484  16.913  0.00  0.00    +0.000 A 
ATOM      9  N   UNL     1       4.160   5.249  17.465  0.00  0.00    +0.000 N 
ATOM     10  C   UNL     1       4.703   4.030  16.911  0.00  0.00    +0.000 C 
ATOM     11  C   UNL     1       2.786   2.930  19.336  0.00  0.00    +0.000 C 
ATOM     12  C   UNL     1       3.339   2.375  20.665  0.00  0.00    +0.000 C 
ATOM     13  C   UNL     1       2.192   2.683  21.669  0.00  0.00    +0.000 C 
ATOM     14  C   UNL     1       1.246   3.538  20.830  0.00  0.00    +0.000 C 
ATOM     15  O   UNL     1       1.353   2.737  19.595  0.00  0.00    +0.000 OA
ENDROOT
BRANCH   1  16
ATOM     16  N   UNL     1       1.654   8.467  19.923  0.00  0.00    +0.000 N 
ATOM     17  C   UNL     1       1.331   9.232  18.724  0.00  0.00    +0.000 C 
BRANCH  16  18
ATOM     18  C   UNL     1       1.179   8.998  21.207  0.00  0.00    +0.000 C 
BRANCH  18  19
ATOM     19  C   UNL     1       0.266  10.227  21.000  0.00  0.00    +0.000 C 
BRANCH  19  21
ATOM     20  C   UNL     1      -0.261  12.440  21.776  0.00  0.00    +0.000 C 
ATOM     21  N   UNL     1       0.085  11.079  22.199  0.00  0.00    +0.000 NA
ATOM     22  C   UNL     1      -0.955  10.562  23.090  0.00  0.00    +0.000 C 
ENDBRANCH  19  21
ENDBRANCH  18  19
ENDBRANCH  16  18
ENDBRANCH   1  16
TORSDOF 4
ENDMDL
MODEL 9
REMARK VINA RESULT:      -6.6      2.633      6.084
REMARK  Name = 
REMARK  8 active torsions:
REMARK  status: ('A' for Active; 'I' for Inactive)
REMARK    1  A    between atoms: C_1  and  N_2
REMARK    2  A    between atoms: N_2  and  C_3
REMARK    3  A    between atoms: N_2  and  C_4
REMARK    4  A    between atoms: C_4  and  C_5
REMARK    5  A    between atoms: C_5  and  N_6
REMARK    6  A    between atoms: N_6  and  C_7
REMARK    7  A    between atoms: N_6  and  C_8
REMARK    8  A    between atoms: N_16  and  C_17
REMARK                            x       y       z     vdW  Elec       q    Type
REMARK                         _______ _______ _______ _____ _____    ______ ____
ROOT
ATOM      1  C   UNL     1       2.496   7.302  18.895  0.00  0.00    +0.000 A 
ATOM      2  C   UNL     1       3.400   7.528  17.810  0.00  0.00    +0.000 A 
ATOM      3  C   UNL     1       4.273   6.506  17.478  0.00  0.00    +0.000 A 
ATOM      4  C   UNL     1       4.251   5.235  18.059  0.00  0.00    +0.000 A 
ATOM      5  C   UNL     1       3.380   5.000  19.075  0.00  0.00    +0.000 A 
ATOM      6  C   UNL     1       2.500   5.993  19.523  0.00  0.00    +0.000 A 
ATOM      7  C   UNL     1       1.789   5.392  20.609  0.00  0.00    +0.000 A 
ATOM      8  C   UNL     1       2.286   4.125  20.821  0.00  0.00    +0.000 A 
ATOM      9  N   UNL     1       3.246   3.890  19.869  0.00  0.00    +0.000 N 
ATOM     10  C   UNL     1       3.992   2.655  19.794  0.00  0.00    +0.000 C 
ATOM     11  C   UNL     1       5.421   4.503  17.490  0.00  0.00    +0.000 C 
ATOM     12  C   UNL     1       5.215   4.276  15.978  0.00  0.00    +0.000 C 
ATOM     13  C   UNL     1       5.427   5.698  15.387  0.00  0.00    +0.000 C 
ATOM     14  C   UNL     1       5.521   6.562  16.641  0.00  0.00    +0.000 C 
ATOM     15  O   UNL     1       6.359   5.630  17.420  0.00  0.00    +0.000 OA
ENDROOT
BRANCH   1  16
ATOM     16  N   UNL     1       1.685   8.359  19.350  0.00  0.00    +0.000 N 
ATOM     17  C   UNL     1       1.465   8.483  20.787  0.00  0.00    +0.000 C 
BRANCH  16  18
ATOM     18  C   UNL     1       1.355   9.522  18.516  0.00  0.00    +0.000 C 
BRANCH  18  19
ATOM     19  C   UNL     1       0.225  10.361  19.151  0.00  0.00    +0.000 C 
BRANCH  19  21
ATOM     20  C   UNL     1       0.742  12.057  20.775  0.00  0.00    +0.000 C 
ATOM     21  N   UNL     1       0.547  11.795  19.345  0.00  0.00    +0.000 NA
ATOM     22  C   UNL     1       1.743  12.198  18.603  0.00  0.00    +0.000 C 
ENDBRANCH  19  21
ENDBRANCH  18  19
ENDBRANCH  16  18
ENDBRANCH   1  16
TORSDOF 4
ENDMDL
