MODEL 1
REMARK VINA RESULT:      -7.4      0.000      0.000
REMARK  Name = 
REMARK  14 active torsions:
REMARK  status: ('A' for Active; 'I' for Inactive)
REMARK    1  A    between atoms: C_1  and  C_2
REMARK    2  A    between atoms: C_2  and  C_3
REMARK    3  A    between atoms: C_2  and  O_16
REMARK    4  A    between atoms: C_4  and  C_5
REMARK    5  A    between atoms: C_6  and  C_7
REMARK    6  A    between atoms: C_7  and  O_8
REMARK    7  A    between atoms: C_13  and  C_14
REMARK    8  A    between atoms: C_13  and  C_15
REMARK    9  A    between atoms: O_16  and  C_17
REMARK   10  A    between atoms: C_19  and  C_20
REMARK   11  A    between atoms: C_20  and  O_21
REMARK   12  A    between atoms: C_22  and  O_23
REMARK   13  A    between atoms: C_24  and  O_25
REMARK   14  A    between atoms: C_26  and  O_27
REMARK                            x       y       z     vdW  Elec       q    Type
REMARK                         _______ _______ _______ _____ _____    ______ ____
ROOT
ATOM      1  C   UNL     1       1.712   5.722  20.695  0.00  0.00    +0.000 C 
ATOM      2  C   UNL     1       2.450   6.818  19.920  0.00  0.00    +0.000 C 
ENDROOT
BRANCH   2   3
ATOM      3  C   UNL     1       3.395   6.144  18.953  0.00  0.00    +0.000 C 
ATOM      4  C   UNL     1       4.532   5.546  19.354  0.00  0.00    +0.000 C 
BRANCH   4   5
ATOM      5  C   UNL     1       5.405   4.631  18.512  0.00  0.00    +0.000 C 
ATOM      6  C   UNL     1       4.613   4.178  17.294  0.00  0.00    +0.000 C 
ATOM      7  C   UNL     1       4.655   4.861  16.138  0.00  0.00    +0.000 C 
ATOM      8  C   UNL     1       5.468   6.096  15.994  0.00  0.00    +0.000 C 
ATOM      9  O   UNL     1       5.312   6.799  14.998  0.00  0.00    +0.000 OA
ATOM     10  C   UNL     1       6.428   6.491  17.099  0.00  0.00    +0.000 C 
ATOM     11  C   UNL     1       6.740   5.335  18.075  0.00  0.00    +0.000 C 
ATOM     12  C   UNL     1       7.503   5.897  19.296  0.00  0.00    +0.000 C 
ATOM     13  C   UNL     1       7.697   4.333  17.382  0.00  0.00    +0.000 C 
BRANCH   6  14
ATOM     14  C   UNL     1       3.833   2.900  17.484  0.00  0.00    +0.000 C 
BRANCH  14  15
ATOM     15  O   UNL     1       2.465   3.067  17.144  0.00  0.00    +0.000 OA
ATOM     16  H   UNL     1       1.949   2.816  17.929  0.00  0.00    +0.000 HD
ENDBRANCH  14  15
ENDBRANCH   6  14
ENDBRANCH   4   5
ENDBRANCH   2   3
BRANCH   2  17
ATOM     17  O   UNL     1       1.565   7.655  19.178  0.00  0.00    +0.000 OA
BRANCH  17  18
ATOM     18  C   UNL     1       1.443   8.985  19.705  0.00  0.00    +0.000 C 
ATOM     19  O   UNL     1       0.482   9.001  20.756  0.00  0.00    +0.000 OA
ATOM     20  C   UNL     1       0.352  10.285  21.376  0.00  0.00    +0.000 C 
ATOM     21  C   UNL     1      -0.234  11.278  20.373  0.00  0.00    +0.000 C 
ATOM     22  C   UNL     1       0.628  11.320  19.104  0.00  0.00    +0.000 C 
ATOM     23  C   UNL     1       0.992   9.927  18.563  0.00  0.00    +0.000 C 
BRANCH  21  24
ATOM     24  O   UNL     1      -0.263  12.591  20.947  0.00  0.00    +0.000 OA
ATOM     25  H   UNL     1       0.180  12.515  21.816  0.00  0.00    +0.000 HD
ENDBRANCH  21  24
BRANCH  22  26
ATOM     26  O   UNL     1      -0.071  12.114  18.127  0.00  0.00    +0.000 OA
ATOM     27  H   UNL     1      -0.446  11.515  17.456  0.00  0.00    +0.000 HD
ENDBRANCH  22  26
BRANCH  23  28
ATOM     28  O   UNL     1       2.002  10.061  17.545  0.00  0.00    +0.000 OA
ATOM     29  H   UNL     1       2.733   9.451  17.741  0.00  0.00    +0.000 HD
ENDBRANCH  23  28
BRANCH  20  30
ATOM     30  C   UNL     1      -0.537  10.111  22.614  0.00  0.00    +0.000 C 
BRANCH  30  31
ATOM     31  O   UNL     1       0.251   9.855  23.776  0.00  0.00    +0.000 OA
ATOM     32  H   UNL     1       0.021   8.951  24.062  0.00  0.00    +0.000 HD
ENDBRANCH  30  31
ENDBRANCH  20  30
ENDBRANCH  17  18
ENDBRANCH   2  17
TORSDOF 11
ENDMDL
MODEL 2
REMARK VINA RESULT:      -7.2      2.254      7.908
REMARK  Name = 
REMARK  14 active torsions:
REMARK  status: ('A' for Active; 'I' for Inactive)
REMARK    1  A    between atoms: C_1  and  C_2
REMARK    2  A    between atoms: C_2  and  C_3
REMARK    3  A    between atoms: C_2  and  O_16
REMARK    4  A    between atoms: C_4  and  C_5
REMARK    5  A    between atoms: C_6  and  C_7
REMARK    6  A    between atoms: C_7  and  O_8
REMARK    7  A    between atoms: C_13  and  C_14
REMARK    8  A    between atoms: C_13  and  C_15
REMARK    9  A    between atoms: O_16  and  C_17
REMARK   10  A    between atoms: C_19  and  C_20
REMARK   11  A    between atoms: C_20  and  O_21
REMARK   12  A    between atoms: C_22  and  O_23
REMARK   13  A    between atoms: C_24  and  O_25
REMARK   14  A    between atoms: C_26  and  O_27
REMARK                            x       y       z     vdW  Elec       q    Type
REMARK                         _______ _______ _______ _____ _____    ______ ____
ROOT
ATOM      1  C   UNL     1       3.230   8.193  17.546  0.00  0.00    +0.000 C 
ATOM      2  C   UNL     1       2.714   7.173  18.564  0.00  0.00    +0.000 C 
ENDROOT
BRANCH   2   3
ATOM      3  C   UNL     1       1.739   7.882  19.475  0.00  0.00    +0.000 C 
ATOM      4  C   UNL     1       1.288   9.123  19.222  0.00  0.00    +0.000 C 
BRANCH   4   5
ATOM      5  C   UNL     1       0.129   9.813  19.922  0.00  0.00    +0.000 C 
ATOM      6  C   UNL     1       0.654  10.529  21.158  0.00  0.00    +0.000 C 
ATOM      7  C   UNL     1       1.054  11.810  21.107  0.00  0.00    +0.000 C 
ATOM      8  C   UNL     1       1.012  12.589  19.843  0.00  0.00    +0.000 C 
ATOM      9  O   UNL     1       1.579  13.678  19.794  0.00  0.00    +0.000 OA
ATOM     10  C   UNL     1       0.321  12.001  18.628  0.00  0.00    +0.000 C 
ATOM     11  C   UNL     1      -0.613  10.820  18.971  0.00  0.00    +0.000 C 
ATOM     12  C   UNL     1      -1.058  10.131  17.661  0.00  0.00    +0.000 C 
ATOM     13  C   UNL     1      -1.900  11.370  19.636  0.00  0.00    +0.000 C 
BRANCH   6  14
ATOM     14  C   UNL     1       0.643   9.704  22.421  0.00  0.00    +0.000 C 
BRANCH  14  15
ATOM     15  O   UNL     1       1.952   9.300  22.794  0.00  0.00    +0.000 OA
ATOM     16  H   UNL     1       2.085   8.410  22.428  0.00  0.00    +0.000 HD
ENDBRANCH  14  15
ENDBRANCH   6  14
ENDBRANCH   4   5
ENDBRANCH   2   3
BRANCH   2  17
ATOM     17  O   UNL     1       2.042   6.076  17.948  0.00  0.00    +0.000 OA
BRANCH  17  18
ATOM     18  C   UNL     1       2.646   4.801  18.213  0.00  0.00    +0.000 C 
ATOM     19  O   UNL     1       2.381   4.411  19.557  0.00  0.00    +0.000 OA
ATOM     20  C   UNL     1       2.900   3.116  19.877  0.00  0.00    +0.000 C 
ATOM     21  C   UNL     1       4.427   3.154  19.836  0.00  0.00    +0.000 C 
ATOM     22  C   UNL     1       4.908   3.661  18.470  0.00  0.00    +0.000 C 
ATOM     23  C   UNL     1       4.173   4.925  17.991  0.00  0.00    +0.000 C 
BRANCH  21  24
ATOM     24  O   UNL     1       4.954   1.837  20.043  0.00  0.00    +0.000 OA
ATOM     25  H   UNL     1       4.205   1.294  20.361  0.00  0.00    +0.000 HD
ENDBRANCH  21  24
BRANCH  22  26
ATOM     26  O   UNL     1       6.331   3.863  18.554  0.00  0.00    +0.000 OA
ATOM     27  H   UNL     1       6.744   3.022  18.822  0.00  0.00    +0.000 HD
ENDBRANCH  22  26
BRANCH  23  28
ATOM     28  O   UNL     1       4.498   5.170  16.609  0.00  0.00    +0.000 OA
ATOM     29  H   UNL     1       3.677   5.186  16.088  0.00  0.00    +0.000 HD
ENDBRANCH  23  28
BRANCH  20  30
ATOM     30  C   UNL     1       2.362   2.733  21.261  0.00  0.00    +0.000 C 
BRANCH  30  31
ATOM     31  O   UNL     1       0.940   2.856  21.308  0.00  0.00    +0.000 OA
ATOM     32  H   UNL     1       0.652   2.337  22.082  0.00  0.00    +0.000 HD
ENDBRANCH  30  31
ENDBRANCH  20  30
ENDBRANCH  17  18
ENDBRANCH   2  17
TORSDOF 11
ENDMDL
MODEL 3
REMARK VINA RESULT:      -7.2      1.582      2.831
REMARK  Name = 
REMARK  14 active torsions:
REMARK  status: ('A' for Active; 'I' for Inactive)
REMARK    1  A    between atoms: C_1  and  C_2
REMARK    2  A    between atoms: C_2  and  C_3
REMARK    3  A    between atoms: C_2  and  O_16
REMARK    4  A    between atoms: C_4  and  C_5
REMARK    5  A    between atoms: C_6  and  C_7
REMARK    6  A    between atoms: C_7  and  O_8
REMARK    7  A    between atoms: C_13  and  C_14
REMARK    8  A    between atoms: C_13  and  C_15
REMARK    9  A    between atoms: O_16  and  C_17
REMARK   10  A    between atoms: C_19  and  C_20
REMARK   11  A    between atoms: C_20  and  O_21
REMARK   12  A    between atoms: C_22  and  O_23
REMARK   13  A    between atoms: C_24  and  O_25
REMARK   14  A    between atoms: C_26  and  O_27
REMARK                            x       y       z     vdW  Elec       q    Type
REMARK                         _______ _______ _______ _____ _____    ______ ____
ROOT
ATOM      1  C   UNL     1       2.499   8.850  17.570  0.00  0.00    +0.000 C 
ATOM      2  C   UNL     1       1.976   7.975  18.712  0.00  0.00    +0.000 C 
ENDROOT
BRANCH   2   3
ATOM      3  C   UNL     1       2.926   6.812  18.876  0.00  0.00    +0.000 C 
ATOM      4  C   UNL     1       3.873   6.521  17.967  0.00  0.00    +0.000 C 
BRANCH   4   5
ATOM      5  C   UNL     1       5.027   5.550  18.158  0.00  0.00    +0.000 C 
ATOM      6  C   UNL     1       4.562   4.151  17.778  0.00  0.00    +0.000 C 
ATOM      7  C   UNL     1       4.706   3.681  16.528  0.00  0.00    +0.000 C 
ATOM      8  C   UNL     1       5.318   4.505  15.453  0.00  0.00    +0.000 C 
ATOM      9  O   UNL     1       5.237   4.119  14.289  0.00  0.00    +0.000 OA
ATOM     10  C   UNL     1       5.975   5.824  15.807  0.00  0.00    +0.000 C 
ATOM     11  C   UNL     1       6.285   5.965  17.313  0.00  0.00    +0.000 C 
ATOM     12  C   UNL     1       6.704   7.422  17.609  0.00  0.00    +0.000 C 
ATOM     13  C   UNL     1       7.507   5.078  17.663  0.00  0.00    +0.000 C 
BRANCH   6  14
ATOM     14  C   UNL     1       3.982   3.346  18.915  0.00  0.00    +0.000 C 
BRANCH  14  15
ATOM     15  O   UNL     1       4.981   2.597  19.590  0.00  0.00    +0.000 OA
ATOM     16  H   UNL     1       4.719   2.560  20.525  0.00  0.00    +0.000 HD
ENDBRANCH  14  15
ENDBRANCH   6  14
ENDBRANCH   4   5
ENDBRANCH   2   3
BRANCH   2  17
ATOM     17  O   UNL     1       1.903   8.678  19.952  0.00  0.00    +0.000 OA
BRANCH  17  18
ATOM     18  C   UNL     1       0.633   9.303  20.192  0.00  0.00    +0.000 C 
ATOM     19  O   UNL     1       0.180   9.945  19.004  0.00  0.00    +0.000 OA
ATOM     20  C   UNL     1      -1.115  10.539  19.149  0.00  0.00    +0.000 C 
ATOM     21  C   UNL     1      -1.037  11.696  20.144  0.00  0.00    +0.000 C 
ATOM     22  C   UNL     1      -0.460  11.208  21.479  0.00  0.00    +0.000 C 
ATOM     23  C   UNL     1       0.805  10.346  21.323  0.00  0.00    +0.000 C 
BRANCH  21  24
ATOM     24  O   UNL     1      -2.348  12.224  20.381  0.00  0.00    +0.000 OA
ATOM     25  H   UNL     1      -2.820  11.549  20.909  0.00  0.00    +0.000 HD
ENDBRANCH  21  24
BRANCH  22  26
ATOM     26  O   UNL     1      -0.227  12.365  22.305  0.00  0.00    +0.000 OA
ATOM     27  H   UNL     1       0.490  12.155  22.931  0.00  0.00    +0.000 HD
ENDBRANCH  22  26
BRANCH  23  28
ATOM     28  O   UNL     1       1.117   9.725  22.585  0.00  0.00    +0.000 OA
ATOM     29  H   UNL     1       1.497   8.846  22.420  0.00  0.00    +0.000 HD
ENDBRANCH  23  28
BRANCH  20  30
ATOM     30  C   UNL     1      -1.571  10.995  17.757  0.00  0.00    +0.000 C 
BRANCH  30  31
ATOM     31  O   UNL     1      -1.390  12.402  17.596  0.00  0.00    +0.000 OA
ATOM     32  H   UNL     1      -0.675  12.653  18.211  0.00  0.00    +0.000 HD
ENDBRANCH  30  31
ENDBRANCH  20  30
ENDBRANCH  17  18
ENDBRANCH   2  17
TORSDOF 11
ENDMDL
MODEL 4
REMARK VINA RESULT:      -7.1      2.116      8.508
REMARK  Name = 
REMARK  14 active torsions:
REMARK  status: ('A' for Active; 'I' for Inactive)
REMARK    1  A    between atoms: C_1  and  C_2
REMARK    2  A    between atoms: C_2  and  C_3
REMARK    3  A    between atoms: C_2  and  O_16
REMARK    4  A    between atoms: C_4  and  C_5
REMARK    5  A    between atoms: C_6  and  C_7
REMARK    6  A    between atoms: C_7  and  O_8
REMARK    7  A    between atoms: C_13  and  C_14
REMARK    8  A    between atoms: C_13  and  C_15
REMARK    9  A    between atoms: O_16  and  C_17
REMARK   10  A    between atoms: C_19  and  C_20
REMARK   11  A    between atoms: C_20  and  O_21
REMARK   12  A    between atoms: C_22  and  O_23
REMARK   13  A    between atoms: C_24  and  O_25
REMARK   14  A    between atoms: C_26  and  O_27
REMARK                            x       y       z     vdW  Elec       q    Type
REMARK                         _______ _______ _______ _____ _____    ______ ____
ROOT
ATOM      1  C   UNL     1       2.461   8.514  17.902  0.00  0.00    +0.000 C 
ATOM      2  C   UNL     1       2.229   7.803  19.238  0.00  0.00    +0.000 C 
ENDROOT
BRANCH   2   3
ATOM      3  C   UNL     1       1.223   8.611  20.023  0.00  0.00    +0.000 C 
ATOM      4  C   UNL     1       0.567   9.658  19.492  0.00  0.00    +0.000 C 
BRANCH   4   5
ATOM      5  C   UNL     1      -0.633  10.364  20.102  0.00  0.00    +0.000 C 
ATOM      6  C   UNL     1      -0.239  10.921  21.462  0.00  0.00    +0.000 C 
ATOM      7  C   UNL     1       0.242  12.168  21.595  0.00  0.00    +0.000 C 
ATOM      8  C   UNL     1       0.421  13.062  20.422  0.00  0.00    +0.000 C 
ATOM      9  O   UNL     1       1.055  14.106  20.560  0.00  0.00    +0.000 OA
ATOM     10  C   UNL     1      -0.132  12.643  19.074  0.00  0.00    +0.000 C 
ATOM     11  C   UNL     1      -1.175  11.508  19.170  0.00  0.00    +0.000 C 
ATOM     12  C   UNL     1      -1.478  10.979  17.751  0.00  0.00    +0.000 C 
ATOM     13  C   UNL     1      -2.504  12.087  19.716  0.00  0.00    +0.000 C 
BRANCH   6  14
ATOM     14  C   UNL     1      -0.473   9.984  22.622  0.00  0.00    +0.000 C 
BRANCH  14  15
ATOM     15  O   UNL     1       0.710   9.788  23.383  0.00  0.00    +0.000 OA
ATOM     16  H   UNL     1       1.004   8.878  23.211  0.00  0.00    +0.000 HD
ENDBRANCH  14  15
ENDBRANCH   6  14
ENDBRANCH   4   5
ENDBRANCH   2   3
BRANCH   2  17
ATOM     17  O   UNL     1       1.717   6.481  19.073  0.00  0.00    +0.000 OA
BRANCH  17  18
ATOM     18  C   UNL     1       2.577   5.456  19.591  0.00  0.00    +0.000 C 
ATOM     19  O   UNL     1       3.880   5.591  19.032  0.00  0.00    +0.000 OA
ATOM     20  C   UNL     1       4.814   4.638  19.553  0.00  0.00    +0.000 C 
ATOM     21  C   UNL     1       4.406   3.232  19.113  0.00  0.00    +0.000 C 
ATOM     22  C   UNL     1       2.963   2.940  19.544  0.00  0.00    +0.000 C 
ATOM     23  C   UNL     1       1.981   4.077  19.214  0.00  0.00    +0.000 C 
BRANCH  21  24
ATOM     24  O   UNL     1       5.268   2.262  19.720  0.00  0.00    +0.000 OA
ATOM     25  H   UNL     1       6.182   2.557  19.532  0.00  0.00    +0.000 HD
ENDBRANCH  21  24
BRANCH  22  26
ATOM     26  O   UNL     1       2.569   1.694  18.939  0.00  0.00    +0.000 OA
ATOM     27  H   UNL     1       1.756   1.847  18.424  0.00  0.00    +0.000 HD
ENDBRANCH  22  26
BRANCH  23  28
ATOM     28  O   UNL     1       0.728   3.832  19.880  0.00  0.00    +0.000 OA
ATOM     29  H   UNL     1       0.842   3.100  20.511  0.00  0.00    +0.000 HD
ENDBRANCH  23  28
BRANCH  20  30
ATOM     30  C   UNL     1       6.206   5.030  19.041  0.00  0.00    +0.000 C 
BRANCH  30  31
ATOM     31  O   UNL     1       6.687   4.080  18.090  0.00  0.00    +0.000 OA
ATOM     32  H   UNL     1       6.425   4.421  17.214  0.00  0.00    +0.000 HD
ENDBRANCH  30  31
ENDBRANCH  20  30
ENDBRANCH  17  18
ENDBRANCH   2  17
TORSDOF 11
ENDMDL
MODEL 5
REMARK VINA RESULT:      -7.1      1.754      3.227
REMARK  Name = 
REMARK  14 active torsions:
REMARK  status: ('A' for Active; 'I' for Inactive)
REMARK    1  A    between atoms: C_1  and  C_2
REMARK    2  A    between atoms: C_2  and  C_3
REMARK    3  A    between atoms: C_2  and  O_16
REMARK    4  A    between atoms: C_4  and  C_5
REMARK    5  A    between atoms: C_6  and  C_7
REMARK    6  A    between atoms: C_7  and  O_8
REMARK    7  A    between atoms: C_13  and  C_14
REMARK    8  A    between atoms: C_13  and  C_15
REMARK    9  A    between atoms: O_16  and  C_17
REMARK   10  A    between atoms: C_19  and  C_20
REMARK   11  A    between atoms: C_20  and  O_21
REMARK   12  A    between atoms: C_22  and  O_23
REMARK   13  A    between atoms: C_24  and  O_25
REMARK   14  A    between atoms: C_26  and  O_27
REMARK                            x       y       z     vdW  Elec       q    Type
REMARK                         _______ _______ _______ _____ _____    ______ ____
ROOT
ATOM      1  C   UNL     1       2.203  10.757  18.126  0.00  0.00    +0.000 C 
ATOM      2  C   UNL     1       1.323   9.531  17.872  0.00  0.00    +0.000 C 
ENDROOT
BRANCH   2   3
ATOM      3  C   UNL     1       1.864   8.392  18.706  0.00  0.00    +0.000 C 
ATOM      4  C   UNL     1       2.563   7.375  18.171  0.00  0.00    +0.000 C 
BRANCH   4   5
ATOM      5  C   UNL     1       3.359   6.336  18.942  0.00  0.00    +0.000 C 
ATOM      6  C   UNL     1       2.410   5.256  19.440  0.00  0.00    +0.000 C 
ATOM      7  C   UNL     1       2.158   4.156  18.713  0.00  0.00    +0.000 C 
ATOM      8  C   UNL     1       2.788   3.940  17.385  0.00  0.00    +0.000 C 
ATOM      9  O   UNL     1       2.371   3.033  16.668  0.00  0.00    +0.000 OA
ATOM     10  C   UNL     1       3.887   4.875  16.919  0.00  0.00    +0.000 C 
ATOM     11  C   UNL     1       4.502   5.708  18.065  0.00  0.00    +0.000 C 
ATOM     12  C   UNL     1       5.413   6.801  17.463  0.00  0.00    +0.000 C 
ATOM     13  C   UNL     1       5.419   4.794  18.918  0.00  0.00    +0.000 C 
BRANCH   6  14
ATOM     14  C   UNL     1       1.826   5.508  20.809  0.00  0.00    +0.000 C 
BRANCH  14  15
ATOM     15  O   UNL     1       2.393   4.648  21.786  0.00  0.00    +0.000 OA
ATOM     16  H   UNL     1       2.884   3.962  21.303  0.00  0.00    +0.000 HD
ENDBRANCH  14  15
ENDBRANCH   6  14
ENDBRANCH   4   5
ENDBRANCH   2   3
BRANCH   2  17
ATOM     17  O   UNL     1      -0.040   9.749  18.234  0.00  0.00    +0.000 OA
BRANCH  17  18
ATOM     18  C   UNL     1      -0.223  10.796  19.200  0.00  0.00    +0.000 C 
ATOM     19  O   UNL     1      -0.502  10.230  20.477  0.00  0.00    +0.000 OA
ATOM     20  C   UNL     1      -0.635  11.215  21.508  0.00  0.00    +0.000 C 
ATOM     21  C   UNL     1      -1.876  12.066  21.242  0.00  0.00    +0.000 C 
ATOM     22  C   UNL     1      -1.803  12.686  19.841  0.00  0.00    +0.000 C 
ATOM     23  C   UNL     1      -1.409  11.681  18.745  0.00  0.00    +0.000 C 
BRANCH  21  24
ATOM     24  O   UNL     1      -1.956  13.126  22.204  0.00  0.00    +0.000 OA
ATOM     25  H   UNL     1      -2.817  13.015  22.656  0.00  0.00    +0.000 HD
ENDBRANCH  21  24
BRANCH  22  26
ATOM     26  O   UNL     1      -3.073  13.309  19.571  0.00  0.00    +0.000 OA
ATOM     27  H   UNL     1      -3.779  12.675  19.794  0.00  0.00    +0.000 HD
ENDBRANCH  22  26
BRANCH  23  28
ATOM     28  O   UNL     1      -1.113  12.395  17.529  0.00  0.00    +0.000 OA
ATOM     29  H   UNL     1      -0.416  13.049  17.707  0.00  0.00    +0.000 HD
ENDBRANCH  23  28
BRANCH  20  30
ATOM     30  C   UNL     1      -0.711  10.472  22.847  0.00  0.00    +0.000 C 
BRANCH  30  31
ATOM     31  O   UNL     1       0.560   9.927  23.202  0.00  0.00    +0.000 OA
ATOM     32  H   UNL     1       0.815   9.341  22.465  0.00  0.00    +0.000 HD
ENDBRANCH  30  31
ENDBRANCH  20  30
ENDBRANCH  17  18
ENDBRANCH   2  17
TORSDOF 11
ENDMDL
MODEL 6
REMARK VINA RESULT:      -7.0      2.028      3.913
REMARK  Name = 
REMARK  14 active torsions:
REMARK  status: ('A' for Active; 'I' for Inactive)
REMARK    1  A    between atoms: C_1  and  C_2
REMARK    2  A    between atoms: C_2  and  C_3
REMARK    3  A    between atoms: C_2  and  O_16
REMARK    4  A    between atoms: C_4  and  C_5
REMARK    5  A    between atoms: C_6  and  C_7
REMARK    6  A    between atoms: C_7  and  O_8
REMARK    7  A    between atoms: C_13  and  C_14
REMARK    8  A    between atoms: C_13  and  C_15
REMARK    9  A    between atoms: O_16  and  C_17
REMARK   10  A    between atoms: C_19  and  C_20
REMARK   11  A    between atoms: C_20  and  O_21
REMARK   12  A    between atoms: C_22  and  O_23
REMARK   13  A    between atoms: C_24  and  O_25
REMARK   14  A    between atoms: C_26  and  O_27
REMARK                            x       y       z     vdW  Elec       q    Type
REMARK                         _______ _______ _______ _____ _____    ______ ____
ROOT
ATOM      1  C   UNL     1       2.062   9.134  17.794  0.00  0.00    +0.000 C 
ATOM      2  C   UNL     1       1.314   8.709  19.060  0.00  0.00    +0.000 C 
ENDROOT
BRANCH   2   3
ATOM      3  C   UNL     1       2.104   7.598  19.713  0.00  0.00    +0.000 C 
ATOM      4  C   UNL     1       2.412   6.458  19.069  0.00  0.00    +0.000 C 
BRANCH   4   5
ATOM      5  C   UNL     1       3.405   5.408  19.538  0.00  0.00    +0.000 C 
ATOM      6  C   UNL     1       2.639   4.207  20.072  0.00  0.00    +0.000 C 
ATOM      7  C   UNL     1       2.310   3.176  19.277  0.00  0.00    +0.000 C 
ATOM      8  C   UNL     1       2.671   3.159  17.836  0.00  0.00    +0.000 C 
ATOM      9  O   UNL     1       2.172   2.305  17.107  0.00  0.00    +0.000 OA
ATOM     10  C   UNL     1       3.599   4.225  17.287  0.00  0.00    +0.000 C 
ATOM     11  C   UNL     1       4.383   4.974  18.387  0.00  0.00    +0.000 C 
ATOM     12  C   UNL     1       5.090   6.197  17.760  0.00  0.00    +0.000 C 
ATOM     13  C   UNL     1       5.504   4.049  18.927  0.00  0.00    +0.000 C 
BRANCH   6  14
ATOM     14  C   UNL     1       2.329   4.259  21.548  0.00  0.00    +0.000 C 
BRANCH  14  15
ATOM     15  O   UNL     1       2.082   2.965  22.077  0.00  0.00    +0.000 OA
ATOM     16  H   UNL     1       2.431   2.328  21.431  0.00  0.00    +0.000 HD
ENDBRANCH  14  15
ENDBRANCH   6  14
ENDBRANCH   4   5
ENDBRANCH   2   3
BRANCH   2  17
ATOM     17  O   UNL     1       1.173   9.775  19.998  0.00  0.00    +0.000 OA
BRANCH  17  18
ATOM     18  C   UNL     1      -0.155  10.316  20.068  0.00  0.00    +0.000 C 
ATOM     19  O   UNL     1      -0.543  10.809  18.789  0.00  0.00    +0.000 OA
ATOM     20  C   UNL     1      -1.885  11.308  18.766  0.00  0.00    +0.000 C 
ATOM     21  C   UNL     1      -1.981  12.553  19.646  0.00  0.00    +0.000 C 
ATOM     22  C   UNL     1      -1.494  12.237  21.066  0.00  0.00    +0.000 C 
ATOM     23  C   UNL     1      -0.162  11.468  21.102  0.00  0.00    +0.000 C 
BRANCH  21  24
ATOM     24  O   UNL     1      -3.342  12.995  19.720  0.00  0.00    +0.000 OA
ATOM     25  H   UNL     1      -3.314  13.970  19.641  0.00  0.00    +0.000 HD
ENDBRANCH  21  24
BRANCH  22  26
ATOM     26  O   UNL     1      -1.421  13.479  21.792  0.00  0.00    +0.000 OA
ATOM     27  H   UNL     1      -0.679  13.422  22.421  0.00  0.00    +0.000 HD
ENDBRANCH  22  26
BRANCH  23  28
ATOM     28  O   UNL     1       0.077  10.992  22.441  0.00  0.00    +0.000 OA
ATOM     29  H   UNL     1      -0.660  10.417  22.709  0.00  0.00    +0.000 HD
ENDBRANCH  23  28
BRANCH  20  30
ATOM     30  C   UNL     1      -2.243  11.598  17.303  0.00  0.00    +0.000 C 
BRANCH  30  31
ATOM     31  O   UNL     1      -3.643  11.833  17.157  0.00  0.00    +0.000 OA
ATOM     32  H   UNL     1      -4.068  10.956  17.198  0.00  0.00    +0.000 HD
ENDBRANCH  30  31
ENDBRANCH  20  30
ENDBRANCH  17  18
ENDBRANCH   2  17
TORSDOF 11
ENDMDL
MODEL 7
REMARK VINA RESULT:      -7.0      2.261      8.458
REMARK  Name = 
REMARK  14 active torsions:
REMARK  status: ('A' for Active; 'I' for Inactive)
REMARK    1  A    between atoms: C_1  and  C_2
REMARK    2  A    between atoms: C_2  and  C_3
REMARK    3  A    between atoms: C_2  and  O_16
REMARK    4  A    between atoms: C_4  and  C_5
REMARK    5  A    between atoms: C_6  and  C_7
REMARK    6  A    between atoms: C_7  and  O_8
REMARK    7  A    between atoms: C_13  and  C_14
REMARK    8  A    between atoms: C_13  and  C_15
REMARK    9  A    between atoms: O_16  and  C_17
REMARK   10  A    between atoms: C_19  and  C_20
REMARK   11  A    between atoms: C_20  and  O_21
REMARK   12  A    between atoms: C_22  and  O_23
REMARK   13  A    between atoms: C_24  and  O_25
REMARK   14  A    between atoms: C_26  and  O_27
REMARK                            x       y       z     vdW  Elec       q    Type
REMARK                         _______ _______ _______ _____ _____    ______ ____
ROOT
ATOM      1  C   UNL     1       1.928   7.930  17.742  0.00  0.00    +0.000 C 
ATOM      2  C   UNL     1       2.200   8.228  19.218  0.00  0.00    +0.000 C 
ENDROOT
BRANCH   2   3
ATOM      3  C   UNL     1       0.935   8.802  19.815  0.00  0.00    +0.000 C 
ATOM      4  C   UNL     1       0.483  10.029  19.502  0.00  0.00    +0.000 C 
BRANCH   4   5
ATOM      5  C   UNL     1      -0.889  10.588  19.839  0.00  0.00    +0.000 C 
ATOM      6  C   UNL     1      -0.751  11.577  20.987  0.00  0.00    +0.000 C 
ATOM      7  C   UNL     1      -0.552  12.886  20.763  0.00  0.00    +0.000 C 
ATOM      8  C   UNL     1      -0.450  13.433  19.386  0.00  0.00    +0.000 C 
ATOM      9  O   UNL     1      -0.060  14.588  19.231  0.00  0.00    +0.000 OA
ATOM     10  C   UNL     1      -0.772  12.541  18.203  0.00  0.00    +0.000 C 
ATOM     11  C   UNL     1      -1.563  11.273  18.595  0.00  0.00    +0.000 C 
ATOM     12  C   UNL     1      -1.613  10.315  17.385  0.00  0.00    +0.000 C 
ATOM     13  C   UNL     1      -3.030  11.668  18.903  0.00  0.00    +0.000 C 
BRANCH   6  14
ATOM     14  C   UNL     1      -0.898  10.974  22.363  0.00  0.00    +0.000 C 
BRANCH  14  15
ATOM     15  O   UNL     1       0.352  10.545  22.882  0.00  0.00    +0.000 OA
ATOM     16  H   UNL     1       0.901  11.341  22.984  0.00  0.00    +0.000 HD
ENDBRANCH  14  15
ENDBRANCH   6  14
ENDBRANCH   4   5
ENDBRANCH   2   3
BRANCH   2  17
ATOM     17  O   UNL     1       2.558   7.060  19.956  0.00  0.00    +0.000 OA
BRANCH  17  18
ATOM     18  C   UNL     1       2.678   5.878  19.150  0.00  0.00    +0.000 C 
ATOM     19  O   UNL     1       1.801   4.869  19.641  0.00  0.00    +0.000 OA
ATOM     20  C   UNL     1       1.818   3.678  18.846  0.00  0.00    +0.000 C 
ATOM     21  C   UNL     1       3.189   3.011  18.957  0.00  0.00    +0.000 C 
ATOM     22  C   UNL     1       4.292   4.000  18.561  0.00  0.00    +0.000 C 
ATOM     23  C   UNL     1       4.143   5.383  19.218  0.00  0.00    +0.000 C 
BRANCH  21  24
ATOM     24  O   UNL     1       3.254   1.881  18.078  0.00  0.00    +0.000 OA
ATOM     25  H   UNL     1       3.154   1.091  18.647  0.00  0.00    +0.000 HD
ENDBRANCH  21  24
BRANCH  22  26
ATOM     26  O   UNL     1       5.560   3.390  18.869  0.00  0.00    +0.000 OA
ATOM     27  H   UNL     1       5.572   2.497  18.479  0.00  0.00    +0.000 HD
ENDBRANCH  22  26
BRANCH  23  28
ATOM     28  O   UNL     1       5.054   6.308  18.594  0.00  0.00    +0.000 OA
ATOM     29  H   UNL     1       5.349   6.957  19.254  0.00  0.00    +0.000 HD
ENDBRANCH  23  28
BRANCH  20  30
ATOM     30  C   UNL     1       0.686   2.773  19.348  0.00  0.00    +0.000 C 
BRANCH  30  31
ATOM     31  O   UNL     1       0.298   1.835  18.345  0.00  0.00    +0.000 OA
ATOM     32  H   UNL     1      -0.515   2.193  17.943  0.00  0.00    +0.000 HD
ENDBRANCH  30  31
ENDBRANCH  20  30
ENDBRANCH  17  18
ENDBRANCH   2  17
TORSDOF 11
ENDMDL
MODEL 8
REMARK VINA RESULT:      -6.9      2.093      3.325
REMARK  Name = 
REMARK  14 active torsions:
REMARK  status: ('A' for Active; 'I' for Inactive)
REMARK    1  A    between atoms: C_1  and  C_2
REMARK    2  A    between atoms: C_2  and  C_3
REMARK    3  A    between atoms: C_2  and  O_16
REMARK    4  A    between atoms: C_4  and  C_5
REMARK    5  A    between atoms: C_6  and  C_7
REMARK    6  A    between atoms: C_7  and  O_8
REMARK    7  A    between atoms: C_13  and  C_14
REMARK    8  A    between atoms: C_13  and  C_15
REMARK    9  A    between atoms: O_16  and  C_17
REMARK   10  A    between atoms: C_19  and  C_20
REMARK   11  A    between atoms: C_20  and  O_21
REMARK   12  A    between atoms: C_22  and  O_23
REMARK   13  A    between atoms: C_24  and  O_25
REMARK   14  A    between atoms: C_26  and  O_27
REMARK                            x       y       z     vdW  Elec       q    Type
REMARK                         _______ _______ _______ _____ _____    ______ ____
ROOT
ATOM      1  C   UNL     1       1.469   8.444  20.143  0.00  0.00    +0.000 C 
ATOM      2  C   UNL     1       1.543   9.036  18.733  0.00  0.00    +0.000 C 
ENDROOT
BRANCH   2   3
ATOM      3  C   UNL     1       2.236   8.029  17.845  0.00  0.00    +0.000 C 
ATOM      4  C   UNL     1       3.073   7.095  18.330  0.00  0.00    +0.000 C 
BRANCH   4   5
ATOM      5  C   UNL     1       3.608   5.893  17.569  0.00  0.00    +0.000 C 
ATOM      6  C   UNL     1       5.025   6.194  17.105  0.00  0.00    +0.000 C 
ATOM      7  C   UNL     1       6.091   5.874  17.856  0.00  0.00    +0.000 C 
ATOM      8  C   UNL     1       5.940   5.217  19.180  0.00  0.00    +0.000 C 
ATOM      9  O   UNL     1       6.918   5.135  19.920  0.00  0.00    +0.000 OA
ATOM     10  C   UNL     1       4.576   4.715  19.613  0.00  0.00    +0.000 C 
ATOM     11  C   UNL     1       3.576   4.587  18.443  0.00  0.00    +0.000 C 
ATOM     12  C   UNL     1       2.164   4.326  19.012  0.00  0.00    +0.000 C 
ATOM     13  C   UNL     1       3.945   3.342  17.596  0.00  0.00    +0.000 C 
BRANCH   6  14
ATOM     14  C   UNL     1       5.123   6.829  15.739  0.00  0.00    +0.000 C 
BRANCH  14  15
ATOM     15  O   UNL     1       5.619   5.915  14.772  0.00  0.00    +0.000 OA
ATOM     16  H   UNL     1       6.570   6.094  14.681  0.00  0.00    +0.000 HD
ENDBRANCH  14  15
ENDBRANCH   6  14
ENDBRANCH   4   5
ENDBRANCH   2   3
BRANCH   2  17
ATOM     17  O   UNL     1       0.255   9.311  18.186  0.00  0.00    +0.000 OA
BRANCH  17  18
ATOM     18  C   UNL     1      -0.194  10.658  18.404  0.00  0.00    +0.000 C 
ATOM     19  O   UNL     1      -0.066  10.991  19.783  0.00  0.00    +0.000 OA
ATOM     20  C   UNL     1      -0.437  12.345  20.067  0.00  0.00    +0.000 C 
ATOM     21  C   UNL     1      -1.932  12.528  19.817  0.00  0.00    +0.000 C 
ATOM     22  C   UNL     1      -2.285  12.109  18.384  0.00  0.00    +0.000 C 
ATOM     23  C   UNL     1      -1.677  10.758  17.972  0.00  0.00    +0.000 C 
BRANCH  21  24
ATOM     24  O   UNL     1      -2.291  13.905  19.990  0.00  0.00    +0.000 OA
ATOM     25  H   UNL     1      -2.593  14.217  19.113  0.00  0.00    +0.000 HD
ENDBRANCH  21  24
BRANCH  22  26
ATOM     26  O   UNL     1      -3.720  12.115  18.266  0.00  0.00    +0.000 OA
ATOM     27  H   UNL     1      -3.970  11.512  17.543  0.00  0.00    +0.000 HD
ENDBRANCH  22  26
BRANCH  23  28
ATOM     28  O   UNL     1      -1.838  10.576  16.552  0.00  0.00    +0.000 OA
ATOM     29  H   UNL     1      -2.484   9.868  16.393  0.00  0.00    +0.000 HD
ENDBRANCH  23  28
BRANCH  20  30
ATOM     30  C   UNL     1      -0.048  12.632  21.523  0.00  0.00    +0.000 C 
BRANCH  30  31
ATOM     31  O   UNL     1      -1.162  12.446  22.396  0.00  0.00    +0.000 OA
ATOM     32  H   UNL     1      -1.956  12.645  21.864  0.00  0.00    +0.000 HD
ENDBRANCH  30  31
ENDBRANCH  20  30
ENDBRANCH  17  18
ENDBRANCH   2  17
TORSDOF 11
ENDMDL
MODEL 9
REMARK VINA RESULT:      -6.9      2.404      3.836
REMARK  Name = 
REMARK  14 active torsions:
REMARK  status: ('A' for Active; 'I' for Inactive)
REMARK    1  A    between atoms: C_1  and  C_2
REMARK    2  A    between atoms: C_2  and  C_3
REMARK    3  A    between atoms: C_2  and  O_16
REMARK    4  A    between atoms: C_4  and  C_5
REMARK    5  A    between atoms: C_6  and  C_7
REMARK    6  A    between atoms: C_7  and  O_8
REMARK    7  A    between atoms: C_13  and  C_14
REMARK    8  A    between atoms: C_13  and  C_15
REMARK    9  A    between atoms: O_16  and  C_17
REMARK   10  A    between atoms: C_19  and  C_20
REMARK   11  A    between atoms: C_20  and  O_21
REMARK   12  A    between atoms: C_22  and  O_23
REMARK   13  A    between atoms: C_24  and  O_25
REMARK   14  A    between atoms: C_26  and  O_27
REMARK                            x       y       z     vdW  Elec       q    Type
REMARK                         _______ _______ _______ _____ _____    ______ ____
ROOT
ATOM      1  C   UNL     1       1.192   8.745  19.829  0.00  0.00    +0.000 C 
ATOM      2  C   UNL     1       1.867   9.306  18.575  0.00  0.00    +0.000 C 
ENDROOT
BRANCH   2   3
ATOM      3  C   UNL     1       2.341   8.138  17.742  0.00  0.00    +0.000 C 
ATOM      4  C   UNL     1       3.304   7.297  18.163  0.00  0.00    +0.000 C 
BRANCH   4   5
ATOM      5  C   UNL     1       3.665   5.964  17.528  0.00  0.00    +0.000 C 
ATOM      6  C   UNL     1       5.089   6.040  16.997  0.00  0.00    +0.000 C 
ATOM      7  C   UNL     1       6.138   5.678  17.753  0.00  0.00    +0.000 C 
ATOM      8  C   UNL     1       5.962   5.191  19.146  0.00  0.00    +0.000 C 
ATOM      9  O   UNL     1       6.952   5.073  19.865  0.00  0.00    +0.000 OA
ATOM     10  C   UNL     1       4.567   4.907  19.666  0.00  0.00    +0.000 C 
ATOM     11  C   UNL     1       3.515   4.774  18.544  0.00  0.00    +0.000 C 
ATOM     12  C   UNL     1       2.104   4.749  19.174  0.00  0.00    +0.000 C 
ATOM     13  C   UNL     1       3.703   3.409  17.834  0.00  0.00    +0.000 C 
BRANCH   6  14
ATOM     14  C   UNL     1       5.207   6.507  15.567  0.00  0.00    +0.000 C 
BRANCH  14  15
ATOM     15  O   UNL     1       6.192   5.771  14.857  0.00  0.00    +0.000 OA
ATOM     16  H   UNL     1       5.837   5.616  13.965  0.00  0.00    +0.000 HD
ENDBRANCH  14  15
ENDBRANCH   6  14
ENDBRANCH   4   5
ENDBRANCH   2   3
BRANCH   2  17
ATOM     17  O   UNL     1       0.981  10.095  17.782  0.00  0.00    +0.000 OA
BRANCH  17  18
ATOM     18  C   UNL     1      -0.178  10.558  18.492  0.00  0.00    +0.000 C 
ATOM     19  O   UNL     1      -1.346  10.325  17.712  0.00  0.00    +0.000 OA
ATOM     20  C   UNL     1      -2.553  10.704  18.384  0.00  0.00    +0.000 C 
ATOM     21  C   UNL     1      -2.576  12.220  18.574  0.00  0.00    +0.000 C 
ATOM     22  C   UNL     1      -1.316  12.679  19.319  0.00  0.00    +0.000 C 
ATOM     23  C   UNL     1      -0.017  12.074  18.761  0.00  0.00    +0.000 C 
BRANCH  21  24
ATOM     24  O   UNL     1      -3.724  12.598  19.344  0.00  0.00    +0.000 OA
ATOM     25  H   UNL     1      -3.925  13.522  19.093  0.00  0.00    +0.000 HD
ENDBRANCH  21  24
BRANCH  22  26
ATOM     26  O   UNL     1      -1.295  14.119  19.297  0.00  0.00    +0.000 OA
ATOM     27  H   UNL     1      -2.137  14.444  19.663  0.00  0.00    +0.000 HD
ENDBRANCH  22  26
BRANCH  23  28
ATOM     28  O   UNL     1       1.065  12.348  19.672  0.00  0.00    +0.000 OA
ATOM     29  H   UNL     1       1.538  13.143  19.372  0.00  0.00    +0.000 HD
ENDBRANCH  23  28
BRANCH  20  30
ATOM     30  C   UNL     1      -3.729  10.203  17.536  0.00  0.00    +0.000 C 
BRANCH  30  31
ATOM     31  O   UNL     1      -4.975  10.498  18.167  0.00  0.00    +0.000 OA
ATOM     32  H   UNL     1      -5.065   9.857  18.897  0.00  0.00    +0.000 HD
ENDBRANCH  30  31
ENDBRANCH  20  30
ENDBRANCH  17  18
ENDBRANCH   2  17
TORSDOF 11
ENDMDL
