MODEL 1
REMARK VINA RESULT:      -9.0      0.000      0.000
REMARK  Name = 
REMARK  8 active torsions:
REMARK  status: ('A' for Active; 'I' for Inactive)
REMARK    1  A    between atoms: C_1  and  O_2
REMARK    2  A    between atoms: O_2  and  C_3
REMARK    3  A    between atoms: C_7  and  C_8
REMARK    4  A    between atoms: N_10  and  C_11
REMARK    5  A    between atoms: C_11  and  C_12
REMARK    6  A    between atoms: C_12  and  C_13
REMARK    7  A    between atoms: C_12  and  N_22
REMARK    8  A    between atoms: N_25  and  C_26
REMARK                            x       y       z     vdW  Elec       q    Type
REMARK                         _______ _______ _______ _____ _____    ______ ____
ROOT
ATOM      1  C   UNL     1       3.124   6.308  17.859  0.00  0.00    +0.000 C 
ENDROOT
BRANCH   1   2
ATOM      2  C   UNL     1       2.516   7.566  18.488  0.00  0.00    +0.000 A 
ATOM      3  C   UNL     1       2.143   8.709  17.732  0.00  0.00    +0.000 A 
ATOM      4  C   UNL     1       1.328   9.704  18.290  0.00  0.00    +0.000 A 
ATOM      5  C   UNL     1       0.899   9.514  19.579  0.00  0.00    +0.000 A 
ATOM      6  C   UNL     1       1.374   8.476  20.357  0.00  0.00    +0.000 A 
ATOM      7  C   UNL     1       2.214   7.515  19.857  0.00  0.00    +0.000 A 
ATOM      8  O   UNL     1       0.773   8.427  21.580  0.00  0.00    +0.000 OA
ATOM      9  C   UNL     1      -0.368   9.249  21.280  0.00  0.00    +0.000 C 
ATOM     10  O   UNL     1      -0.093  10.196  20.224  0.00  0.00    +0.000 OA
ENDBRANCH   1   2
BRANCH   1  11
ATOM     11  N   UNL     1       2.701   5.093  18.596  0.00  0.00    +0.000 NA
ATOM     12  C   UNL     1       3.787   4.420  19.324  0.00  0.00    +0.000 C 
ATOM     13  C   UNL     1       3.328   3.140  20.071  0.00  0.00    +0.000 C 
ATOM     14  N   UNL     1       2.587   2.163  19.250  0.00  0.00    +0.000 NA
ATOM     15  C   UNL     1       3.468   1.457  18.322  0.00  0.00    +0.000 C 
ATOM     16  C   UNL     1       1.500   2.870  18.545  0.00  0.00    +0.000 C 
ATOM     17  C   UNL     1       1.950   4.133  17.766  0.00  0.00    +0.000 C 
ENDBRANCH   1  11
BRANCH   1  18
ATOM     18  C   UNL     1       4.641   6.492  17.492  0.00  0.00    +0.000 C 
BRANCH  18  21
ATOM     19  C   UNL     1       6.045   5.171  15.894  0.00  0.00    +0.000 C 
ATOM     20  O   UNL     1       6.741   4.758  16.817  0.00  0.00    +0.000 OA
ATOM     21  N   UNL     1       4.999   6.056  16.125  0.00  0.00    +0.000 N 
ATOM     22  H   UNL     1       4.392   6.335  15.371  0.00  0.00    +0.000 HD
BRANCH  19  27
ATOM     23  C   UNL     1       5.954   3.398  12.476  0.00  0.00    +0.000 A 
ATOM     24  C   UNL     1       7.053   3.993  11.849  0.00  0.00    +0.000 A 
ATOM     25  C   UNL     1       7.791   4.958  12.527  0.00  0.00    +0.000 A 
ATOM     26  C   UNL     1       7.439   5.312  13.838  0.00  0.00    +0.000 A 
ATOM     27  C   UNL     1       6.342   4.715  14.483  0.00  0.00    +0.000 A 
ATOM     28  C   UNL     1       5.607   3.740  13.788  0.00  0.00    +0.000 A 
BRANCH  23  30
ATOM     29  C   UNL     1       6.151   1.389  11.243  0.00  0.00    +0.000 C 
ATOM     30  O   UNL     1       5.323   2.446  11.712  0.00  0.00    +0.000 OA
ENDBRANCH  23  30
ENDBRANCH  19  27
ENDBRANCH  18  21
ENDBRANCH   1  18
TORSDOF 6
ENDMDL
MODEL 2
REMARK VINA RESULT:      -8.5      3.220      7.641
REMARK  Name = 
REMARK  8 active torsions:
REMARK  status: ('A' for Active; 'I' for Inactive)
REMARK    1  A    between atoms: C_1  and  O_2
REMARK    2  A    between atoms: O_2  and  C_3
REMARK    3  A    between atoms: C_7  and  C_8
REMARK    4  A    between atoms: N_10  and  C_11
REMARK    5  A    between atoms: C_11  and  C_12
REMARK    6  A    between atoms: C_12  and  C_13
REMARK    7  A    between atoms: C_12  and  N_22
REMARK    8  A    between atoms: N_25  and  C_26
REMARK                            x       y       z     vdW  Elec       q    Type
REMARK                         _______ _______ _______ _____ _____    ______ ____
ROOT
ATOM      1  C   UNL     1       3.383   6.321  17.439  0.00  0.00    +0.000 C 
ENDROOT
BRANCH   1   2
ATOM      2  C   UNL     1       2.463   5.436  18.285  0.00  0.00    +0.000 A 
ATOM      3  C   UNL     1       1.562   4.492  17.724  0.00  0.00    +0.000 A 
ATOM      4  C   UNL     1       0.965   3.506  18.522  0.00  0.00    +0.000 A 
ATOM      5  C   UNL     1       1.302   3.486  19.851  0.00  0.00    +0.000 A 
ATOM      6  C   UNL     1       2.065   4.486  20.422  0.00  0.00    +0.000 A 
ATOM      7  C   UNL     1       2.621   5.494  19.678  0.00  0.00    +0.000 A 
ATOM      8  O   UNL     1       2.340   4.244  21.735  0.00  0.00    +0.000 OA
ATOM      9  C   UNL     1       2.035   2.839  21.752  0.00  0.00    +0.000 C 
ATOM     10  O   UNL     1       1.062   2.482  20.745  0.00  0.00    +0.000 OA
ENDBRANCH   1   2
BRANCH   1  11
ATOM     11  N   UNL     1       4.739   5.730  17.339  0.00  0.00    +0.000 NA
ATOM     12  C   UNL     1       5.774   6.668  16.881  0.00  0.00    +0.000 C 
ATOM     13  C   UNL     1       7.181   6.025  16.764  0.00  0.00    +0.000 C 
ATOM     14  N   UNL     1       7.240   4.779  15.975  0.00  0.00    +0.000 NA
ATOM     15  C   UNL     1       7.102   5.039  14.544  0.00  0.00    +0.000 C 
ATOM     16  C   UNL     1       6.198   3.859  16.469  0.00  0.00    +0.000 C 
ATOM     17  C   UNL     1       4.779   4.480  16.560  0.00  0.00    +0.000 C 
ENDBRANCH   1  11
BRANCH   1  18
ATOM     18  C   UNL     1       3.237   7.847  17.788  0.00  0.00    +0.000 C 
BRANCH  18  21
ATOM     19  C   UNL     1       1.530   9.662  18.040  0.00  0.00    +0.000 C 
ATOM     20  O   UNL     1       2.414  10.515  18.070  0.00  0.00    +0.000 OA
ATOM     21  N   UNL     1       1.840   8.312  17.931  0.00  0.00    +0.000 N 
ATOM     22  H   UNL     1       1.107   7.628  17.838  0.00  0.00    +0.000 HD
BRANCH  19  27
ATOM     23  C   UNL     1      -2.251  10.102  17.456  0.00  0.00    +0.000 A 
ATOM     24  C   UNL     1      -2.562  11.016  18.467  0.00  0.00    +0.000 A 
ATOM     25  C   UNL     1      -1.560  11.462  19.323  0.00  0.00    +0.000 A 
ATOM     26  C   UNL     1      -0.244  11.005  19.153  0.00  0.00    +0.000 A 
ATOM     27  C   UNL     1       0.084  10.094  18.134  0.00  0.00    +0.000 A 
ATOM     28  C   UNL     1      -0.937   9.655  17.275  0.00  0.00    +0.000 A 
BRANCH  23  30
ATOM     29  C   UNL     1      -3.888  10.818  15.906  0.00  0.00    +0.000 C 
ATOM     30  O   UNL     1      -3.321   9.758  16.665  0.00  0.00    +0.000 OA
ENDBRANCH  23  30
ENDBRANCH  19  27
ENDBRANCH  18  21
ENDBRANCH   1  18
TORSDOF 6
ENDMDL
MODEL 3
REMARK VINA RESULT:      -8.5      2.071      8.842
REMARK  Name = 
REMARK  8 active torsions:
REMARK  status: ('A' for Active; 'I' for Inactive)
REMARK    1  A    between atoms: C_1  and  O_2
REMARK    2  A    between atoms: O_2  and  C_3
REMARK    3  A    between atoms: C_7  and  C_8
REMARK    4  A    between atoms: N_10  and  C_11
REMARK    5  A    between atoms: C_11  and  C_12
REMARK    6  A    between atoms: C_12  and  C_13
REMARK    7  A    between atoms: C_12  and  N_22
REMARK    8  A    between atoms: N_25  and  C_26
REMARK                            x       y       z     vdW  Elec       q    Type
REMARK                         _______ _______ _______ _____ _____    ______ ____
ROOT
ATOM      1  C   UNL     1       3.372   6.114  19.108  0.00  0.00    +0.000 C 
ENDROOT
BRANCH   1   2
ATOM      2  C   UNL     1       4.710   5.976  18.374  0.00  0.00    +0.000 A 
ATOM      3  C   UNL     1       5.863   5.392  18.963  0.00  0.00    +0.000 A 
ATOM      4  C   UNL     1       6.960   5.017  18.175  0.00  0.00    +0.000 A 
ATOM      5  C   UNL     1       6.860   5.222  16.822  0.00  0.00    +0.000 A 
ATOM      6  C   UNL     1       5.801   5.915  16.269  0.00  0.00    +0.000 A 
ATOM      7  C   UNL     1       4.738   6.343  17.020  0.00  0.00    +0.000 A 
ATOM      8  O   UNL     1       5.859   5.951  14.908  0.00  0.00    +0.000 OA
ATOM      9  C   UNL     1       6.793   4.875  14.714  0.00  0.00    +0.000 C 
ATOM     10  O   UNL     1       7.669   4.705  15.851  0.00  0.00    +0.000 OA
ENDBRANCH   1   2
BRANCH   1  11
ATOM     11  N   UNL     1       2.646   4.822  19.129  0.00  0.00    +0.000 NA
ATOM     12  C   UNL     1       3.046   3.922  20.221  0.00  0.00    +0.000 C 
ATOM     13  C   UNL     1       2.289   2.568  20.213  0.00  0.00    +0.000 C 
ATOM     14  N   UNL     1       2.307   1.844  18.927  0.00  0.00    +0.000 NA
ATOM     15  C   UNL     1       3.617   1.256  18.656  0.00  0.00    +0.000 C 
ATOM     16  C   UNL     1       1.889   2.772  17.859  0.00  0.00    +0.000 C 
ATOM     17  C   UNL     1       2.661   4.118  17.834  0.00  0.00    +0.000 C 
ENDBRANCH   1  11
BRANCH   1  18
ATOM     18  C   UNL     1       2.598   7.422  18.708  0.00  0.00    +0.000 C 
BRANCH  18  21
ATOM     19  C   UNL     1       1.081   9.194  19.618  0.00  0.00    +0.000 C 
ATOM     20  O   UNL     1       0.987   9.711  18.508  0.00  0.00    +0.000 OA
ATOM     21  N   UNL     1       1.879   8.075  19.823  0.00  0.00    +0.000 N 
ATOM     22  H   UNL     1       1.896   7.619  20.721  0.00  0.00    +0.000 HD
BRANCH  19  27
ATOM     23  C   UNL     1      -1.105  11.451  21.846  0.00  0.00    +0.000 A 
ATOM     24  C   UNL     1      -1.019  10.770  23.064  0.00  0.00    +0.000 A 
ATOM     25  C   UNL     1      -0.276   9.597  23.144  0.00  0.00    +0.000 A 
ATOM     26  C   UNL     1       0.395   9.117  22.008  0.00  0.00    +0.000 A 
ATOM     27  C   UNL     1       0.325   9.798  20.780  0.00  0.00    +0.000 A 
ATOM     28  C   UNL     1      -0.426  10.983  20.715  0.00  0.00    +0.000 A 
BRANCH  23  30
ATOM     29  C   UNL     1      -3.089  12.503  22.587  0.00  0.00    +0.000 C 
ATOM     30  O   UNL     1      -1.847  12.607  21.902  0.00  0.00    +0.000 OA
ENDBRANCH  23  30
ENDBRANCH  19  27
ENDBRANCH  18  21
ENDBRANCH   1  18
TORSDOF 6
ENDMDL
MODEL 4
REMARK VINA RESULT:      -8.4      2.150      8.322
REMARK  Name = 
REMARK  8 active torsions:
REMARK  status: ('A' for Active; 'I' for Inactive)
REMARK    1  A    between atoms: C_1  and  O_2
REMARK    2  A    between atoms: O_2  and  C_3
REMARK    3  A    between atoms: C_7  and  C_8
REMARK    4  A    between atoms: N_10  and  C_11
REMARK    5  A    between atoms: C_11  and  C_12
REMARK    6  A    between atoms: C_12  and  C_13
REMARK    7  A    between atoms: C_12  and  N_22
REMARK    8  A    between atoms: N_25  and  C_26
REMARK                            x       y       z     vdW  Elec       q    Type
REMARK                         _______ _______ _______ _____ _____    ______ ____
ROOT
ATOM      1  C   UNL     1       3.627   6.076  19.093  0.00  0.00    +0.000 C 
ENDROOT
BRANCH   1   2
ATOM      2  C   UNL     1       4.943   5.951  18.319  0.00  0.00    +0.000 A 
ATOM      3  C   UNL     1       6.136   5.437  18.893  0.00  0.00    +0.000 A 
ATOM      4  C   UNL     1       7.220   5.065  18.085  0.00  0.00    +0.000 A 
ATOM      5  C   UNL     1       7.068   5.203  16.729  0.00  0.00    +0.000 A 
ATOM      6  C   UNL     1       5.966   5.832  16.182  0.00  0.00    +0.000 A 
ATOM      7  C   UNL     1       4.913   6.256  16.950  0.00  0.00    +0.000 A 
ATOM      8  O   UNL     1       5.977   5.807  14.819  0.00  0.00    +0.000 OA
ATOM      9  C   UNL     1       6.944   4.757  14.642  0.00  0.00    +0.000 C 
ATOM     10  O   UNL     1       7.862   4.672  15.754  0.00  0.00    +0.000 OA
ENDBRANCH   1   2
BRANCH   1  11
ATOM     11  N   UNL     1       3.250   4.779  19.704  0.00  0.00    +0.000 NA
ATOM     12  C   UNL     1       3.410   3.622  18.810  0.00  0.00    +0.000 C 
ATOM     13  C   UNL     1       2.990   2.277  19.461  0.00  0.00    +0.000 C 
ATOM     14  N   UNL     1       1.648   2.265  20.072  0.00  0.00    +0.000 NA
ATOM     15  C   UNL     1       0.594   2.247  19.060  0.00  0.00    +0.000 C 
ATOM     16  C   UNL     1       1.527   3.430  20.969  0.00  0.00    +0.000 C 
ATOM     17  C   UNL     1       1.911   4.786  20.321  0.00  0.00    +0.000 C 
ENDBRANCH   1  11
BRANCH   1  18
ATOM     18  C   UNL     1       2.542   6.896  18.306  0.00  0.00    +0.000 C 
BRANCH  18  21
ATOM     19  C   UNL     1       1.704   9.249  18.494  0.00  0.00    +0.000 C 
ATOM     20  O   UNL     1       2.038   9.481  17.335  0.00  0.00    +0.000 OA
ATOM     21  N   UNL     1       1.938   8.007  19.073  0.00  0.00    +0.000 N 
ATOM     22  H   UNL     1       1.599   7.806  20.000  0.00  0.00    +0.000 HD
BRANCH  19  27
ATOM     23  C   UNL     1      -0.320  11.198  21.128  0.00  0.00    +0.000 A 
ATOM     24  C   UNL     1      -0.125  12.508  20.683  0.00  0.00    +0.000 A 
ATOM     25  C   UNL     1       0.660  12.743  19.558  0.00  0.00    +0.000 A 
ATOM     26  C   UNL     1       1.234  11.662  18.871  0.00  0.00    +0.000 A 
ATOM     27  C   UNL     1       1.038  10.339  19.302  0.00  0.00    +0.000 A 
ATOM     28  C   UNL     1       0.240  10.117  20.437  0.00  0.00    +0.000 A 
BRANCH  23  30
ATOM     29  C   UNL     1      -0.729  10.139  23.203  0.00  0.00    +0.000 C 
ATOM     30  O   UNL     1      -1.132  11.097  22.232  0.00  0.00    +0.000 OA
ENDBRANCH  23  30
ENDBRANCH  19  27
ENDBRANCH  18  21
ENDBRANCH   1  18
TORSDOF 6
ENDMDL
MODEL 5
REMARK VINA RESULT:      -8.4      3.683      7.593
REMARK  Name = 
REMARK  8 active torsions:
REMARK  status: ('A' for Active; 'I' for Inactive)
REMARK    1  A    between atoms: C_1  and  O_2
REMARK    2  A    between atoms: O_2  and  C_3
REMARK    3  A    between atoms: C_7  and  C_8
REMARK    4  A    between atoms: N_10  and  C_11
REMARK    5  A    between atoms: C_11  and  C_12
REMARK    6  A    between atoms: C_12  and  C_13
REMARK    7  A    between atoms: C_12  and  N_22
REMARK    8  A    between atoms: N_25  and  C_26
REMARK                            x       y       z     vdW  Elec       q    Type
REMARK                         _______ _______ _______ _____ _____    ______ ____
ROOT
ATOM      1  C   UNL     1       3.270   6.518  17.527  0.00  0.00    +0.000 C 
ENDROOT
BRANCH   1   2
ATOM      2  C   UNL     1       2.419   5.494  18.285  0.00  0.00    +0.000 A 
ATOM      3  C   UNL     1       1.729   4.431  17.644  0.00  0.00    +0.000 A 
ATOM      4  C   UNL     1       1.216   3.357  18.385  0.00  0.00    +0.000 A 
ATOM      5  C   UNL     1       1.426   3.373  19.740  0.00  0.00    +0.000 A 
ATOM      6  C   UNL     1       1.972   4.470  20.377  0.00  0.00    +0.000 A 
ATOM      7  C   UNL     1       2.435   5.559  19.686  0.00  0.00    +0.000 A 
ATOM      8  O   UNL     1       2.155   4.257  21.711  0.00  0.00    +0.000 OA
ATOM      9  C   UNL     1       2.066   2.822  21.703  0.00  0.00    +0.000 C 
ATOM     10  O   UNL     1       1.258   2.334  20.610  0.00  0.00    +0.000 OA
ENDBRANCH   1   2
BRANCH   1  11
ATOM     11  N   UNL     1       4.624   5.979  17.252  0.00  0.00    +0.000 NA
ATOM     12  C   UNL     1       5.027   4.878  18.140  0.00  0.00    +0.000 C 
ATOM     13  C   UNL     1       6.454   4.343  17.849  0.00  0.00    +0.000 C 
ATOM     14  N   UNL     1       7.513   5.368  17.798  0.00  0.00    +0.000 NA
ATOM     15  C   UNL     1       7.840   5.874  19.130  0.00  0.00    +0.000 C 
ATOM     16  C   UNL     1       7.081   6.448  16.892  0.00  0.00    +0.000 C 
ATOM     17  C   UNL     1       5.669   7.017  17.192  0.00  0.00    +0.000 C 
ENDBRANCH   1  11
BRANCH   1  18
ATOM     18  C   UNL     1       3.128   7.969  18.113  0.00  0.00    +0.000 C 
BRANCH  18  21
ATOM     19  C   UNL     1       1.105   9.330  18.687  0.00  0.00    +0.000 C 
ATOM     20  O   UNL     1       1.416   9.328  19.875  0.00  0.00    +0.000 OA
ATOM     21  N   UNL     1       1.874   8.661  17.743  0.00  0.00    +0.000 N 
ATOM     22  H   UNL     1       1.647   8.725  16.763  0.00  0.00    +0.000 HD
BRANCH  19  27
ATOM     23  C   UNL     1      -2.242  10.300  17.047  0.00  0.00    +0.000 A 
ATOM     24  C   UNL     1      -2.411  11.592  17.554  0.00  0.00    +0.000 A 
ATOM     25  C   UNL     1      -1.459  12.120  18.419  0.00  0.00    +0.000 A 
ATOM     26  C   UNL     1      -0.330  11.361  18.762  0.00  0.00    +0.000 A 
ATOM     27  C   UNL     1      -0.143  10.064  18.252  0.00  0.00    +0.000 A 
ATOM     28  C   UNL     1      -1.111   9.545  17.376  0.00  0.00    +0.000 A 
BRANCH  23  30
ATOM     29  C   UNL     1      -3.188  10.478  14.887  0.00  0.00    +0.000 C 
ATOM     30  O   UNL     1      -3.237   9.903  16.186  0.00  0.00    +0.000 OA
ENDBRANCH  23  30
ENDBRANCH  19  27
ENDBRANCH  18  21
ENDBRANCH   1  18
TORSDOF 6
ENDMDL
MODEL 6
REMARK VINA RESULT:      -8.4      2.028      8.785
REMARK  Name = 
REMARK  8 active torsions:
REMARK  status: ('A' for Active; 'I' for Inactive)
REMARK    1  A    between atoms: C_1  and  O_2
REMARK    2  A    between atoms: O_2  and  C_3
REMARK    3  A    between atoms: C_7  and  C_8
REMARK    4  A    between atoms: N_10  and  C_11
REMARK    5  A    between atoms: C_11  and  C_12
REMARK    6  A    between atoms: C_12  and  C_13
REMARK    7  A    between atoms: C_12  and  N_22
REMARK    8  A    between atoms: N_25  and  C_26
REMARK                            x       y       z     vdW  Elec       q    Type
REMARK                         _______ _______ _______ _____ _____    ______ ____
ROOT
ATOM      1  C   UNL     1       3.551   5.999  18.871  0.00  0.00    +0.000 C 
ENDROOT
BRANCH   1   2
ATOM      2  C   UNL     1       4.842   5.960  18.047  0.00  0.00    +0.000 A 
ATOM      3  C   UNL     1       6.104   5.606  18.596  0.00  0.00    +0.000 A 
ATOM      4  C   UNL     1       7.188   5.297  17.763  0.00  0.00    +0.000 A 
ATOM      5  C   UNL     1       6.970   5.334  16.409  0.00  0.00    +0.000 A 
ATOM      6  C   UNL     1       5.788   5.813  15.877  0.00  0.00    +0.000 A 
ATOM      7  C   UNL     1       4.727   6.174  16.666  0.00  0.00    +0.000 A 
ATOM      8  O   UNL     1       5.749   5.704  14.519  0.00  0.00    +0.000 OA
ATOM      9  C   UNL     1       6.812   4.749  14.359  0.00  0.00    +0.000 C 
ATOM     10  O   UNL     1       7.777   4.826  15.432  0.00  0.00    +0.000 OA
ENDBRANCH   1   2
BRANCH   1  11
ATOM     11  N   UNL     1       2.952   4.646  18.975  0.00  0.00    +0.000 NA
ATOM     12  C   UNL     1       1.516   4.646  19.292  0.00  0.00    +0.000 C 
ATOM     13  C   UNL     1       0.913   3.221  19.418  0.00  0.00    +0.000 C 
ATOM     14  N   UNL     1       1.634   2.310  20.327  0.00  0.00    +0.000 NA
ATOM     15  C   UNL     1       1.416   2.661  21.728  0.00  0.00    +0.000 C 
ATOM     16  C   UNL     1       3.066   2.327  19.973  0.00  0.00    +0.000 C 
ATOM     17  C   UNL     1       3.690   3.744  19.877  0.00  0.00    +0.000 C 
ENDBRANCH   1  11
BRANCH   1  18
ATOM     18  C   UNL     1       2.632   7.216  18.494  0.00  0.00    +0.000 C 
BRANCH  18  21
ATOM     19  C   UNL     1       1.201   9.013  19.491  0.00  0.00    +0.000 C 
ATOM     20  O   UNL     1       1.075   9.549  18.393  0.00  0.00    +0.000 OA
ATOM     21  N   UNL     1       1.977   7.871  19.646  0.00  0.00    +0.000 N 
ATOM     22  H   UNL     1       2.019   7.401  20.537  0.00  0.00    +0.000 HD
BRANCH  19  27
ATOM     23  C   UNL     1      -0.816  11.301  21.842  0.00  0.00    +0.000 A 
ATOM     24  C   UNL     1      -0.716  10.589  23.041  0.00  0.00    +0.000 A 
ATOM     25  C   UNL     1      -0.017   9.387  23.070  0.00  0.00    +0.000 A 
ATOM     26  C   UNL     1       0.595   8.908  21.901  0.00  0.00    +0.000 A 
ATOM     27  C   UNL     1       0.510   9.618  20.691  0.00  0.00    +0.000 A 
ATOM     28  C   UNL     1      -0.196  10.833  20.678  0.00  0.00    +0.000 A 
BRANCH  23  30
ATOM     29  C   UNL     1      -2.599  12.637  21.048  0.00  0.00    +0.000 C 
ATOM     30  O   UNL     1      -1.511  12.482  21.950  0.00  0.00    +0.000 OA
ENDBRANCH  23  30
ENDBRANCH  19  27
ENDBRANCH  18  21
ENDBRANCH   1  18
TORSDOF 6
ENDMDL
MODEL 7
REMARK VINA RESULT:      -8.3      3.206      7.980
REMARK  Name = 
REMARK  8 active torsions:
REMARK  status: ('A' for Active; 'I' for Inactive)
REMARK    1  A    between atoms: C_1  and  O_2
REMARK    2  A    between atoms: O_2  and  C_3
REMARK    3  A    between atoms: C_7  and  C_8
REMARK    4  A    between atoms: N_10  and  C_11
REMARK    5  A    between atoms: C_11  and  C_12
REMARK    6  A    between atoms: C_12  and  C_13
REMARK    7  A    between atoms: C_12  and  N_22
REMARK    8  A    between atoms: N_25  and  C_26
REMARK                            x       y       z     vdW  Elec       q    Type
REMARK                         _______ _______ _______ _____ _____    ______ ____
ROOT
ATOM      1  C   UNL     1       3.383   6.365  17.508  0.00  0.00    +0.000 C 
ENDROOT
BRANCH   1   2
ATOM      2  C   UNL     1       2.477   5.447  18.335  0.00  0.00    +0.000 A 
ATOM      3  C   UNL     1       1.589   4.503  17.753  0.00  0.00    +0.000 A 
ATOM      4  C   UNL     1       1.007   3.492  18.530  0.00  0.00    +0.000 A 
ATOM      5  C   UNL     1       1.347   3.446  19.858  0.00  0.00    +0.000 A 
ATOM      6  C   UNL     1       2.096   4.444  20.450  0.00  0.00    +0.000 A 
ATOM      7  C   UNL     1       2.636   5.476  19.728  0.00  0.00    +0.000 A 
ATOM      8  O   UNL     1       2.376   4.176  21.757  0.00  0.00    +0.000 OA
ATOM      9  C   UNL     1       2.091   2.766  21.742  0.00  0.00    +0.000 C 
ATOM     10  O   UNL     1       1.122   2.419  20.729  0.00  0.00    +0.000 OA
ENDBRANCH   1   2
BRANCH   1  11
ATOM     11  N   UNL     1       4.743   5.787  17.380  0.00  0.00    +0.000 NA
ATOM     12  C   UNL     1       5.756   6.734  16.890  0.00  0.00    +0.000 C 
ATOM     13  C   UNL     1       7.167   6.104  16.743  0.00  0.00    +0.000 C 
ATOM     14  N   UNL     1       7.221   4.855  15.961  0.00  0.00    +0.000 NA
ATOM     15  C   UNL     1       7.045   5.103  14.532  0.00  0.00    +0.000 C 
ATOM     16  C   UNL     1       6.201   3.927  16.486  0.00  0.00    +0.000 C 
ATOM     17  C   UNL     1       4.778   4.533  16.607  0.00  0.00    +0.000 C 
ENDBRANCH   1  11
BRANCH   1  18
ATOM     18  C   UNL     1       3.228   7.878  17.904  0.00  0.00    +0.000 C 
BRANCH  18  21
ATOM     19  C   UNL     1       1.501   9.683  18.069  0.00  0.00    +0.000 C 
ATOM     20  O   UNL     1       2.370  10.548  18.009  0.00  0.00    +0.000 OA
ATOM     21  N   UNL     1       1.829   8.333  18.053  0.00  0.00    +0.000 N 
ATOM     22  H   UNL     1       1.105   7.633  18.034  0.00  0.00    +0.000 HD
BRANCH  19  27
ATOM     23  C   UNL     1      -1.817  11.316  19.146  0.00  0.00    +0.000 A 
ATOM     24  C   UNL     1      -2.693  10.758  18.211  0.00  0.00    +0.000 A 
ATOM     25  C   UNL     1      -2.203   9.883  17.247  0.00  0.00    +0.000 A 
ATOM     26  C   UNL     1      -0.839   9.554  17.233  0.00  0.00    +0.000 A 
ATOM     27  C   UNL     1       0.051  10.100  18.174  0.00  0.00    +0.000 A 
ATOM     28  C   UNL     1      -0.459  10.980  19.144  0.00  0.00    +0.000 A 
BRANCH  23  30
ATOM     29  C   UNL     1      -1.638  12.498  21.186  0.00  0.00    +0.000 C 
ATOM     30  O   UNL     1      -2.427  12.145  20.057  0.00  0.00    +0.000 OA
ENDBRANCH  23  30
ENDBRANCH  19  27
ENDBRANCH  18  21
ENDBRANCH   1  18
TORSDOF 6
ENDMDL
MODEL 8
REMARK VINA RESULT:      -8.3      2.241      8.418
REMARK  Name = 
REMARK  8 active torsions:
REMARK  status: ('A' for Active; 'I' for Inactive)
REMARK    1  A    between atoms: C_1  and  O_2
REMARK    2  A    between atoms: O_2  and  C_3
REMARK    3  A    between atoms: C_7  and  C_8
REMARK    4  A    between atoms: N_10  and  C_11
REMARK    5  A    between atoms: C_11  and  C_12
REMARK    6  A    between atoms: C_12  and  C_13
REMARK    7  A    between atoms: C_12  and  N_22
REMARK    8  A    between atoms: N_25  and  C_26
REMARK                            x       y       z     vdW  Elec       q    Type
REMARK                         _______ _______ _______ _____ _____    ______ ____
ROOT
ATOM      1  C   UNL     1       3.666   6.030  19.123  0.00  0.00    +0.000 C 
ENDROOT
BRANCH   1   2
ATOM      2  C   UNL     1       4.978   5.877  18.348  0.00  0.00    +0.000 A 
ATOM      3  C   UNL     1       6.150   5.305  18.910  0.00  0.00    +0.000 A 
ATOM      4  C   UNL     1       7.221   4.914  18.094  0.00  0.00    +0.000 A 
ATOM      5  C   UNL     1       7.077   5.093  16.741  0.00  0.00    +0.000 A 
ATOM      6  C   UNL     1       6.001   5.776  16.210  0.00  0.00    +0.000 A 
ATOM      7  C   UNL     1       4.962   6.218  16.987  0.00  0.00    +0.000 A 
ATOM      8  O   UNL     1       6.014   5.785  14.847  0.00  0.00    +0.000 OA
ATOM      9  C   UNL     1       6.941   4.705  14.644  0.00  0.00    +0.000 C 
ATOM     10  O   UNL     1       7.853   4.557  15.754  0.00  0.00    +0.000 OA
ENDBRANCH   1   2
BRANCH   1  11
ATOM     11  N   UNL     1       3.246   4.736  19.711  0.00  0.00    +0.000 NA
ATOM     12  C   UNL     1       3.447   3.578  18.826  0.00  0.00    +0.000 C 
ATOM     13  C   UNL     1       2.983   2.236  19.452  0.00  0.00    +0.000 C 
ATOM     14  N   UNL     1       1.609   2.233  19.987  0.00  0.00    +0.000 NA
ATOM     15  C   UNL     1       0.612   2.223  18.919  0.00  0.00    +0.000 C 
ATOM     16  C   UNL     1       1.447   3.398  20.878  0.00  0.00    +0.000 C 
ATOM     17  C   UNL     1       1.876   4.752  20.253  0.00  0.00    +0.000 C 
ENDBRANCH   1  11
BRANCH   1  18
ATOM     18  C   UNL     1       2.608   6.899  18.350  0.00  0.00    +0.000 C 
BRANCH  18  21
ATOM     19  C   UNL     1       1.544   9.149  18.633  0.00  0.00    +0.000 C 
ATOM     20  O   UNL     1       1.776   9.427  17.460  0.00  0.00    +0.000 OA
ATOM     21  N   UNL     1       1.943   7.932  19.173  0.00  0.00    +0.000 N 
ATOM     22  H   UNL     1       1.688   7.686  20.116  0.00  0.00    +0.000 HD
BRANCH  19  27
ATOM     23  C   UNL     1      -0.404  12.211  19.920  0.00  0.00    +0.000 A 
ATOM     24  C   UNL     1      -0.484  11.910  21.283  0.00  0.00    +0.000 A 
ATOM     25  C   UNL     1       0.073  10.727  21.759  0.00  0.00    +0.000 A 
ATOM     26  C   UNL     1       0.726   9.858  20.872  0.00  0.00    +0.000 A 
ATOM     27  C   UNL     1       0.823  10.154  19.502  0.00  0.00    +0.000 A 
ATOM     28  C   UNL     1       0.259  11.353  19.035  0.00  0.00    +0.000 A 
BRANCH  23  30
ATOM     29  C   UNL     1      -0.054  14.468  19.304  0.00  0.00    +0.000 C 
ATOM     30  O   UNL     1      -0.971  13.416  19.580  0.00  0.00    +0.000 OA
ENDBRANCH  23  30
ENDBRANCH  19  27
ENDBRANCH  18  21
ENDBRANCH   1  18
TORSDOF 6
ENDMDL
MODEL 9
REMARK VINA RESULT:      -8.2      3.303      8.480
REMARK  Name = 
REMARK  8 active torsions:
REMARK  status: ('A' for Active; 'I' for Inactive)
REMARK    1  A    between atoms: C_1  and  O_2
REMARK    2  A    between atoms: O_2  and  C_3
REMARK    3  A    between atoms: C_7  and  C_8
REMARK    4  A    between atoms: N_10  and  C_11
REMARK    5  A    between atoms: C_11  and  C_12
REMARK    6  A    between atoms: C_12  and  C_13
REMARK    7  A    between atoms: C_12  and  N_22
REMARK    8  A    between atoms: N_25  and  C_26
REMARK                            x       y       z     vdW  Elec       q    Type
REMARK                         _______ _______ _______ _____ _____    ______ ____
ROOT
ATOM      1  C   UNL     1       3.201   6.486  17.649  0.00  0.00    +0.000 C 
ENDROOT
BRANCH   1   2
ATOM      2  C   UNL     1       2.361   5.474  18.434  0.00  0.00    +0.000 A 
ATOM      3  C   UNL     1       1.552   4.486  17.812  0.00  0.00    +0.000 A 
ATOM      4  C   UNL     1       1.043   3.407  18.548  0.00  0.00    +0.000 A 
ATOM      5  C   UNL     1       1.374   3.342  19.877  0.00  0.00    +0.000 A 
ATOM      6  C   UNL     1       2.040   4.373  20.511  0.00  0.00    +0.000 A 
ATOM      7  C   UNL     1       2.505   5.468  19.830  0.00  0.00    +0.000 A 
ATOM      8  O   UNL     1       2.328   4.083  21.811  0.00  0.00    +0.000 OA
ATOM      9  C   UNL     1       2.152   2.657  21.746  0.00  0.00    +0.000 C 
ATOM     10  O   UNL     1       1.221   2.272  20.711  0.00  0.00    +0.000 OA
ENDBRANCH   1   2
BRANCH   1  11
ATOM     11  N   UNL     1       4.649   6.246  17.861  0.00  0.00    +0.000 NA
ATOM     12  C   UNL     1       5.526   7.047  16.993  0.00  0.00    +0.000 C 
ATOM     13  C   UNL     1       7.036   6.766  17.216  0.00  0.00    +0.000 C 
ATOM     14  N   UNL     1       7.427   5.345  17.160  0.00  0.00    +0.000 NA
ATOM     15  C   UNL     1       7.406   4.831  15.793  0.00  0.00    +0.000 C 
ATOM     16  C   UNL     1       6.536   4.576  18.050  0.00  0.00    +0.000 C 
ATOM     17  C   UNL     1       5.022   4.821  17.816  0.00  0.00    +0.000 C 
ENDBRANCH   1  11
BRANCH   1  18
ATOM     18  C   UNL     1       2.642   7.950  17.763  0.00  0.00    +0.000 C 
BRANCH  18  21
ATOM     19  C   UNL     1       1.411   9.498  19.299  0.00  0.00    +0.000 C 
ATOM     20  O   UNL     1       1.526  10.419  18.495  0.00  0.00    +0.000 OA
ATOM     21  N   UNL     1       1.955   8.246  19.039  0.00  0.00    +0.000 N 
ATOM     22  H   UNL     1       1.796   7.481  19.674  0.00  0.00    +0.000 HD
BRANCH  19  27
ATOM     23  C   UNL     1      -0.287  11.126  22.349  0.00  0.00    +0.000 A 
ATOM     24  C   UNL     1      -0.719   9.990  23.039  0.00  0.00    +0.000 A 
ATOM     25  C   UNL     1      -0.471   8.728  22.508  0.00  0.00    +0.000 A 
ATOM     26  C   UNL     1       0.225   8.606  21.296  0.00  0.00    +0.000 A 
ATOM     27  C   UNL     1       0.674   9.740  20.597  0.00  0.00    +0.000 A 
ATOM     28  C   UNL     1       0.420  11.008  21.147  0.00  0.00    +0.000 A 
BRANCH  23  30
ATOM     29  C   UNL     1      -0.837  13.416  22.136  0.00  0.00    +0.000 C 
ATOM     30  O   UNL     1      -0.571  12.309  22.988  0.00  0.00    +0.000 OA
ENDBRANCH  23  30
ENDBRANCH  19  27
ENDBRANCH  18  21
ENDBRANCH   1  18
TORSDOF 6
ENDMDL
