MODEL 1
REMARK VINA RESULT:      -7.6      0.000      0.000
REMARK  Name = 
REMARK  6 active torsions:
REMARK  status: ('A' for Active; 'I' for Inactive)
REMARK    1  A    between atoms: C_2  and  C_3
REMARK    2  A    between atoms: C_4  and  C_5
REMARK    3  A    between atoms: C_9  and  N_10
REMARK    4  A    between atoms: N_10  and  S_11
REMARK    5  A    between atoms: S_11  and  C_14
REMARK    6  A    between atoms: N_21  and  O_22
REMARK                            x       y       z     vdW  Elec       q    Type
REMARK                         _______ _______ _______ _____ _____    ______ ____
ROOT
ATOM      1  C   UNL     1       3.812   6.654  17.752  0.00  0.00    +0.000 A 
ATOM      2  C   UNL     1       3.067   7.836  17.663  0.00  0.00    +0.000 A 
ATOM      3  C   UNL     1       2.191   8.194  18.688  0.00  0.00    +0.000 A 
ATOM      4  C   UNL     1       2.046   7.368  19.803  0.00  0.00    +0.000 A 
ATOM      5  C   UNL     1       2.811   6.207  19.911  0.00  0.00    +0.000 A 
ATOM      6  C   UNL     1       3.695   5.849  18.892  0.00  0.00    +0.000 A 
ENDROOT
BRANCH   1   8
ATOM      7  C   UNL     1       5.328   5.084  16.641  0.00  0.00    +0.000 C 
ATOM      8  C   UNL     1       4.693   6.266  16.652  0.00  0.00    +0.000 C 
BRANCH   7  10
ATOM      9  O   UNL     1       6.174   3.668  14.907  0.00  0.00    +0.000 OA
ATOM     10  C   UNL     1       6.227   4.734  15.515  0.00  0.00    +0.000 C 
ATOM     11  N   UNL     1       7.135   5.716  15.225  0.00  0.00    +0.000 N 
ATOM     12  H   UNL     1       7.264   6.571  15.750  0.00  0.00    +0.000 HD
BRANCH  11  13
ATOM     13  O   UNL     1       8.080   5.439  14.215  0.00  0.00    +0.000 OA
ATOM     14  H   UNL     1       7.802   6.042  13.491  0.00  0.00    +0.000 HD
ENDBRANCH  11  13
ENDBRANCH   7  10
ENDBRANCH   1   8
BRANCH   5  15
ATOM     15  N   UNL     1       2.680   5.361  21.042  0.00  0.00    +0.000 N 
ATOM     16  H   UNL     1       3.419   5.346  21.741  0.00  0.00    +0.000 HD
BRANCH  15  17
ATOM     17  S   UNL     1       1.733   3.971  20.971  0.00  0.00    +0.000 S 
ATOM     18  O   UNL     1       1.919   3.297  22.239  0.00  0.00    +0.000 OA
ATOM     19  O   UNL     1       0.414   4.318  20.490  0.00  0.00    +0.000 OA
BRANCH  17  20
ATOM     20  C   UNL     1       2.533   2.987  19.721  0.00  0.00    +0.000 A 
ATOM     21  C   UNL     1       3.760   2.374  19.994  0.00  0.00    +0.000 A 
ATOM     22  C   UNL     1       4.408   1.658  18.987  0.00  0.00    +0.000 A 
ATOM     23  C   UNL     1       3.829   1.553  17.721  0.00  0.00    +0.000 A 
ATOM     24  C   UNL     1       2.586   2.132  17.466  0.00  0.00    +0.000 A 
ATOM     25  C   UNL     1       1.923   2.835  18.472  0.00  0.00    +0.000 A 
ENDBRANCH  17  20
ENDBRANCH  15  17
ENDBRANCH   5  15
TORSDOF 6
ENDMDL
MODEL 2
REMARK VINA RESULT:      -7.6      0.086      1.038
REMARK  Name = 
REMARK  6 active torsions:
REMARK  status: ('A' for Active; 'I' for Inactive)
REMARK    1  A    between atoms: C_2  and  C_3
REMARK    2  A    between atoms: C_4  and  C_5
REMARK    3  A    between atoms: C_9  and  N_10
REMARK    4  A    between atoms: N_10  and  S_11
REMARK    5  A    between atoms: S_11  and  C_14
REMARK    6  A    between atoms: N_21  and  O_22
REMARK                            x       y       z     vdW  Elec       q    Type
REMARK                         _______ _______ _______ _____ _____    ______ ____
ROOT
ATOM      1  C   UNL     1       3.854   6.676  17.771  0.00  0.00    +0.000 A 
ATOM      2  C   UNL     1       3.078   7.833  17.633  0.00  0.00    +0.000 A 
ATOM      3  C   UNL     1       2.153   8.180  18.618  0.00  0.00    +0.000 A 
ATOM      4  C   UNL     1       1.991   7.369  19.741  0.00  0.00    +0.000 A 
ATOM      5  C   UNL     1       2.786   6.234  19.898  0.00  0.00    +0.000 A 
ATOM      6  C   UNL     1       3.718   5.887  18.920  0.00  0.00    +0.000 A 
ENDROOT
BRANCH   1   8
ATOM      7  C   UNL     1       5.206   5.031  16.560  0.00  0.00    +0.000 C 
ATOM      8  C   UNL     1       4.789   6.297  16.712  0.00  0.00    +0.000 C 
BRANCH   7  10
ATOM      9  O   UNL     1       6.207   3.595  14.929  0.00  0.00    +0.000 OA
ATOM     10  C   UNL     1       6.167   4.689  15.483  0.00  0.00    +0.000 C 
ATOM     11  N   UNL     1       7.017   5.716  15.175  0.00  0.00    +0.000 N 
ATOM     12  H   UNL     1       7.070   6.603  15.661  0.00  0.00    +0.000 HD
BRANCH  11  13
ATOM     13  O   UNL     1       8.015   5.456  14.212  0.00  0.00    +0.000 OA
ATOM     14  H   UNL     1       8.277   6.359  13.928  0.00  0.00    +0.000 HD
ENDBRANCH  11  13
ENDBRANCH   7  10
ENDBRANCH   1   8
BRANCH   5  15
ATOM     15  N   UNL     1       2.637   5.402  21.038  0.00  0.00    +0.000 N 
ATOM     16  H   UNL     1       3.347   5.424  21.766  0.00  0.00    +0.000 HD
BRANCH  15  17
ATOM     17  S   UNL     1       1.739   3.981  20.955  0.00  0.00    +0.000 S 
ATOM     18  O   UNL     1       1.937   3.310  22.223  0.00  0.00    +0.000 OA
ATOM     19  O   UNL     1       0.413   4.284  20.463  0.00  0.00    +0.000 OA
BRANCH  17  20
ATOM     20  C   UNL     1       2.584   3.029  19.710  0.00  0.00    +0.000 A 
ATOM     21  C   UNL     1       2.014   2.876  18.442  0.00  0.00    +0.000 A 
ATOM     22  C   UNL     1       2.654   2.076  17.494  0.00  0.00    +0.000 A 
ATOM     23  C   UNL     1       3.856   1.441  17.813  0.00  0.00    +0.000 A 
ATOM     24  C   UNL     1       4.441   1.631  19.066  0.00  0.00    +0.000 A 
ATOM     25  C   UNL     1       3.817   2.443  20.012  0.00  0.00    +0.000 A 
ENDBRANCH  17  20
ENDBRANCH  15  17
ENDBRANCH   5  15
TORSDOF 6
ENDMDL
MODEL 3
REMARK VINA RESULT:      -7.5      2.964      3.884
REMARK  Name = 
REMARK  6 active torsions:
REMARK  status: ('A' for Active; 'I' for Inactive)
REMARK    1  A    between atoms: C_2  and  C_3
REMARK    2  A    between atoms: C_4  and  C_5
REMARK    3  A    between atoms: C_9  and  N_10
REMARK    4  A    between atoms: N_10  and  S_11
REMARK    5  A    between atoms: S_11  and  C_14
REMARK    6  A    between atoms: N_21  and  O_22
REMARK                            x       y       z     vdW  Elec       q    Type
REMARK                         _______ _______ _______ _____ _____    ______ ____
ROOT
ATOM      1  C   UNL     1       6.081   4.736  15.338  0.00  0.00    +0.000 A 
ATOM      2  C   UNL     1       7.251   5.347  15.804  0.00  0.00    +0.000 A 
ATOM      3  C   UNL     1       7.198   6.250  16.866  0.00  0.00    +0.000 A 
ATOM      4  C   UNL     1       5.975   6.556  17.462  0.00  0.00    +0.000 A 
ATOM      5  C   UNL     1       4.812   5.924  17.023  0.00  0.00    +0.000 A 
ATOM      6  C   UNL     1       4.860   5.014  15.966  0.00  0.00    +0.000 A 
ENDROOT
BRANCH   1   8
ATOM      7  C   UNL     1       5.278   3.921  13.172  0.00  0.00    +0.000 C 
ATOM      8  C   UNL     1       6.141   3.826  14.194  0.00  0.00    +0.000 C 
BRANCH   7  10
ATOM      9  O   UNL     1       4.448   2.783  11.238  0.00  0.00    +0.000 OA
ATOM     10  C   UNL     1       5.360   2.969  12.038  0.00  0.00    +0.000 C 
ATOM     11  N   UNL     1       6.556   2.306  11.979  0.00  0.00    +0.000 N 
ATOM     12  H   UNL     1       7.299   2.371  12.662  0.00  0.00    +0.000 HD
BRANCH  11  13
ATOM     13  O   UNL     1       6.696   1.324  10.975  0.00  0.00    +0.000 OA
ATOM     14  H   UNL     1       6.530   1.836  10.153  0.00  0.00    +0.000 HD
ENDBRANCH  11  13
ENDBRANCH   7  10
ENDBRANCH   1   8
BRANCH   5  15
ATOM     15  N   UNL     1       3.561   6.220  17.624  0.00  0.00    +0.000 N 
ATOM     16  H   UNL     1       2.943   6.897  17.182  0.00  0.00    +0.000 HD
BRANCH  15  17
ATOM     17  S   UNL     1       3.332   6.015  19.279  0.00  0.00    +0.000 S 
ATOM     18  O   UNL     1       4.617   5.614  19.812  0.00  0.00    +0.000 OA
ATOM     19  O   UNL     1       2.623   7.160  19.806  0.00  0.00    +0.000 OA
BRANCH  17  20
ATOM     20  C   UNL     1       2.249   4.605  19.376  0.00  0.00    +0.000 A 
ATOM     21  C   UNL     1       1.728   4.209  20.612  0.00  0.00    +0.000 A 
ATOM     22  C   UNL     1       0.931   3.066  20.686  0.00  0.00    +0.000 A 
ATOM     23  C   UNL     1       0.656   2.330  19.532  0.00  0.00    +0.000 A 
ATOM     24  C   UNL     1       1.145   2.753  18.295  0.00  0.00    +0.000 A 
ATOM     25  C   UNL     1       1.927   3.904  18.210  0.00  0.00    +0.000 A 
ENDBRANCH  17  20
ENDBRANCH  15  17
ENDBRANCH   5  15
TORSDOF 6
ENDMDL
MODEL 4
REMARK VINA RESULT:      -7.3      3.399      6.581
REMARK  Name = 
REMARK  6 active torsions:
REMARK  status: ('A' for Active; 'I' for Inactive)
REMARK    1  A    between atoms: C_2  and  C_3
REMARK    2  A    between atoms: C_4  and  C_5
REMARK    3  A    between atoms: C_9  and  N_10
REMARK    4  A    between atoms: N_10  and  S_11
REMARK    5  A    between atoms: S_11  and  C_14
REMARK    6  A    between atoms: N_21  and  O_22
REMARK                            x       y       z     vdW  Elec       q    Type
REMARK                         _______ _______ _______ _____ _____    ______ ____
ROOT
ATOM      1  C   UNL     1       1.734   7.776  20.022  0.00  0.00    +0.000 A 
ATOM      2  C   UNL     1       1.980   8.644  18.952  0.00  0.00    +0.000 A 
ATOM      3  C   UNL     1       2.711   8.208  17.846  0.00  0.00    +0.000 A 
ATOM      4  C   UNL     1       3.207   6.905  17.807  0.00  0.00    +0.000 A 
ATOM      5  C   UNL     1       2.935   6.027  18.856  0.00  0.00    +0.000 A 
ATOM      6  C   UNL     1       2.199   6.456  19.961  0.00  0.00    +0.000 A 
ENDROOT
BRANCH   1   8
ATOM      7  C   UNL     1       0.782   9.563  21.400  0.00  0.00    +0.000 C 
ATOM      8  C   UNL     1       1.007   8.257  21.197  0.00  0.00    +0.000 C 
BRANCH   7  10
ATOM      9  O   UNL     1       0.365   9.684  23.753  0.00  0.00    +0.000 OA
ATOM     10  C   UNL     1       0.056  10.014  22.612  0.00  0.00    +0.000 C 
ATOM     11  N   UNL     1      -1.007  10.829  22.330  0.00  0.00    +0.000 N 
ATOM     12  H   UNL     1      -1.343  11.059  21.403  0.00  0.00    +0.000 HD
BRANCH  11  13
ATOM     13  O   UNL     1      -1.802  11.246  23.418  0.00  0.00    +0.000 OA
ATOM     14  H   UNL     1      -2.711  11.043  23.108  0.00  0.00    +0.000 HD
ENDBRANCH  11  13
ENDBRANCH   7  10
ENDBRANCH   1   8
BRANCH   5  15
ATOM     15  N   UNL     1       3.428   4.697  18.828  0.00  0.00    +0.000 N 
ATOM     16  H   UNL     1       2.807   3.930  19.078  0.00  0.00    +0.000 HD
BRANCH  15  17
ATOM     17  S   UNL     1       5.069   4.383  19.028  0.00  0.00    +0.000 S 
ATOM     18  O   UNL     1       5.615   5.537  19.712  0.00  0.00    +0.000 OA
ATOM     19  O   UNL     1       5.238   3.046  19.555  0.00  0.00    +0.000 OA
BRANCH  17  20
ATOM     20  C   UNL     1       5.700   4.401  17.363  0.00  0.00    +0.000 A 
ATOM     21  C   UNL     1       7.024   4.783  17.122  0.00  0.00    +0.000 A 
ATOM     22  C   UNL     1       7.489   4.854  15.808  0.00  0.00    +0.000 A 
ATOM     23  C   UNL     1       6.637   4.541  14.747  0.00  0.00    +0.000 A 
ATOM     24  C   UNL     1       5.330   4.121  14.995  0.00  0.00    +0.000 A 
ATOM     25  C   UNL     1       4.863   4.030  16.306  0.00  0.00    +0.000 A 
ENDBRANCH  17  20
ENDBRANCH  15  17
ENDBRANCH   5  15
TORSDOF 6
ENDMDL
MODEL 5
REMARK VINA RESULT:      -7.3      2.774      3.717
REMARK  Name = 
REMARK  6 active torsions:
REMARK  status: ('A' for Active; 'I' for Inactive)
REMARK    1  A    between atoms: C_2  and  C_3
REMARK    2  A    between atoms: C_4  and  C_5
REMARK    3  A    between atoms: C_9  and  N_10
REMARK    4  A    between atoms: N_10  and  S_11
REMARK    5  A    between atoms: S_11  and  C_14
REMARK    6  A    between atoms: N_21  and  O_22
REMARK                            x       y       z     vdW  Elec       q    Type
REMARK                         _______ _______ _______ _____ _____    ______ ____
ROOT
ATOM      1  C   UNL     1       6.268   4.573  15.714  0.00  0.00    +0.000 A 
ATOM      2  C   UNL     1       7.336   4.462  16.612  0.00  0.00    +0.000 A 
ATOM      3  C   UNL     1       7.326   5.180  17.809  0.00  0.00    +0.000 A 
ATOM      4  C   UNL     1       6.254   6.020  18.110  0.00  0.00    +0.000 A 
ATOM      5  C   UNL     1       5.173   6.108  17.233  0.00  0.00    +0.000 A 
ATOM      6  C   UNL     1       5.175   5.385  16.039  0.00  0.00    +0.000 A 
ENDROOT
BRANCH   1   8
ATOM      7  C   UNL     1       5.323   3.956  13.540  0.00  0.00    +0.000 C 
ATOM      8  C   UNL     1       6.310   3.852  14.442  0.00  0.00    +0.000 C 
BRANCH   7  10
ATOM      9  O   UNL     1       4.512   3.215  11.414  0.00  0.00    +0.000 OA
ATOM     10  C   UNL     1       5.393   3.196  12.269  0.00  0.00    +0.000 C 
ATOM     11  N   UNL     1       6.539   2.457  12.147  0.00  0.00    +0.000 N 
ATOM     12  H   UNL     1       7.250   2.351  12.860  0.00  0.00    +0.000 HD
BRANCH  11  13
ATOM     13  O   UNL     1       6.658   1.642  11.001  0.00  0.00    +0.000 OA
ATOM     14  H   UNL     1       5.875   1.905  10.471  0.00  0.00    +0.000 HD
ENDBRANCH  11  13
ENDBRANCH   7  10
ENDBRANCH   1   8
BRANCH   5  15
ATOM     15  N   UNL     1       4.073   6.953  17.528  0.00  0.00    +0.000 N 
ATOM     16  H   UNL     1       4.213   7.960  17.564  0.00  0.00    +0.000 HD
BRANCH  15  17
ATOM     17  S   UNL     1       2.762   6.380  18.416  0.00  0.00    +0.000 S 
ATOM     18  O   UNL     1       2.956   6.863  19.768  0.00  0.00    +0.000 OA
ATOM     19  O   UNL     1       1.541   6.649  17.689  0.00  0.00    +0.000 OA
BRANCH  17  20
ATOM     20  C   UNL     1       3.014   4.618  18.437  0.00  0.00    +0.000 A 
ATOM     21  C   UNL     1       3.810   4.038  19.431  0.00  0.00    +0.000 A 
ATOM     22  C   UNL     1       4.052   2.664  19.401  0.00  0.00    +0.000 A 
ATOM     23  C   UNL     1       3.497   1.879  18.388  0.00  0.00    +0.000 A 
ATOM     24  C   UNL     1       2.670   2.456  17.423  0.00  0.00    +0.000 A 
ATOM     25  C   UNL     1       2.410   3.826  17.456  0.00  0.00    +0.000 A 
ENDBRANCH  17  20
ENDBRANCH  15  17
ENDBRANCH   5  15
TORSDOF 6
ENDMDL
MODEL 6
REMARK VINA RESULT:      -7.3      2.937      3.903
REMARK  Name = 
REMARK  6 active torsions:
REMARK  status: ('A' for Active; 'I' for Inactive)
REMARK    1  A    between atoms: C_2  and  C_3
REMARK    2  A    between atoms: C_4  and  C_5
REMARK    3  A    between atoms: C_9  and  N_10
REMARK    4  A    between atoms: N_10  and  S_11
REMARK    5  A    between atoms: S_11  and  C_14
REMARK    6  A    between atoms: N_21  and  O_22
REMARK                            x       y       z     vdW  Elec       q    Type
REMARK                         _______ _______ _______ _____ _____    ______ ____
ROOT
ATOM      1  C   UNL     1       5.917   4.640  15.461  0.00  0.00    +0.000 A 
ATOM      2  C   UNL     1       7.105   5.292  15.812  0.00  0.00    +0.000 A 
ATOM      3  C   UNL     1       7.099   6.281  16.797  0.00  0.00    +0.000 A 
ATOM      4  C   UNL     1       5.906   6.631  17.429  0.00  0.00    +0.000 A 
ATOM      5  C   UNL     1       4.727   5.960  17.105  0.00  0.00    +0.000 A 
ATOM      6  C   UNL     1       4.729   4.964  16.127  0.00  0.00    +0.000 A 
ENDROOT
BRANCH   1   8
ATOM      7  C   UNL     1       5.724   3.971  13.113  0.00  0.00    +0.000 C 
ATOM      8  C   UNL     1       5.926   3.637  14.396  0.00  0.00    +0.000 C 
BRANCH   7  10
ATOM      9  O   UNL     1       4.727   2.600  11.424  0.00  0.00    +0.000 OA
ATOM     10  C   UNL     1       5.724   2.923  12.064  0.00  0.00    +0.000 C 
ATOM     11  N   UNL     1       6.949   2.340  11.885  0.00  0.00    +0.000 N 
ATOM     12  H   UNL     1       7.773   2.519  12.444  0.00  0.00    +0.000 HD
BRANCH  11  13
ATOM     13  O   UNL     1       7.026   1.279  10.957  0.00  0.00    +0.000 OA
ATOM     14  H   UNL     1       6.265   1.461  10.363  0.00  0.00    +0.000 HD
ENDBRANCH  11  13
ENDBRANCH   7  10
ENDBRANCH   1   8
BRANCH   5  15
ATOM     15  N   UNL     1       3.506   6.299  17.744  0.00  0.00    +0.000 N 
ATOM     16  H   UNL     1       2.923   7.032  17.347  0.00  0.00    +0.000 HD
BRANCH  15  17
ATOM     17  S   UNL     1       3.293   6.028  19.391  0.00  0.00    +0.000 S 
ATOM     18  O   UNL     1       4.602   5.694  19.913  0.00  0.00    +0.000 OA
ATOM     19  O   UNL     1       2.513   7.108  19.954  0.00  0.00    +0.000 OA
BRANCH  17  20
ATOM     20  C   UNL     1       2.304   4.549  19.444  0.00  0.00    +0.000 A 
ATOM     21  C   UNL     1       1.724   4.055  18.271  0.00  0.00    +0.000 A 
ATOM     22  C   UNL     1       0.899   2.931  18.334  0.00  0.00    +0.000 A 
ATOM     23  C   UNL     1       0.663   2.306  19.560  0.00  0.00    +0.000 A 
ATOM     24  C   UNL     1       1.277   2.779  20.721  0.00  0.00    +0.000 A 
ATOM     25  C   UNL     1       2.116   3.891  20.663  0.00  0.00    +0.000 A 
ENDBRANCH  17  20
ENDBRANCH  15  17
ENDBRANCH   5  15
TORSDOF 6
ENDMDL
MODEL 7
REMARK VINA RESULT:      -7.2      3.356      5.293
REMARK  Name = 
REMARK  6 active torsions:
REMARK  status: ('A' for Active; 'I' for Inactive)
REMARK    1  A    between atoms: C_2  and  C_3
REMARK    2  A    between atoms: C_4  and  C_5
REMARK    3  A    between atoms: C_9  and  N_10
REMARK    4  A    between atoms: N_10  and  S_11
REMARK    5  A    between atoms: S_11  and  C_14
REMARK    6  A    between atoms: N_21  and  O_22
REMARK                            x       y       z     vdW  Elec       q    Type
REMARK                         _______ _______ _______ _____ _____    ______ ____
ROOT
ATOM      1  C   UNL     1       6.105   4.457  15.756  0.00  0.00    +0.000 A 
ATOM      2  C   UNL     1       7.313   4.526  16.460  0.00  0.00    +0.000 A 
ATOM      3  C   UNL     1       7.446   5.395  17.544  0.00  0.00    +0.000 A 
ATOM      4  C   UNL     1       6.377   6.206  17.924  0.00  0.00    +0.000 A 
ATOM      5  C   UNL     1       5.162   6.115  17.246  0.00  0.00    +0.000 A 
ATOM      6  C   UNL     1       5.021   5.242  16.166  0.00  0.00    +0.000 A 
ENDROOT
BRANCH   1   8
ATOM      7  C   UNL     1       5.836   4.063  13.353  0.00  0.00    +0.000 C 
ATOM      8  C   UNL     1       5.991   3.576  14.593  0.00  0.00    +0.000 C 
BRANCH   7  10
ATOM      9  O   UNL     1       4.687   3.030  11.526  0.00  0.00    +0.000 OA
ATOM     10  C   UNL     1       5.707   3.138  12.201  0.00  0.00    +0.000 C 
ATOM     11  N   UNL     1       6.839   2.406  11.970  0.00  0.00    +0.000 N 
ATOM     12  H   UNL     1       7.669   2.407  12.550  0.00  0.00    +0.000 HD
BRANCH  11  13
ATOM     13  O   UNL     1       6.782   1.444  10.939  0.00  0.00    +0.000 OA
ATOM     14  H   UNL     1       6.811   2.000  10.129  0.00  0.00    +0.000 HD
ENDBRANCH  11  13
ENDBRANCH   7  10
ENDBRANCH   1   8
BRANCH   5  15
ATOM     15  N   UNL     1       4.063   6.928  17.625  0.00  0.00    +0.000 N 
ATOM     16  H   UNL     1       4.153   7.941  17.578  0.00  0.00    +0.000 HD
BRANCH  15  17
ATOM     17  S   UNL     1       2.907   6.362  18.709  0.00  0.00    +0.000 S 
ATOM     18  O   UNL     1       1.991   5.555  17.930  0.00  0.00    +0.000 OA
ATOM     19  O   UNL     1       3.572   5.828  19.878  0.00  0.00    +0.000 OA
BRANCH  17  20
ATOM     20  C   UNL     1       2.037   7.837  19.196  0.00  0.00    +0.000 A 
ATOM     21  C   UNL     1       1.589   7.981  20.513  0.00  0.00    +0.000 A 
ATOM     22  C   UNL     1       0.854   9.113  20.868  0.00  0.00    +0.000 A 
ATOM     23  C   UNL     1       0.575  10.092  19.913  0.00  0.00    +0.000 A 
ATOM     24  C   UNL     1       1.059   9.963  18.611  0.00  0.00    +0.000 A 
ATOM     25  C   UNL     1       1.810   8.844  18.253  0.00  0.00    +0.000 A 
ENDBRANCH  17  20
ENDBRANCH  15  17
ENDBRANCH   5  15
TORSDOF 6
ENDMDL
MODEL 8
REMARK VINA RESULT:      -7.2      3.321      5.892
REMARK  Name = 
REMARK  6 active torsions:
REMARK  status: ('A' for Active; 'I' for Inactive)
REMARK    1  A    between atoms: C_2  and  C_3
REMARK    2  A    between atoms: C_4  and  C_5
REMARK    3  A    between atoms: C_9  and  N_10
REMARK    4  A    between atoms: N_10  and  S_11
REMARK    5  A    between atoms: S_11  and  C_14
REMARK    6  A    between atoms: N_21  and  O_22
REMARK                            x       y       z     vdW  Elec       q    Type
REMARK                         _______ _______ _______ _____ _____    ______ ____
ROOT
ATOM      1  C   UNL     1       2.910   5.726  18.966  0.00  0.00    +0.000 A 
ATOM      2  C   UNL     1       2.155   4.691  18.402  0.00  0.00    +0.000 A 
ATOM      3  C   UNL     1       2.765   3.484  18.057  0.00  0.00    +0.000 A 
ATOM      4  C   UNL     1       4.133   3.309  18.264  0.00  0.00    +0.000 A 
ATOM      5  C   UNL     1       4.882   4.326  18.857  0.00  0.00    +0.000 A 
ATOM      6  C   UNL     1       4.275   5.531  19.211  0.00  0.00    +0.000 A 
ENDROOT
BRANCH   1   8
ATOM      7  C   UNL     1       2.266   8.023  18.411  0.00  0.00    +0.000 C 
ATOM      8  C   UNL     1       2.270   7.003  19.282  0.00  0.00    +0.000 C 
BRANCH   7  10
ATOM      9  O   UNL     1       0.996   9.487  19.815  0.00  0.00    +0.000 OA
ATOM     10  C   UNL     1       1.622   9.309  18.774  0.00  0.00    +0.000 C 
ATOM     11  N   UNL     1       1.785  10.280  17.824  0.00  0.00    +0.000 N 
ATOM     12  H   UNL     1       2.223  10.151  16.920  0.00  0.00    +0.000 HD
BRANCH  11  13
ATOM     13  O   UNL     1       1.142  11.515  18.051  0.00  0.00    +0.000 OA
ATOM     14  H   UNL     1       1.565  12.101  17.386  0.00  0.00    +0.000 HD
ENDBRANCH  11  13
ENDBRANCH   7  10
ENDBRANCH   1   8
BRANCH   5  15
ATOM     15  N   UNL     1       6.273   4.159  19.081  0.00  0.00    +0.000 N 
ATOM     16  H   UNL     1       6.604   3.943  20.018  0.00  0.00    +0.000 HD
BRANCH  15  17
ATOM     17  S   UNL     1       7.400   4.902  18.076  0.00  0.00    +0.000 S 
ATOM     18  O   UNL     1       7.499   6.273  18.532  0.00  0.00    +0.000 OA
ATOM     19  O   UNL     1       8.571   4.059  17.968  0.00  0.00    +0.000 OA
BRANCH  17  20
ATOM     20  C   UNL     1       6.591   4.924  16.490  0.00  0.00    +0.000 A 
ATOM     21  C   UNL     1       6.710   3.828  15.630  0.00  0.00    +0.000 A 
ATOM     22  C   UNL     1       6.124   3.882  14.364  0.00  0.00    +0.000 A 
ATOM     23  C   UNL     1       5.422   5.022  13.968  0.00  0.00    +0.000 A 
ATOM     24  C   UNL     1       5.271   6.096  14.845  0.00  0.00    +0.000 A 
ATOM     25  C   UNL     1       5.838   6.043  16.118  0.00  0.00    +0.000 A 
ENDBRANCH  17  20
ENDBRANCH  15  17
ENDBRANCH   5  15
TORSDOF 6
ENDMDL
MODEL 9
REMARK VINA RESULT:      -7.2      3.588      6.186
REMARK  Name = 
REMARK  6 active torsions:
REMARK  status: ('A' for Active; 'I' for Inactive)
REMARK    1  A    between atoms: C_2  and  C_3
REMARK    2  A    between atoms: C_4  and  C_5
REMARK    3  A    between atoms: C_9  and  N_10
REMARK    4  A    between atoms: N_10  and  S_11
REMARK    5  A    between atoms: S_11  and  C_14
REMARK    6  A    between atoms: N_21  and  O_22
REMARK                            x       y       z     vdW  Elec       q    Type
REMARK                         _______ _______ _______ _____ _____    ______ ____
ROOT
ATOM      1  C   UNL     1       2.968   6.340  18.795  0.00  0.00    +0.000 A 
ATOM      2  C   UNL     1       2.949   5.458  19.881  0.00  0.00    +0.000 A 
ATOM      3  C   UNL     1       3.484   4.175  19.755  0.00  0.00    +0.000 A 
ATOM      4  C   UNL     1       4.033   3.764  18.540  0.00  0.00    +0.000 A 
ATOM      5  C   UNL     1       4.084   4.652  17.465  0.00  0.00    +0.000 A 
ATOM      6  C   UNL     1       3.557   5.939  17.589  0.00  0.00    +0.000 A 
ENDROOT
BRANCH   1   8
ATOM      7  C   UNL     1       1.943   8.356  17.854  0.00  0.00    +0.000 C 
ATOM      8  C   UNL     1       2.363   7.666  18.924  0.00  0.00    +0.000 C 
BRANCH   7  10
ATOM      9  O   UNL     1       0.181   9.899  18.345  0.00  0.00    +0.000 OA
ATOM     10  C   UNL     1       1.350   9.705  18.024  0.00  0.00    +0.000 C 
ATOM     11  N   UNL     1       2.237  10.717  17.777  0.00  0.00    +0.000 N 
ATOM     12  H   UNL     1       3.182  10.601  17.434  0.00  0.00    +0.000 HD
BRANCH  11  13
ATOM     13  O   UNL     1       1.740  12.036  17.843  0.00  0.00    +0.000 OA
ATOM     14  H   UNL     1       2.532  12.549  18.116  0.00  0.00    +0.000 HD
ENDBRANCH  11  13
ENDBRANCH   7  10
ENDBRANCH   1   8
BRANCH   5  15
ATOM     15  N   UNL     1       4.645   4.252  16.225  0.00  0.00    +0.000 N 
ATOM     16  H   UNL     1       4.618   3.270  15.961  0.00  0.00    +0.000 HD
BRANCH  15  17
ATOM     17  S   UNL     1       5.865   5.156  15.501  0.00  0.00    +0.000 S 
ATOM     18  O   UNL     1       6.672   4.212  14.756  0.00  0.00    +0.000 OA
ATOM     19  O   UNL     1       5.283   6.316  14.863  0.00  0.00    +0.000 OA
BRANCH  17  20
ATOM     20  C   UNL     1       6.840   5.718  16.881  0.00  0.00    +0.000 A 
ATOM     21  C   UNL     1       7.304   4.799  17.828  0.00  0.00    +0.000 A 
ATOM     22  C   UNL     1       8.013   5.258  18.939  0.00  0.00    +0.000 A 
ATOM     23  C   UNL     1       8.259   6.623  19.096  0.00  0.00    +0.000 A 
ATOM     24  C   UNL     1       7.829   7.531  18.127  0.00  0.00    +0.000 A 
ATOM     25  C   UNL     1       7.136   7.079  17.005  0.00  0.00    +0.000 A 
ENDBRANCH  17  20
ENDBRANCH  15  17
ENDBRANCH   5  15
TORSDOF 6
ENDMDL
