MODEL 1
REMARK VINA RESULT:      -6.9      0.000      0.000
REMARK  Name = 
REMARK  9 active torsions:
REMARK  status: ('A' for Active; 'I' for Inactive)
REMARK    1  A    between atoms: C_1  and  C_2
REMARK    2  A    between atoms: C_2  and  N_3
REMARK    3  A    between atoms: C_4  and  C_6
REMARK    4  A    between atoms: C_6  and  N_7
REMARK    5  A    between atoms: C_10  and  C_11
REMARK    6  A    between atoms: C_13  and  O_14
REMARK    7  A    between atoms: O_14  and  C_15
REMARK    8  A    between atoms: C_17  and  O_18
REMARK    9  A    between atoms: O_18  and  C_19
REMARK                            x       y       z     vdW  Elec       q    Type
REMARK                         _______ _______ _______ _____ _____    ______ ____
ROOT
ATOM      1  N   UNL     1       5.539   4.573  16.286  0.00  0.00    +0.000 NA
ATOM      2  C   UNL     1       5.240   6.015  16.204  0.00  0.00    +0.000 C 
ATOM      3  C   UNL     1       5.597   6.603  17.556  0.00  0.00    +0.000 C 
ATOM      4  C   UNL     1       5.288   5.487  18.547  0.00  0.00    +0.000 C 
ATOM      5  C   UNL     1       5.457   4.202  17.719  0.00  0.00    +0.000 C 
ENDROOT
BRANCH   4   6
ATOM      6  C   UNL     1       3.922   5.629  19.201  0.00  0.00    +0.000 A 
ATOM      7  C   UNL     1       3.272   6.867  19.311  0.00  0.00    +0.000 A 
ATOM      8  C   UNL     1       2.047   6.983  19.967  0.00  0.00    +0.000 A 
ATOM      9  C   UNL     1       1.419   5.846  20.460  0.00  0.00    +0.000 A 
ATOM     10  C   UNL     1       2.031   4.594  20.342  0.00  0.00    +0.000 A 
ATOM     11  C   UNL     1       3.284   4.493  19.728  0.00  0.00    +0.000 A 
BRANCH   8  12
ATOM     12  O   UNL     1       1.545   8.257  20.040  0.00  0.00    +0.000 OA
ATOM     13  C   UNL     1       1.211   8.696  21.350  0.00  0.00    +0.000 C 
ENDBRANCH   8  12
BRANCH  10  14
ATOM     14  O   UNL     1       1.309   3.554  20.861  0.00  0.00    +0.000 OA
ATOM     15  C   UNL     1       2.031   2.581  21.607  0.00  0.00    +0.000 C 
ENDBRANCH  10  14
ENDBRANCH   4   6
BRANCH   1  16
ATOM     16  C   UNL     1       6.884   4.275  15.742  0.00  0.00    +0.000 C 
BRANCH  16  18
ATOM     17  N   UNL     1       6.214   3.431  13.553  0.00  0.00    +0.000 N 
ATOM     18  C   UNL     1       6.893   4.433  14.217  0.00  0.00    +0.000 C 
ATOM     19  O   UNL     1       7.461   5.364  13.654  0.00  0.00    +0.000 OA
ATOM     20  H   UNL     1       5.618   2.842  14.128  0.00  0.00    +0.000 HD
BRANCH  17  22
ATOM     21  C   UNL     1       4.561   3.191  11.753  0.00  0.00    +0.000 C 
ATOM     22  C   UNL     1       6.010   3.459  12.122  0.00  0.00    +0.000 C 
ENDBRANCH  17  22
ENDBRANCH  16  18
ENDBRANCH   1  16
TORSDOF 6
ENDMDL
MODEL 2
REMARK VINA RESULT:      -6.8      1.768      3.448
REMARK  Name = 
REMARK  9 active torsions:
REMARK  status: ('A' for Active; 'I' for Inactive)
REMARK    1  A    between atoms: C_1  and  C_2
REMARK    2  A    between atoms: C_2  and  N_3
REMARK    3  A    between atoms: C_4  and  C_6
REMARK    4  A    between atoms: C_6  and  N_7
REMARK    5  A    between atoms: C_10  and  C_11
REMARK    6  A    between atoms: C_13  and  O_14
REMARK    7  A    between atoms: O_14  and  C_15
REMARK    8  A    between atoms: C_17  and  O_18
REMARK    9  A    between atoms: O_18  and  C_19
REMARK                            x       y       z     vdW  Elec       q    Type
REMARK                         _______ _______ _______ _____ _____    ______ ____
ROOT
ATOM      1  N   UNL     1       5.871   5.508  17.656  0.00  0.00    +0.000 NA
ATOM      2  C   UNL     1       5.675   5.289  19.101  0.00  0.00    +0.000 C 
ATOM      3  C   UNL     1       4.240   4.827  19.273  0.00  0.00    +0.000 C 
ATOM      4  C   UNL     1       3.475   5.554  18.173  0.00  0.00    +0.000 C 
ATOM      5  C   UNL     1       4.533   5.790  17.083  0.00  0.00    +0.000 C 
ENDROOT
BRANCH   4   6
ATOM      6  C   UNL     1       2.791   6.822  18.659  0.00  0.00    +0.000 A 
ATOM      7  C   UNL     1       2.177   6.904  19.918  0.00  0.00    +0.000 A 
ATOM      8  C   UNL     1       1.503   8.057  20.319  0.00  0.00    +0.000 A 
ATOM      9  C   UNL     1       1.496   9.174  19.492  0.00  0.00    +0.000 A 
ATOM     10  C   UNL     1       2.123   9.130  18.242  0.00  0.00    +0.000 A 
ATOM     11  C   UNL     1       2.752   7.952  17.825  0.00  0.00    +0.000 A 
BRANCH   8  12
ATOM     12  O   UNL     1       0.912   7.985  21.554  0.00  0.00    +0.000 OA
ATOM     13  C   UNL     1      -0.188   8.865  21.744  0.00  0.00    +0.000 C 
ENDBRANCH   8  12
BRANCH  10  14
ATOM     14  O   UNL     1       2.051  10.295  17.527  0.00  0.00    +0.000 OA
ATOM     15  C   UNL     1       1.909  11.498  18.273  0.00  0.00    +0.000 C 
ENDBRANCH  10  14
ENDBRANCH   4   6
BRANCH   1  16
ATOM     16  C   UNL     1       6.477   4.318  17.014  0.00  0.00    +0.000 C 
BRANCH  16  18
ATOM     17  N   UNL     1       6.373   3.777  14.636  0.00  0.00    +0.000 N 
ATOM     18  C   UNL     1       6.899   4.641  15.576  0.00  0.00    +0.000 C 
ATOM     19  O   UNL     1       7.644   5.578  15.303  0.00  0.00    +0.000 OA
ATOM     20  H   UNL     1       5.616   3.180  14.958  0.00  0.00    +0.000 HD
BRANCH  17  22
ATOM     21  C   UNL     1       5.495   3.267  12.400  0.00  0.00    +0.000 C 
ATOM     22  C   UNL     1       6.559   3.979  13.218  0.00  0.00    +0.000 C 
ENDBRANCH  17  22
ENDBRANCH  16  18
ENDBRANCH   1  16
TORSDOF 6
ENDMDL
MODEL 3
REMARK VINA RESULT:      -6.7      0.500      2.693
REMARK  Name = 
REMARK  9 active torsions:
REMARK  status: ('A' for Active; 'I' for Inactive)
REMARK    1  A    between atoms: C_1  and  C_2
REMARK    2  A    between atoms: C_2  and  N_3
REMARK    3  A    between atoms: C_4  and  C_6
REMARK    4  A    between atoms: C_6  and  N_7
REMARK    5  A    between atoms: C_10  and  C_11
REMARK    6  A    between atoms: C_13  and  O_14
REMARK    7  A    between atoms: O_14  and  C_15
REMARK    8  A    between atoms: C_17  and  O_18
REMARK    9  A    between atoms: O_18  and  C_19
REMARK                            x       y       z     vdW  Elec       q    Type
REMARK                         _______ _______ _______ _____ _____    ______ ____
ROOT
ATOM      1  N   UNL     1       5.629   4.451  16.351  0.00  0.00    +0.000 NA
ATOM      2  C   UNL     1       5.086   5.808  16.160  0.00  0.00    +0.000 C 
ATOM      3  C   UNL     1       5.358   6.563  17.447  0.00  0.00    +0.000 C 
ATOM      4  C   UNL     1       5.261   5.500  18.535  0.00  0.00    +0.000 C 
ATOM      5  C   UNL     1       5.635   4.196  17.811  0.00  0.00    +0.000 C 
ENDROOT
BRANCH   4   6
ATOM      6  C   UNL     1       3.902   5.463  19.217  0.00  0.00    +0.000 A 
ATOM      7  C   UNL     1       3.254   4.257  19.524  0.00  0.00    +0.000 A 
ATOM      8  C   UNL     1       1.981   4.247  20.095  0.00  0.00    +0.000 A 
ATOM      9  C   UNL     1       1.369   5.447  20.435  0.00  0.00    +0.000 A 
ATOM     10  C   UNL     1       2.003   6.664  20.164  0.00  0.00    +0.000 A 
ATOM     11  C   UNL     1       3.257   6.668  19.544  0.00  0.00    +0.000 A 
BRANCH   8  12
ATOM     12  O   UNL     1       1.447   3.001  20.301  0.00  0.00    +0.000 OA
ATOM     13  C   UNL     1       1.594   2.498  21.623  0.00  0.00    +0.000 C 
ENDBRANCH   8  12
BRANCH  10  14
ATOM     14  O   UNL     1       1.300   7.773  20.552  0.00  0.00    +0.000 OA
ATOM     15  C   UNL     1       1.359   8.904  19.691  0.00  0.00    +0.000 C 
ENDBRANCH  10  14
ENDBRANCH   4   6
BRANCH   1  16
ATOM     16  C   UNL     1       6.997   4.341  15.792  0.00  0.00    +0.000 C 
BRANCH  16  18
ATOM     17  N   UNL     1       6.332   3.384  13.647  0.00  0.00    +0.000 N 
ATOM     18  C   UNL     1       6.961   4.449  14.263  0.00  0.00    +0.000 C 
ATOM     19  O   UNL     1       7.458   5.394  13.657  0.00  0.00    +0.000 OA
ATOM     20  H   UNL     1       5.788   2.779  14.256  0.00  0.00    +0.000 HD
BRANCH  17  22
ATOM     21  C   UNL     1       4.612   3.348  11.896  0.00  0.00    +0.000 C 
ATOM     22  C   UNL     1       6.096   3.352  12.222  0.00  0.00    +0.000 C 
ENDBRANCH  17  22
ENDBRANCH  16  18
ENDBRANCH   1  16
TORSDOF 6
ENDMDL
MODEL 4
REMARK VINA RESULT:      -6.7      1.074      1.150
REMARK  Name = 
REMARK  9 active torsions:
REMARK  status: ('A' for Active; 'I' for Inactive)
REMARK    1  A    between atoms: C_1  and  C_2
REMARK    2  A    between atoms: C_2  and  N_3
REMARK    3  A    between atoms: C_4  and  C_6
REMARK    4  A    between atoms: C_6  and  N_7
REMARK    5  A    between atoms: C_10  and  C_11
REMARK    6  A    between atoms: C_13  and  O_14
REMARK    7  A    between atoms: O_14  and  C_15
REMARK    8  A    between atoms: C_17  and  O_18
REMARK    9  A    between atoms: O_18  and  C_19
REMARK                            x       y       z     vdW  Elec       q    Type
REMARK                         _______ _______ _______ _____ _____    ______ ____
ROOT
ATOM      1  N   UNL     1       5.736   4.863  15.424  0.00  0.00    +0.000 NA
ATOM      2  C   UNL     1       5.536   6.258  15.856  0.00  0.00    +0.000 C 
ATOM      3  C   UNL     1       6.017   6.334  17.293  0.00  0.00    +0.000 C 
ATOM      4  C   UNL     1       5.692   4.963  17.872  0.00  0.00    +0.000 C 
ATOM      5  C   UNL     1       5.718   4.030  16.650  0.00  0.00    +0.000 C 
ENDROOT
BRANCH   4   6
ATOM      6  C   UNL     1       4.383   4.935  18.646  0.00  0.00    +0.000 A 
ATOM      7  C   UNL     1       3.645   6.099  18.906  0.00  0.00    +0.000 A 
ATOM      8  C   UNL     1       2.478   6.058  19.669  0.00  0.00    +0.000 A 
ATOM      9  C   UNL     1       1.993   4.837  20.122  0.00  0.00    +0.000 A 
ATOM     10  C   UNL     1       2.694   3.657  19.855  0.00  0.00    +0.000 A 
ATOM     11  C   UNL     1       3.891   3.712  19.134  0.00  0.00    +0.000 A 
BRANCH   8  12
ATOM     12  O   UNL     1       1.880   7.273  19.883  0.00  0.00    +0.000 OA
ATOM     13  C   UNL     1       2.036   8.212  18.826  0.00  0.00    +0.000 C 
ENDBRANCH   8  12
BRANCH  10  14
ATOM     14  O   UNL     1       2.110   2.522  20.349  0.00  0.00    +0.000 OA
ATOM     15  C   UNL     1       1.401   2.647  21.576  0.00  0.00    +0.000 C 
ENDBRANCH  10  14
ENDBRANCH   4   6
BRANCH   1  16
ATOM     16  C   UNL     1       7.021   4.708  14.702  0.00  0.00    +0.000 C 
BRANCH  16  18
ATOM     17  N   UNL     1       5.915   3.162  13.172  0.00  0.00    +0.000 N 
ATOM     18  C   UNL     1       6.774   4.239  13.263  0.00  0.00    +0.000 C 
ATOM     19  O   UNL     1       7.306   4.775  12.296  0.00  0.00    +0.000 OA
ATOM     20  H   UNL     1       5.385   2.945  14.011  0.00  0.00    +0.000 HD
BRANCH  17  22
ATOM     21  C   UNL     1       4.193   3.325  11.428  0.00  0.00    +0.000 C 
ATOM     22  C   UNL     1       5.467   2.643  11.900  0.00  0.00    +0.000 C 
ENDBRANCH  17  22
ENDBRANCH  16  18
ENDBRANCH   1  16
TORSDOF 6
ENDMDL
MODEL 5
REMARK VINA RESULT:      -6.7      0.706      2.764
REMARK  Name = 
REMARK  9 active torsions:
REMARK  status: ('A' for Active; 'I' for Inactive)
REMARK    1  A    between atoms: C_1  and  C_2
REMARK    2  A    between atoms: C_2  and  N_3
REMARK    3  A    between atoms: C_4  and  C_6
REMARK    4  A    between atoms: C_6  and  N_7
REMARK    5  A    between atoms: C_10  and  C_11
REMARK    6  A    between atoms: C_13  and  O_14
REMARK    7  A    between atoms: O_14  and  C_15
REMARK    8  A    between atoms: C_17  and  O_18
REMARK    9  A    between atoms: O_18  and  C_19
REMARK                            x       y       z     vdW  Elec       q    Type
REMARK                         _______ _______ _______ _____ _____    ______ ____
ROOT
ATOM      1  N   UNL     1       5.904   5.108  16.512  0.00  0.00    +0.000 NA
ATOM      2  C   UNL     1       6.328   6.150  17.466  0.00  0.00    +0.000 C 
ATOM      3  C   UNL     1       6.369   5.489  18.831  0.00  0.00    +0.000 C 
ATOM      4  C   UNL     1       5.251   4.455  18.782  0.00  0.00    +0.000 C 
ATOM      5  C   UNL     1       5.133   4.108  17.289  0.00  0.00    +0.000 C 
ENDROOT
BRANCH   4   6
ATOM      6  C   UNL     1       3.955   4.945  19.410  0.00  0.00    +0.000 A 
ATOM      7  C   UNL     1       3.122   4.100  20.160  0.00  0.00    +0.000 A 
ATOM      8  C   UNL     1       1.909   4.556  20.676  0.00  0.00    +0.000 A 
ATOM      9  C   UNL     1       1.545   5.886  20.510  0.00  0.00    +0.000 A 
ATOM     10  C   UNL     1       2.368   6.758  19.789  0.00  0.00    +0.000 A 
ATOM     11  C   UNL     1       3.559   6.281  19.230  0.00  0.00    +0.000 A 
BRANCH   8  12
ATOM     12  O   UNL     1       1.175   3.614  21.350  0.00  0.00    +0.000 OA
ATOM     13  C   UNL     1       1.808   2.349  21.492  0.00  0.00    +0.000 C 
ENDBRANCH   8  12
BRANCH  10  14
ATOM     14  O   UNL     1       1.903   8.042  19.703  0.00  0.00    +0.000 OA
ATOM     15  C   UNL     1       1.141   8.523  20.804  0.00  0.00    +0.000 C 
ENDBRANCH  10  14
ENDBRANCH   4   6
BRANCH   1  16
ATOM     16  C   UNL     1       7.073   4.477  15.856  0.00  0.00    +0.000 C 
BRANCH  16  18
ATOM     17  N   UNL     1       6.168   3.502  13.810  0.00  0.00    +0.000 N 
ATOM     18  C   UNL     1       6.926   4.532  14.331  0.00  0.00    +0.000 C 
ATOM     19  O   UNL     1       7.447   5.411  13.651  0.00  0.00    +0.000 OA
ATOM     20  H   UNL     1       5.627   2.966  14.482  0.00  0.00    +0.000 HD
BRANCH  17  22
ATOM     21  C   UNL     1       6.803   2.591  11.619  0.00  0.00    +0.000 C 
ATOM     22  C   UNL     1       5.819   3.438  12.409  0.00  0.00    +0.000 C 
ENDBRANCH  17  22
ENDBRANCH  16  18
ENDBRANCH   1  16
TORSDOF 6
ENDMDL
MODEL 6
REMARK VINA RESULT:      -6.4      1.050      1.285
REMARK  Name = 
REMARK  9 active torsions:
REMARK  status: ('A' for Active; 'I' for Inactive)
REMARK    1  A    between atoms: C_1  and  C_2
REMARK    2  A    between atoms: C_2  and  N_3
REMARK    3  A    between atoms: C_4  and  C_6
REMARK    4  A    between atoms: C_6  and  N_7
REMARK    5  A    between atoms: C_10  and  C_11
REMARK    6  A    between atoms: C_13  and  O_14
REMARK    7  A    between atoms: O_14  and  C_15
REMARK    8  A    between atoms: C_17  and  O_18
REMARK    9  A    between atoms: O_18  and  C_19
REMARK                            x       y       z     vdW  Elec       q    Type
REMARK                         _______ _______ _______ _____ _____    ______ ____
ROOT
ATOM      1  N   UNL     1       6.178   5.421  16.400  0.00  0.00    +0.000 NA
ATOM      2  C   UNL     1       6.674   6.115  17.603  0.00  0.00    +0.000 C 
ATOM      3  C   UNL     1       6.529   5.136  18.752  0.00  0.00    +0.000 C 
ATOM      4  C   UNL     1       5.285   4.327  18.403  0.00  0.00    +0.000 C 
ATOM      5  C   UNL     1       5.225   4.386  16.868  0.00  0.00    +0.000 C 
ENDROOT
BRANCH   4   6
ATOM      6  C   UNL     1       4.028   4.834  19.093  0.00  0.00    +0.000 A 
ATOM      7  C   UNL     1       3.566   6.149  18.930  0.00  0.00    +0.000 A 
ATOM      8  C   UNL     1       2.444   6.610  19.619  0.00  0.00    +0.000 A 
ATOM      9  C   UNL     1       1.725   5.738  20.427  0.00  0.00    +0.000 A 
ATOM     10  C   UNL     1       2.147   4.415  20.588  0.00  0.00    +0.000 A 
ATOM     11  C   UNL     1       3.303   3.973  19.935  0.00  0.00    +0.000 A 
BRANCH   8  12
ATOM     12  O   UNL     1       2.129   7.926  19.400  0.00  0.00    +0.000 OA
ATOM     13  C   UNL     1       2.289   8.366  18.057  0.00  0.00    +0.000 C 
ENDBRANCH   8  12
BRANCH  10  14
ATOM     14  O   UNL     1       1.351   3.657  21.404  0.00  0.00    +0.000 OA
ATOM     15  C   UNL     1       1.847   2.375  21.772  0.00  0.00    +0.000 C 
ENDBRANCH  10  14
ENDBRANCH   4   6
BRANCH   1  16
ATOM     16  C   UNL     1       7.292   4.805  15.642  0.00  0.00    +0.000 C 
BRANCH  16  18
ATOM     17  N   UNL     1       6.422   3.544  13.742  0.00  0.00    +0.000 N 
ATOM     18  C   UNL     1       6.958   4.751  14.146  0.00  0.00    +0.000 C 
ATOM     19  O   UNL     1       7.163   5.696  13.391  0.00  0.00    +0.000 OA
ATOM     20  H   UNL     1       6.111   2.926  14.486  0.00  0.00    +0.000 HD
BRANCH  17  22
ATOM     21  C   UNL     1       6.963   2.620  11.532  0.00  0.00    +0.000 C 
ATOM     22  C   UNL     1       5.936   3.332  12.398  0.00  0.00    +0.000 C 
ENDBRANCH  17  22
ENDBRANCH  16  18
ENDBRANCH   1  16
TORSDOF 6
ENDMDL
MODEL 7
REMARK VINA RESULT:      -6.2      1.113      2.865
REMARK  Name = 
REMARK  9 active torsions:
REMARK  status: ('A' for Active; 'I' for Inactive)
REMARK    1  A    between atoms: C_1  and  C_2
REMARK    2  A    between atoms: C_2  and  N_3
REMARK    3  A    between atoms: C_4  and  C_6
REMARK    4  A    between atoms: C_6  and  N_7
REMARK    5  A    between atoms: C_10  and  C_11
REMARK    6  A    between atoms: C_13  and  O_14
REMARK    7  A    between atoms: O_14  and  C_15
REMARK    8  A    between atoms: C_17  and  O_18
REMARK    9  A    between atoms: O_18  and  C_19
REMARK                            x       y       z     vdW  Elec       q    Type
REMARK                         _______ _______ _______ _____ _____    ______ ____
ROOT
ATOM      1  N   UNL     1       5.912   4.807  15.442  0.00  0.00    +0.000 NA
ATOM      2  C   UNL     1       5.671   6.230  15.749  0.00  0.00    +0.000 C 
ATOM      3  C   UNL     1       6.213   6.463  17.146  0.00  0.00    +0.000 C 
ATOM      4  C   UNL     1       5.974   5.142  17.869  0.00  0.00    +0.000 C 
ATOM      5  C   UNL     1       5.985   4.098  16.742  0.00  0.00    +0.000 C 
ENDROOT
BRANCH   4   6
ATOM      6  C   UNL     1       4.704   5.140  18.706  0.00  0.00    +0.000 A 
ATOM      7  C   UNL     1       4.273   4.002  19.405  0.00  0.00    +0.000 A 
ATOM      8  C   UNL     1       3.074   4.005  20.118  0.00  0.00    +0.000 A 
ATOM      9  C   UNL     1       2.323   5.171  20.200  0.00  0.00    +0.000 A 
ATOM     10  C   UNL     1       2.742   6.328  19.535  0.00  0.00    +0.000 A 
ATOM     11  C   UNL     1       3.919   6.303  18.779  0.00  0.00    +0.000 A 
BRANCH   8  12
ATOM     12  O   UNL     1       2.753   2.814  20.717  0.00  0.00    +0.000 OA
ATOM     13  C   UNL     1       1.379   2.662  21.048  0.00  0.00    +0.000 C 
ENDBRANCH   8  12
BRANCH  10  14
ATOM     14  O   UNL     1       1.920   7.410  19.699  0.00  0.00    +0.000 OA
ATOM     15  C   UNL     1       2.008   8.437  18.719  0.00  0.00    +0.000 C 
ENDBRANCH  10  14
ENDBRANCH   4   6
BRANCH   1  16
ATOM     16  C   UNL     1       7.168   4.633  14.676  0.00  0.00    +0.000 C 
BRANCH  16  18
ATOM     17  N   UNL     1       5.871   3.300  13.094  0.00  0.00    +0.000 N 
ATOM     18  C   UNL     1       6.861   4.255  13.222  0.00  0.00    +0.000 C 
ATOM     19  O   UNL     1       7.454   4.758  12.272  0.00  0.00    +0.000 OA
ATOM     20  H   UNL     1       5.321   3.119  13.929  0.00  0.00    +0.000 HD
BRANCH  17  22
ATOM     21  C   UNL     1       5.951   1.568  11.355  0.00  0.00    +0.000 C 
ATOM     22  C   UNL     1       5.359   2.893  11.806  0.00  0.00    +0.000 C 
ENDBRANCH  17  22
ENDBRANCH  16  18
ENDBRANCH   1  16
TORSDOF 6
ENDMDL
MODEL 8
REMARK VINA RESULT:      -6.2      1.937      3.756
REMARK  Name = 
REMARK  9 active torsions:
REMARK  status: ('A' for Active; 'I' for Inactive)
REMARK    1  A    between atoms: C_1  and  C_2
REMARK    2  A    between atoms: C_2  and  N_3
REMARK    3  A    between atoms: C_4  and  C_6
REMARK    4  A    between atoms: C_6  and  N_7
REMARK    5  A    between atoms: C_10  and  C_11
REMARK    6  A    between atoms: C_13  and  O_14
REMARK    7  A    between atoms: O_14  and  C_15
REMARK    8  A    between atoms: C_17  and  O_18
REMARK    9  A    between atoms: O_18  and  C_19
REMARK                            x       y       z     vdW  Elec       q    Type
REMARK                         _______ _______ _______ _____ _____    ______ ____
ROOT
ATOM      1  N   UNL     1       5.621   4.288  13.848  0.00  0.00    +0.000 NA
ATOM      2  C   UNL     1       6.473   5.350  14.415  0.00  0.00    +0.000 C 
ATOM      3  C   UNL     1       6.959   4.838  15.758  0.00  0.00    +0.000 C 
ATOM      4  C   UNL     1       5.808   3.980  16.272  0.00  0.00    +0.000 C 
ATOM      5  C   UNL     1       5.105   3.500  14.992  0.00  0.00    +0.000 C 
ENDROOT
BRANCH   4   6
ATOM      6  C   UNL     1       4.898   4.718  17.241  0.00  0.00    +0.000 A 
ATOM      7  C   UNL     1       4.379   4.106  18.392  0.00  0.00    +0.000 A 
ATOM      8  C   UNL     1       3.498   4.785  19.235  0.00  0.00    +0.000 A 
ATOM      9  C   UNL     1       3.181   6.112  18.976  0.00  0.00    +0.000 A 
ATOM     10  C   UNL     1       3.704   6.756  17.850  0.00  0.00    +0.000 A 
ATOM     11  C   UNL     1       4.546   6.054  16.981  0.00  0.00    +0.000 A 
BRANCH   8  12
ATOM     12  O   UNL     1       3.034   4.054  20.298  0.00  0.00    +0.000 OA
ATOM     13  C   UNL     1       3.392   2.678  20.281  0.00  0.00    +0.000 C 
ENDBRANCH   8  12
BRANCH  10  14
ATOM     14  O   UNL     1       3.322   8.063  17.711  0.00  0.00    +0.000 OA
ATOM     15  C   UNL     1       2.014   8.400  18.160  0.00  0.00    +0.000 C 
ENDBRANCH  10  14
ENDBRANCH   4   6
BRANCH   1  16
ATOM     16  C   UNL     1       6.391   3.427  12.920  0.00  0.00    +0.000 C 
BRANCH  16  18
ATOM     17  N   UNL     1       4.333   3.507  11.610  0.00  0.00    +0.000 N 
ATOM     18  C   UNL     1       5.453   2.756  11.909  0.00  0.00    +0.000 C 
ATOM     19  O   UNL     1       5.685   1.651  11.428  0.00  0.00    +0.000 OA
ATOM     20  H   UNL     1       4.358   4.478  11.907  0.00  0.00    +0.000 HD
BRANCH  17  22
ATOM     21  C   UNL     1       3.003   4.257   9.687  0.00  0.00    +0.000 C 
ATOM     22  C   UNL     1       3.385   3.102  10.597  0.00  0.00    +0.000 C 
ENDBRANCH  17  22
ENDBRANCH  16  18
ENDBRANCH   1  16
TORSDOF 6
ENDMDL
MODEL 9
REMARK VINA RESULT:      -6.1      1.364      2.987
REMARK  Name = 
REMARK  9 active torsions:
REMARK  status: ('A' for Active; 'I' for Inactive)
REMARK    1  A    between atoms: C_1  and  C_2
REMARK    2  A    between atoms: C_2  and  N_3
REMARK    3  A    between atoms: C_4  and  C_6
REMARK    4  A    between atoms: C_6  and  N_7
REMARK    5  A    between atoms: C_10  and  C_11
REMARK    6  A    between atoms: C_13  and  O_14
REMARK    7  A    between atoms: O_14  and  C_15
REMARK    8  A    between atoms: C_17  and  O_18
REMARK    9  A    between atoms: O_18  and  C_19
REMARK                            x       y       z     vdW  Elec       q    Type
REMARK                         _______ _______ _______ _____ _____    ______ ____
ROOT
ATOM      1  N   UNL     1       5.987   4.729  15.037  0.00  0.00    +0.000 NA
ATOM      2  C   UNL     1       5.343   6.046  15.193  0.00  0.00    +0.000 C 
ATOM      3  C   UNL     1       5.880   6.635  16.484  0.00  0.00    +0.000 C 
ATOM      4  C   UNL     1       6.108   5.426  17.384  0.00  0.00    +0.000 C 
ATOM      5  C   UNL     1       6.362   4.274  16.397  0.00  0.00    +0.000 C 
ENDROOT
BRANCH   4   6
ATOM      6  C   UNL     1       4.960   5.173  18.348  0.00  0.00    +0.000 A 
ATOM      7  C   UNL     1       4.725   3.912  18.916  0.00  0.00    +0.000 A 
ATOM      8  C   UNL     1       3.631   3.689  19.752  0.00  0.00    +0.000 A 
ATOM      9  C   UNL     1       2.796   4.746  20.091  0.00  0.00    +0.000 A 
ATOM     10  C   UNL     1       3.021   6.021  19.561  0.00  0.00    +0.000 A 
ATOM     11  C   UNL     1       4.090   6.225  18.682  0.00  0.00    +0.000 A 
BRANCH   8  12
ATOM     12  O   UNL     1       3.497   2.400  20.201  0.00  0.00    +0.000 OA
ATOM     13  C   UNL     1       4.707   1.783  20.623  0.00  0.00    +0.000 C 
ENDBRANCH   8  12
BRANCH  10  14
ATOM     14  O   UNL     1       2.133   6.976  19.976  0.00  0.00    +0.000 OA
ATOM     15  C   UNL     1       1.203   6.594  20.982  0.00  0.00    +0.000 C 
ENDBRANCH  10  14
ENDBRANCH   4   6
BRANCH   1  16
ATOM     16  C   UNL     1       7.181   4.820  14.164  0.00  0.00    +0.000 C 
BRANCH  16  18
ATOM     17  N   UNL     1       5.994   3.143  12.847  0.00  0.00    +0.000 N 
ATOM     18  C   UNL     1       6.895   4.189  12.796  0.00  0.00    +0.000 C 
ATOM     19  O   UNL     1       7.432   4.581  11.765  0.00  0.00    +0.000 OA
ATOM     20  H   UNL     1       5.469   3.052  13.712  0.00  0.00    +0.000 HD
BRANCH  17  22
ATOM     21  C   UNL     1       4.170   3.058  11.204  0.00  0.00    +0.000 C 
ATOM     22  C   UNL     1       5.507   2.491  11.653  0.00  0.00    +0.000 C 
ENDBRANCH  17  22
ENDBRANCH  16  18
ENDBRANCH   1  16
TORSDOF 6
ENDMDL
