MODEL 1
REMARK VINA RESULT:      -9.1      0.000      0.000
REMARK  Name = 
REMARK  7 active torsions:
REMARK  status: ('A' for Active; 'I' for Inactive)
REMARK    1  A    between atoms: C_1  and  C_2
REMARK    2  A    between atoms: N_4  and  C_5
REMARK    3  A    between atoms: C_8  and  N_9
REMARK    4  A    between atoms: C_10  and  C_12
REMARK    5  A    between atoms: C_13  and  C_14
REMARK    6  A    between atoms: C_23  and  C_24
REMARK    7  A    between atoms: C_25  and  C_26
REMARK                            x       y       z     vdW  Elec       q    Type
REMARK                         _______ _______ _______ _____ _____    ______ ____
ROOT
ATOM      1  N   UNL     1       2.857   6.313  19.943  0.00  0.00    +0.000 N 
ATOM      2  C   UNL     1       2.454   5.079  19.435  0.00  0.00    +0.000 C 
ATOM      3  O   UNL     1       1.458   4.917  18.741  0.00  0.00    +0.000 OA
ATOM      4  H   UNL     1       3.841   6.425  20.159  0.00  0.00    +0.000 HD
ENDROOT
BRANCH   1   8
ATOM      5  C   UNL     1       0.489   9.824  19.964  0.00  0.00    +0.000 A 
ATOM      6  C   UNL     1       0.513   8.970  21.060  0.00  0.00    +0.000 A 
ATOM      7  C   UNL     1       1.256   7.785  21.014  0.00  0.00    +0.000 A 
ATOM      8  C   UNL     1       2.050   7.471  19.904  0.00  0.00    +0.000 A 
ATOM      9  C   UNL     1       2.079   8.354  18.812  0.00  0.00    +0.000 A 
ATOM     10  C   UNL     1       2.893   8.135  17.569  0.00  0.00    +0.000 C 
ATOM     11  C   UNL     1       1.228   9.481  18.828  0.00  0.00    +0.000 A 
BRANCH   5  15
ATOM     12  C   UNL     1      -1.923  12.670  19.465  0.00  0.00    +0.000 C 
ATOM     13  C   UNL     1      -1.422  11.267  19.271  0.00  0.00    +0.000 C 
ATOM     14  O   UNL     1      -2.059  10.455  18.610  0.00  0.00    +0.000 OA
ATOM     15  N   UNL     1      -0.225  11.038  19.928  0.00  0.00    +0.000 N 
ATOM     16  H   UNL     1       0.092  11.764  20.559  0.00  0.00    +0.000 HD
ENDBRANCH   5  15
ENDBRANCH   1   8
BRANCH   2  17
ATOM     17  C   UNL     1       3.352   3.982  19.727  0.00  0.00    +0.000 A 
ATOM     18  C   UNL     1       4.540   3.537  19.040  0.00  0.00    +0.000 A 
ATOM     19  N   UNL     1       5.036   2.456  19.670  0.00  0.00    +0.000 NA
ATOM     20  O   UNL     1       4.164   2.133  20.677  0.00  0.00    +0.000 OA
ATOM     21  C   UNL     1       3.160   3.037  20.717  0.00  0.00    +0.000 A 
ATOM     22  C   UNL     1       2.111   2.802  21.726  0.00  0.00    +0.000 C 
BRANCH  18  23
ATOM     23  C   UNL     1       5.265   4.138  17.911  0.00  0.00    +0.000 A 
ATOM     24  C   UNL     1       4.845   3.848  16.598  0.00  0.00    +0.000 A 
ATOM     25  C   UNL     1       5.471   4.421  15.487  0.00  0.00    +0.000 A 
ATOM     26  C   UNL     1       6.511   5.323  15.658  0.00  0.00    +0.000 A 
ATOM     27  C   UNL     1       6.940   5.638  16.946  0.00  0.00    +0.000 A 
ATOM     28  C   UNL     1       6.332   5.049  18.068  0.00  0.00    +0.000 A 
ATOM     29 CL   UNL     1       7.010   5.485  19.601  0.00  0.00    +0.000 Cl
ENDBRANCH  18  23
ENDBRANCH   2  17
TORSDOF 4
ENDMDL
MODEL 2
REMARK VINA RESULT:      -9.1      1.028      1.028
REMARK  Name = 
REMARK  7 active torsions:
REMARK  status: ('A' for Active; 'I' for Inactive)
REMARK    1  A    between atoms: C_1  and  C_2
REMARK    2  A    between atoms: N_4  and  C_5
REMARK    3  A    between atoms: C_8  and  N_9
REMARK    4  A    between atoms: C_10  and  C_12
REMARK    5  A    between atoms: C_13  and  C_14
REMARK    6  A    between atoms: C_23  and  C_24
REMARK    7  A    between atoms: C_25  and  C_26
REMARK                            x       y       z     vdW  Elec       q    Type
REMARK                         _______ _______ _______ _____ _____    ______ ____
ROOT
ATOM      1  N   UNL     1       2.782   6.368  19.998  0.00  0.00    +0.000 N 
ATOM      2  C   UNL     1       2.438   5.171  19.371  0.00  0.00    +0.000 C 
ATOM      3  O   UNL     1       1.515   5.056  18.575  0.00  0.00    +0.000 OA
ATOM      4  H   UNL     1       3.740   6.465  20.315  0.00  0.00    +0.000 HD
ENDROOT
BRANCH   1   8
ATOM      5  C   UNL     1       0.413   9.878  20.019  0.00  0.00    +0.000 A 
ATOM      6  C   UNL     1       0.429   9.018  21.110  0.00  0.00    +0.000 A 
ATOM      7  C   UNL     1       1.172   7.833  21.064  0.00  0.00    +0.000 A 
ATOM      8  C   UNL     1       1.975   7.526  19.958  0.00  0.00    +0.000 A 
ATOM      9  C   UNL     1       2.013   8.415  18.872  0.00  0.00    +0.000 A 
ATOM     10  C   UNL     1       2.837   8.203  17.634  0.00  0.00    +0.000 C 
ATOM     11  C   UNL     1       1.162   9.542  18.887  0.00  0.00    +0.000 A 
BRANCH   5  15
ATOM     12  C   UNL     1      -0.913  13.386  20.344  0.00  0.00    +0.000 C 
ATOM     13  C   UNL     1       0.059  12.273  20.614  0.00  0.00    +0.000 C 
ATOM     14  O   UNL     1       1.053  12.457  21.306  0.00  0.00    +0.000 OA
ATOM     15  N   UNL     1      -0.300  11.093  19.984  0.00  0.00    +0.000 N 
ATOM     16  H   UNL     1      -1.064  11.147  19.322  0.00  0.00    +0.000 HD
ENDBRANCH   5  15
ENDBRANCH   1   8
BRANCH   2  17
ATOM     17  C   UNL     1       3.311   4.056  19.675  0.00  0.00    +0.000 A 
ATOM     18  C   UNL     1       4.492   3.582  18.996  0.00  0.00    +0.000 A 
ATOM     19  N   UNL     1       4.962   2.494  19.635  0.00  0.00    +0.000 NA
ATOM     20  O   UNL     1       4.078   2.196  20.639  0.00  0.00    +0.000 OA
ATOM     21  C   UNL     1       3.094   3.122  20.669  0.00  0.00    +0.000 A 
ATOM     22  C   UNL     1       2.035   2.916  21.674  0.00  0.00    +0.000 C 
BRANCH  18  23
ATOM     23  C   UNL     1       5.236   4.160  17.867  0.00  0.00    +0.000 A 
ATOM     24  C   UNL     1       4.823   3.860  16.553  0.00  0.00    +0.000 A 
ATOM     25  C   UNL     1       5.468   4.412  15.442  0.00  0.00    +0.000 A 
ATOM     26  C   UNL     1       6.518   5.303  15.613  0.00  0.00    +0.000 A 
ATOM     27  C   UNL     1       6.939   5.626  16.901  0.00  0.00    +0.000 A 
ATOM     28  C   UNL     1       6.313   5.058  18.024  0.00  0.00    +0.000 A 
ATOM     29 CL   UNL     1       6.983   5.503  19.558  0.00  0.00    +0.000 Cl
ENDBRANCH  18  23
ENDBRANCH   2  17
TORSDOF 4
ENDMDL
MODEL 3
REMARK VINA RESULT:      -9.0      1.461      1.789
REMARK  Name = 
REMARK  7 active torsions:
REMARK  status: ('A' for Active; 'I' for Inactive)
REMARK    1  A    between atoms: C_1  and  C_2
REMARK    2  A    between atoms: N_4  and  C_5
REMARK    3  A    between atoms: C_8  and  N_9
REMARK    4  A    between atoms: C_10  and  C_12
REMARK    5  A    between atoms: C_13  and  C_14
REMARK    6  A    between atoms: C_23  and  C_24
REMARK    7  A    between atoms: C_25  and  C_26
REMARK                            x       y       z     vdW  Elec       q    Type
REMARK                         _______ _______ _______ _____ _____    ______ ____
ROOT
ATOM      1  N   UNL     1       2.751   6.433  20.102  0.00  0.00    +0.000 N 
ATOM      2  C   UNL     1       2.405   5.208  19.534  0.00  0.00    +0.000 C 
ATOM      3  O   UNL     1       1.453   5.048  18.780  0.00  0.00    +0.000 OA
ATOM      4  H   UNL     1       3.719   6.558  20.377  0.00  0.00    +0.000 HD
ENDROOT
BRANCH   1   8
ATOM      5  C   UNL     1       0.315   9.897  20.095  0.00  0.00    +0.000 A 
ATOM      6  C   UNL     1       0.353   9.051  21.197  0.00  0.00    +0.000 A 
ATOM      7  C   UNL     1       1.119   7.880  21.160  0.00  0.00    +0.000 A 
ATOM      8  C   UNL     1       1.922   7.574  20.054  0.00  0.00    +0.000 A 
ATOM      9  C   UNL     1       1.937   8.451  18.957  0.00  0.00    +0.000 A 
ATOM     10  C   UNL     1       2.758   8.241  17.717  0.00  0.00    +0.000 C 
ATOM     11  C   UNL     1       1.064   9.562  18.964  0.00  0.00    +0.000 A 
BRANCH   5  15
ATOM     12  C   UNL     1      -1.086  13.377  20.403  0.00  0.00    +0.000 C 
ATOM     13  C   UNL     1      -0.096  12.283  20.689  0.00  0.00    +0.000 C 
ATOM     14  O   UNL     1       0.882  12.486  21.397  0.00  0.00    +0.000 OA
ATOM     15  N   UNL     1      -0.421  11.098  20.051  0.00  0.00    +0.000 N 
ATOM     16  H   UNL     1      -1.174  11.138  19.375  0.00  0.00    +0.000 HD
ENDBRANCH   5  15
ENDBRANCH   1   8
BRANCH   2  17
ATOM     17  C   UNL     1       3.309   4.120  19.842  0.00  0.00    +0.000 A 
ATOM     18  C   UNL     1       4.663   3.878  19.406  0.00  0.00    +0.000 A 
ATOM     19  N   UNL     1       5.097   2.721  19.938  0.00  0.00    +0.000 NA
ATOM     20  O   UNL     1       4.047   2.163  20.619  0.00  0.00    +0.000 OA
ATOM     21  C   UNL     1       2.980   2.992  20.567  0.00  0.00    +0.000 A 
ATOM     22  C   UNL     1       1.749   2.511  21.222  0.00  0.00    +0.000 C 
BRANCH  18  23
ATOM     23  C   UNL     1       5.574   4.725  18.621  0.00  0.00    +0.000 A 
ATOM     24  C   UNL     1       6.594   5.431  19.289  0.00  0.00    +0.000 A 
ATOM     25  C   UNL     1       7.513   6.220  18.591  0.00  0.00    +0.000 A 
ATOM     26  C   UNL     1       7.459   6.298  17.207  0.00  0.00    +0.000 A 
ATOM     27  C   UNL     1       6.467   5.601  16.519  0.00  0.00    +0.000 A 
ATOM     28  C   UNL     1       5.525   4.824  17.215  0.00  0.00    +0.000 A 
ATOM     29 CL   UNL     1       4.314   4.066  16.235  0.00  0.00    +0.000 Cl
ENDBRANCH  18  23
ENDBRANCH   2  17
TORSDOF 4
ENDMDL
MODEL 4
REMARK VINA RESULT:      -9.0      1.058      1.483
REMARK  Name = 
REMARK  7 active torsions:
REMARK  status: ('A' for Active; 'I' for Inactive)
REMARK    1  A    between atoms: C_1  and  C_2
REMARK    2  A    between atoms: N_4  and  C_5
REMARK    3  A    between atoms: C_8  and  N_9
REMARK    4  A    between atoms: C_10  and  C_12
REMARK    5  A    between atoms: C_13  and  C_14
REMARK    6  A    between atoms: C_23  and  C_24
REMARK    7  A    between atoms: C_25  and  C_26
REMARK                            x       y       z     vdW  Elec       q    Type
REMARK                         _______ _______ _______ _____ _____    ______ ____
ROOT
ATOM      1  N   UNL     1       2.769   6.430  20.081  0.00  0.00    +0.000 N 
ATOM      2  C   UNL     1       2.426   5.205  19.511  0.00  0.00    +0.000 C 
ATOM      3  O   UNL     1       1.477   5.043  18.755  0.00  0.00    +0.000 OA
ATOM      4  H   UNL     1       3.735   6.557  20.359  0.00  0.00    +0.000 HD
ENDROOT
BRANCH   1   8
ATOM      5  C   UNL     1       0.324   9.889  20.070  0.00  0.00    +0.000 A 
ATOM      6  C   UNL     1       0.361   9.041  21.170  0.00  0.00    +0.000 A 
ATOM      7  C   UNL     1       1.129   7.872  21.135  0.00  0.00    +0.000 A 
ATOM      8  C   UNL     1       1.936   7.570  20.031  0.00  0.00    +0.000 A 
ATOM      9  C   UNL     1       1.953   8.448  18.935  0.00  0.00    +0.000 A 
ATOM     10  C   UNL     1       2.779   8.240  17.698  0.00  0.00    +0.000 C 
ATOM     11  C   UNL     1       1.078   9.556  18.940  0.00  0.00    +0.000 A 
BRANCH   5  15
ATOM     12  C   UNL     1      -2.110  12.699  19.484  0.00  0.00    +0.000 C 
ATOM     13  C   UNL     1      -1.557  11.318  19.275  0.00  0.00    +0.000 C 
ATOM     14  O   UNL     1      -2.114  10.521  18.529  0.00  0.00    +0.000 OA
ATOM     15  N   UNL     1      -0.415  11.087  20.024  0.00  0.00    +0.000 N 
ATOM     16  H   UNL     1      -0.172  11.791  20.709  0.00  0.00    +0.000 HD
ENDBRANCH   5  15
ENDBRANCH   1   8
BRANCH   2  17
ATOM     17  C   UNL     1       3.332   4.119  19.821  0.00  0.00    +0.000 A 
ATOM     18  C   UNL     1       4.691   3.885  19.396  0.00  0.00    +0.000 A 
ATOM     19  N   UNL     1       5.126   2.726  19.925  0.00  0.00    +0.000 NA
ATOM     20  O   UNL     1       4.071   2.160  20.594  0.00  0.00    +0.000 OA
ATOM     21  C   UNL     1       3.002   2.985  20.537  0.00  0.00    +0.000 A 
ATOM     22  C   UNL     1       1.767   2.495  21.178  0.00  0.00    +0.000 C 
BRANCH  18  23
ATOM     23  C   UNL     1       5.605   4.739  18.624  0.00  0.00    +0.000 A 
ATOM     24  C   UNL     1       6.640   5.416  19.299  0.00  0.00    +0.000 A 
ATOM     25  C   UNL     1       7.563   6.210  18.612  0.00  0.00    +0.000 A 
ATOM     26  C   UNL     1       7.497   6.324  17.230  0.00  0.00    +0.000 A 
ATOM     27  C   UNL     1       6.490   5.656  16.536  0.00  0.00    +0.000 A 
ATOM     28  C   UNL     1       5.544   4.875  17.221  0.00  0.00    +0.000 A 
ATOM     29 CL   UNL     1       4.314   4.156  16.234  0.00  0.00    +0.000 Cl
ENDBRANCH  18  23
ENDBRANCH   2  17
TORSDOF 4
ENDMDL
MODEL 5
REMARK VINA RESULT:      -8.9      1.218      1.771
REMARK  Name = 
REMARK  7 active torsions:
REMARK  status: ('A' for Active; 'I' for Inactive)
REMARK    1  A    between atoms: C_1  and  C_2
REMARK    2  A    between atoms: N_4  and  C_5
REMARK    3  A    between atoms: C_8  and  N_9
REMARK    4  A    between atoms: C_10  and  C_12
REMARK    5  A    between atoms: C_13  and  C_14
REMARK    6  A    between atoms: C_23  and  C_24
REMARK    7  A    between atoms: C_25  and  C_26
REMARK                            x       y       z     vdW  Elec       q    Type
REMARK                         _______ _______ _______ _____ _____    ______ ____
ROOT
ATOM      1  N   UNL     1       3.008   6.573  19.418  0.00  0.00    +0.000 N 
ATOM      2  C   UNL     1       2.521   5.342  18.982  0.00  0.00    +0.000 C 
ATOM      3  O   UNL     1       1.575   5.212  18.216  0.00  0.00    +0.000 OA
ATOM      4  H   UNL     1       3.976   6.609  19.713  0.00  0.00    +0.000 HD
ENDROOT
BRANCH   1   8
ATOM      5  C   UNL     1       0.938  10.185  18.641  0.00  0.00    +0.000 A 
ATOM      6  C   UNL     1       1.806   9.641  17.702  0.00  0.00    +0.000 A 
ATOM      7  C   UNL     1       2.526   8.478  17.998  0.00  0.00    +0.000 A 
ATOM      8  C   UNL     1       2.332   7.795  19.205  0.00  0.00    +0.000 A 
ATOM      9  C   UNL     1       1.414   8.302  20.138  0.00  0.00    +0.000 A 
ATOM     10  C   UNL     1       1.112   7.660  21.462  0.00  0.00    +0.000 C 
ATOM     11  C   UNL     1       0.791   9.541  19.872  0.00  0.00    +0.000 A 
BRANCH   5  15
ATOM     12  C   UNL     1      -0.531  13.642  18.392  0.00  0.00    +0.000 C 
ATOM     13  C   UNL     1       0.501  12.634  18.812  0.00  0.00    +0.000 C 
ATOM     14  O   UNL     1       1.513  12.978  19.410  0.00  0.00    +0.000 OA
ATOM     15  N   UNL     1       0.170  11.346  18.422  0.00  0.00    +0.000 N 
ATOM     16  H   UNL     1      -0.622  11.250  17.798  0.00  0.00    +0.000 HD
ENDBRANCH   5  15
ENDBRANCH   1   8
BRANCH   2  17
ATOM     17  C   UNL     1       3.272   4.195  19.449  0.00  0.00    +0.000 A 
ATOM     18  C   UNL     1       4.469   3.585  18.924  0.00  0.00    +0.000 A 
ATOM     19  N   UNL     1       4.791   2.521  19.683  0.00  0.00    +0.000 NA
ATOM     20  O   UNL     1       3.798   2.366  20.614  0.00  0.00    +0.000 OA
ATOM     21  C   UNL     1       2.891   3.360  20.481  0.00  0.00    +0.000 A 
ATOM     22  C   UNL     1       1.731   3.309  21.390  0.00  0.00    +0.000 C 
BRANCH  18  23
ATOM     23  C   UNL     1       5.357   4.018  17.835  0.00  0.00    +0.000 A 
ATOM     24  C   UNL     1       5.082   3.593  16.521  0.00  0.00    +0.000 A 
ATOM     25  C   UNL     1       5.867   4.004  15.440  0.00  0.00    +0.000 A 
ATOM     26  C   UNL     1       6.928   4.877  15.639  0.00  0.00    +0.000 A 
ATOM     27  C   UNL     1       7.216   5.323  16.927  0.00  0.00    +0.000 A 
ATOM     28  C   UNL     1       6.446   4.896  18.022  0.00  0.00    +0.000 A 
ATOM     29 CL   UNL     1       6.960   5.481  19.570  0.00  0.00    +0.000 Cl
ENDBRANCH  18  23
ENDBRANCH   2  17
TORSDOF 4
ENDMDL
MODEL 6
REMARK VINA RESULT:      -8.5      0.646      1.434
REMARK  Name = 
REMARK  7 active torsions:
REMARK  status: ('A' for Active; 'I' for Inactive)
REMARK    1  A    between atoms: C_1  and  C_2
REMARK    2  A    between atoms: N_4  and  C_5
REMARK    3  A    between atoms: C_8  and  N_9
REMARK    4  A    between atoms: C_10  and  C_12
REMARK    5  A    between atoms: C_13  and  C_14
REMARK    6  A    between atoms: C_23  and  C_24
REMARK    7  A    between atoms: C_25  and  C_26
REMARK                            x       y       z     vdW  Elec       q    Type
REMARK                         _______ _______ _______ _____ _____    ______ ____
ROOT
ATOM      1  N   UNL     1       3.051   6.444  19.444  0.00  0.00    +0.000 N 
ATOM      2  C   UNL     1       2.560   5.183  19.109  0.00  0.00    +0.000 C 
ATOM      3  O   UNL     1       1.553   4.997  18.438  0.00  0.00    +0.000 OA
ATOM      4  H   UNL     1       4.041   6.515  19.649  0.00  0.00    +0.000 HD
ENDROOT
BRANCH   1   8
ATOM      5  C   UNL     1       0.828   9.970  18.695  0.00  0.00    +0.000 A 
ATOM      6  C   UNL     1       1.639   9.413  17.714  0.00  0.00    +0.000 A 
ATOM      7  C   UNL     1       2.412   8.281  17.996  0.00  0.00    +0.000 A 
ATOM      8  C   UNL     1       2.327   7.639  19.238  0.00  0.00    +0.000 A 
ATOM      9  C   UNL     1       1.467   8.158  20.220  0.00  0.00    +0.000 A 
ATOM     10  C   UNL     1       1.282   7.560  21.585  0.00  0.00    +0.000 C 
ATOM     11  C   UNL     1       0.791   9.370  19.957  0.00  0.00    +0.000 A 
BRANCH   5  15
ATOM     12  C   UNL     1      -1.916  12.488  18.146  0.00  0.00    +0.000 C 
ATOM     13  C   UNL     1      -1.358  11.101  18.300  0.00  0.00    +0.000 C 
ATOM     14  O   UNL     1      -2.091  10.120  18.271  0.00  0.00    +0.000 OA
ATOM     15  N   UNL     1       0.013  11.102  18.493  0.00  0.00    +0.000 N 
ATOM     16  H   UNL     1       0.449  12.002  18.649  0.00  0.00    +0.000 HD
ENDBRANCH   5  15
ENDBRANCH   1   8
BRANCH   2  17
ATOM     17  C   UNL     1       3.379   4.076  19.557  0.00  0.00    +0.000 A 
ATOM     18  C   UNL     1       4.590   3.525  19.001  0.00  0.00    +0.000 A 
ATOM     19  N   UNL     1       4.985   2.480  19.752  0.00  0.00    +0.000 NA
ATOM     20  O   UNL     1       4.026   2.280  20.711  0.00  0.00    +0.000 OA
ATOM     21  C   UNL     1       3.068   3.227  20.601  0.00  0.00    +0.000 A 
ATOM     22  C   UNL     1       1.938   3.122  21.542  0.00  0.00    +0.000 C 
BRANCH  18  23
ATOM     23  C   UNL     1       5.425   3.998  17.887  0.00  0.00    +0.000 A 
ATOM     24  C   UNL     1       5.122   3.572  16.578  0.00  0.00    +0.000 A 
ATOM     25  C   UNL     1       5.856   4.020  15.476  0.00  0.00    +0.000 A 
ATOM     26  C   UNL     1       6.890   4.929  15.647  0.00  0.00    +0.000 A 
ATOM     27  C   UNL     1       7.205   5.376  16.929  0.00  0.00    +0.000 A 
ATOM     28  C   UNL     1       6.488   4.913  18.045  0.00  0.00    +0.000 A 
ATOM     29 CL   UNL     1       7.031   5.506  19.580  0.00  0.00    +0.000 Cl
ENDBRANCH  18  23
ENDBRANCH   2  17
TORSDOF 4
ENDMDL
MODEL 7
REMARK VINA RESULT:      -8.4      1.601      2.316
REMARK  Name = 
REMARK  7 active torsions:
REMARK  status: ('A' for Active; 'I' for Inactive)
REMARK    1  A    between atoms: C_1  and  C_2
REMARK    2  A    between atoms: N_4  and  C_5
REMARK    3  A    between atoms: C_8  and  N_9
REMARK    4  A    between atoms: C_10  and  C_12
REMARK    5  A    between atoms: C_13  and  C_14
REMARK    6  A    between atoms: C_23  and  C_24
REMARK    7  A    between atoms: C_25  and  C_26
REMARK                            x       y       z     vdW  Elec       q    Type
REMARK                         _______ _______ _______ _____ _____    ______ ____
ROOT
ATOM      1  N   UNL     1       2.901   6.653  19.496  0.00  0.00    +0.000 N 
ATOM      2  C   UNL     1       2.417   5.420  19.059  0.00  0.00    +0.000 C 
ATOM      3  O   UNL     1       1.475   5.289  18.289  0.00  0.00    +0.000 OA
ATOM      4  H   UNL     1       3.868   6.689  19.797  0.00  0.00    +0.000 HD
ENDROOT
BRANCH   1   8
ATOM      5  C   UNL     1       0.829  10.261  18.709  0.00  0.00    +0.000 A 
ATOM      6  C   UNL     1       1.672   9.697  17.759  0.00  0.00    +0.000 A 
ATOM      7  C   UNL     1       2.394   8.536  18.057  0.00  0.00    +0.000 A 
ATOM      8  C   UNL     1       2.226   7.873  19.279  0.00  0.00    +0.000 A 
ATOM      9  C   UNL     1       1.332   8.400  20.226  0.00  0.00    +0.000 A 
ATOM     10  C   UNL     1       1.059   7.782  21.567  0.00  0.00    +0.000 C 
ATOM     11  C   UNL     1       0.708   9.638  19.954  0.00  0.00    +0.000 A 
BRANCH   5  15
ATOM     12  C   UNL     1      -0.614  13.723  18.398  0.00  0.00    +0.000 C 
ATOM     13  C   UNL     1       0.432  12.721  18.793  0.00  0.00    +0.000 C 
ATOM     14  O   UNL     1       1.488  13.077  19.303  0.00  0.00    +0.000 OA
ATOM     15  N   UNL     1       0.061  11.421  18.489  0.00  0.00    +0.000 N 
ATOM     16  H   UNL     1      -0.774  11.308  17.927  0.00  0.00    +0.000 HD
ENDBRANCH   5  15
ENDBRANCH   1   8
BRANCH   2  17
ATOM     17  C   UNL     1       3.166   4.274  19.530  0.00  0.00    +0.000 A 
ATOM     18  C   UNL     1       4.542   3.901  19.309  0.00  0.00    +0.000 A 
ATOM     19  N   UNL     1       4.789   2.734  19.933  0.00  0.00    +0.000 NA
ATOM     20  O   UNL     1       3.604   2.297  20.467  0.00  0.00    +0.000 OA
ATOM     21  C   UNL     1       2.635   3.209  20.231  0.00  0.00    +0.000 A 
ATOM     22  C   UNL     1       1.284   2.862  20.710  0.00  0.00    +0.000 C 
BRANCH  18  23
ATOM     23  C   UNL     1       5.629   4.634  18.644  0.00  0.00    +0.000 A 
ATOM     24  C   UNL     1       6.579   5.311  19.434  0.00  0.00    +0.000 A 
ATOM     25  C   UNL     1       7.656   5.991  18.859  0.00  0.00    +0.000 A 
ATOM     26  C   UNL     1       7.833   5.985  17.483  0.00  0.00    +0.000 A 
ATOM     27  C   UNL     1       6.915   5.314  16.677  0.00  0.00    +0.000 A 
ATOM     28  C   UNL     1       5.816   4.647  17.245  0.00  0.00    +0.000 A 
ATOM     29 CL   UNL     1       4.725   3.911  16.118  0.00  0.00    +0.000 Cl
ENDBRANCH  18  23
ENDBRANCH   2  17
TORSDOF 4
ENDMDL
MODEL 8
REMARK VINA RESULT:      -8.2      1.217      1.772
REMARK  Name = 
REMARK  7 active torsions:
REMARK  status: ('A' for Active; 'I' for Inactive)
REMARK    1  A    between atoms: C_1  and  C_2
REMARK    2  A    between atoms: N_4  and  C_5
REMARK    3  A    between atoms: C_8  and  N_9
REMARK    4  A    between atoms: C_10  and  C_12
REMARK    5  A    between atoms: C_13  and  C_14
REMARK    6  A    between atoms: C_23  and  C_24
REMARK    7  A    between atoms: C_25  and  C_26
REMARK                            x       y       z     vdW  Elec       q    Type
REMARK                         _______ _______ _______ _____ _____    ______ ____
ROOT
ATOM      1  N   UNL     1       2.845   6.231  18.804  0.00  0.00    +0.000 N 
ATOM      2  C   UNL     1       2.167   5.189  18.171  0.00  0.00    +0.000 C 
ATOM      3  O   UNL     1       1.182   5.345  17.461  0.00  0.00    +0.000 OA
ATOM      4  H   UNL     1       3.819   6.076  19.034  0.00  0.00    +0.000 HD
ENDROOT
BRANCH   1   8
ATOM      5  C   UNL     1       1.284  10.167  18.892  0.00  0.00    +0.000 A 
ATOM      6  C   UNL     1       1.980   9.697  17.785  0.00  0.00    +0.000 A 
ATOM      7  C   UNL     1       2.539   8.414  17.795  0.00  0.00    +0.000 A 
ATOM      8  C   UNL     1       2.345   7.549  18.880  0.00  0.00    +0.000 A 
ATOM      9  C   UNL     1       1.595   7.991  19.982  0.00  0.00    +0.000 A 
ATOM     10  C   UNL     1       1.311   7.160  21.200  0.00  0.00    +0.000 C 
ATOM     11  C   UNL     1       1.145   9.330  20.003  0.00  0.00    +0.000 A 
BRANCH   5  15
ATOM     12  C   UNL     1      -0.934  13.207  18.816  0.00  0.00    +0.000 C 
ATOM     13  C   UNL     1      -0.607  11.760  18.578  0.00  0.00    +0.000 C 
ATOM     14  O   UNL     1      -1.442  10.992  18.113  0.00  0.00    +0.000 OA
ATOM     15  N   UNL     1       0.684  11.439  18.962  0.00  0.00    +0.000 N 
ATOM     16  H   UNL     1       1.194  12.149  19.474  0.00  0.00    +0.000 HD
ENDBRANCH   5  15
ENDBRANCH   1   8
BRANCH   2  17
ATOM     17  C   UNL     1       2.762   3.882  18.353  0.00  0.00    +0.000 A 
ATOM     18  C   UNL     1       3.987   3.330  17.828  0.00  0.00    +0.000 A 
ATOM     19  N   UNL     1       4.118   2.060  18.253  0.00  0.00    +0.000 NA
ATOM     20  O   UNL     1       2.982   1.744  18.952  0.00  0.00    +0.000 OA
ATOM     21  C   UNL     1       2.171   2.823  19.016  0.00  0.00    +0.000 A 
ATOM     22  C   UNL     1       0.882   2.630  19.704  0.00  0.00    +0.000 C 
BRANCH  18  23
ATOM     23  C   UNL     1       5.061   3.970  17.053  0.00  0.00    +0.000 A 
ATOM     24  C   UNL     1       5.124   3.748  15.663  0.00  0.00    +0.000 A 
ATOM     25  C   UNL     1       6.099   4.361  14.870  0.00  0.00    +0.000 A 
ATOM     26  C   UNL     1       7.014   5.235  15.437  0.00  0.00    +0.000 A 
ATOM     27  C   UNL     1       6.968   5.481  16.808  0.00  0.00    +0.000 A 
ATOM     28  C   UNL     1       6.007   4.852  17.617  0.00  0.00    +0.000 A 
ATOM     29 CL   UNL     1       6.109   5.204  19.310  0.00  0.00    +0.000 Cl
ENDBRANCH  18  23
ENDBRANCH   2  17
TORSDOF 4
ENDMDL
MODEL 9
REMARK VINA RESULT:      -8.2      1.229      2.067
REMARK  Name = 
REMARK  7 active torsions:
REMARK  status: ('A' for Active; 'I' for Inactive)
REMARK    1  A    between atoms: C_1  and  C_2
REMARK    2  A    between atoms: N_4  and  C_5
REMARK    3  A    between atoms: C_8  and  N_9
REMARK    4  A    between atoms: C_10  and  C_12
REMARK    5  A    between atoms: C_13  and  C_14
REMARK    6  A    between atoms: C_23  and  C_24
REMARK    7  A    between atoms: C_25  and  C_26
REMARK                            x       y       z     vdW  Elec       q    Type
REMARK                         _______ _______ _______ _____ _____    ______ ____
ROOT
ATOM      1  N   UNL     1       2.956   6.488  19.428  0.00  0.00    +0.000 N 
ATOM      2  C   UNL     1       2.481   5.203  19.173  0.00  0.00    +0.000 C 
ATOM      3  O   UNL     1       1.443   4.964  18.569  0.00  0.00    +0.000 OA
ATOM      4  H   UNL     1       3.953   6.592  19.574  0.00  0.00    +0.000 HD
ENDROOT
BRANCH   1   8
ATOM      5  C   UNL     1       0.598   9.923  18.670  0.00  0.00    +0.000 A 
ATOM      6  C   UNL     1       1.344   9.330  17.660  0.00  0.00    +0.000 A 
ATOM      7  C   UNL     1       2.163   8.230  17.940  0.00  0.00    +0.000 A 
ATOM      8  C   UNL     1       2.190   7.656  19.218  0.00  0.00    +0.000 A 
ATOM      9  C   UNL     1       1.396   8.210  20.234  0.00  0.00    +0.000 A 
ATOM     10  C   UNL     1       1.331   7.684  21.639  0.00  0.00    +0.000 C 
ATOM     11  C   UNL     1       0.672   9.392  19.961  0.00  0.00    +0.000 A 
BRANCH   5  15
ATOM     12  C   UNL     1      -2.233  12.341  18.111  0.00  0.00    +0.000 C 
ATOM     13  C   UNL     1      -1.623  10.975  18.249  0.00  0.00    +0.000 C 
ATOM     14  O   UNL     1      -2.315   9.966  18.184  0.00  0.00    +0.000 OA
ATOM     15  N   UNL     1      -0.257  11.026  18.473  0.00  0.00    +0.000 N 
ATOM     16  H   UNL     1       0.138  11.939  18.657  0.00  0.00    +0.000 HD
ENDBRANCH   5  15
ENDBRANCH   1   8
BRANCH   2  17
ATOM     17  C   UNL     1       3.353   4.136  19.617  0.00  0.00    +0.000 A 
ATOM     18  C   UNL     1       4.747   3.889  19.336  0.00  0.00    +0.000 A 
ATOM     19  N   UNL     1       5.128   2.757  19.955  0.00  0.00    +0.000 NA
ATOM     20  O   UNL     1       4.015   2.217  20.544  0.00  0.00    +0.000 OA
ATOM     21  C   UNL     1       2.955   3.033  20.348  0.00  0.00    +0.000 A 
ATOM     22  C   UNL     1       1.665   2.567  20.889  0.00  0.00    +0.000 C 
BRANCH  18  23
ATOM     23  C   UNL     1       5.731   4.713  18.617  0.00  0.00    +0.000 A 
ATOM     24  C   UNL     1       6.701   5.417  19.358  0.00  0.00    +0.000 A 
ATOM     25  C   UNL     1       7.685   6.184  18.727  0.00  0.00    +0.000 A 
ATOM     26  C   UNL     1       7.747   6.241  17.343  0.00  0.00    +0.000 A 
ATOM     27  C   UNL     1       6.808   5.545  16.585  0.00  0.00    +0.000 A 
ATOM     28  C   UNL     1       5.800   4.791  17.210  0.00  0.00    +0.000 A 
ATOM     29 CL   UNL     1       4.666   4.031  16.144  0.00  0.00    +0.000 Cl
ENDBRANCH  18  23
ENDBRANCH   2  17
TORSDOF 4
ENDMDL
