MODEL 1
REMARK VINA RESULT:      -7.1      0.000      0.000
REMARK  Name = 
REMARK  7 active torsions:
REMARK  status: ('A' for Active; 'I' for Inactive)
REMARK    1  A    between atoms: C_1  and  O_2
REMARK    2  A    between atoms: O_2  and  C_3
REMARK    3  A    between atoms: C_5  and  C_6
REMARK    4  A    between atoms: N_8  and  C_9
REMARK    5  A    between atoms: C_9  and  C_10
REMARK    6  A    between atoms: C_19  and  O_20
REMARK    7  A    between atoms: O_20  and  C_21
REMARK                            x       y       z     vdW  Elec       q    Type
REMARK                         _______ _______ _______ _____ _____    ______ ____
ROOT
ATOM      1  C   UNL     1       2.849   4.575  19.570  0.00  0.00    +0.000 A 
ATOM      2  C   UNL     1       2.380   5.887  19.445  0.00  0.00    +0.000 A 
ATOM      3  C   UNL     1       2.818   6.691  18.394  0.00  0.00    +0.000 A 
ATOM      4  C   UNL     1       3.705   6.171  17.452  0.00  0.00    +0.000 A 
ATOM      5  C   UNL     1       4.185   4.853  17.562  0.00  0.00    +0.000 A 
ATOM      6 BR   UNL     1       5.393   4.379  16.168  0.00  0.00    +0.000 Br
ATOM      7  C   UNL     1       3.766   4.034  18.626  0.00  0.00    +0.000 A 
ENDROOT
BRANCH   3   8
ATOM      8  C   UNL     1       2.288   8.077  18.297  0.00  0.00    +0.000 C 
ATOM      9  O   UNL     1       2.444   8.714  17.262  0.00  0.00    +0.000 OA
ATOM     10  N   UNL     1       1.617   8.553  19.398  0.00  0.00    +0.000 N 
ATOM     11  H   UNL     1       1.434   7.956  20.191  0.00  0.00    +0.000 HD
BRANCH  10  12
ATOM     12  C   UNL     1       1.080   9.895  19.450  0.00  0.00    +0.000 C 
BRANCH  12  13
ATOM     13  C   UNL     1       0.339  10.127  20.741  0.00  0.00    +0.000 A 
ATOM     14  C   UNL     1       0.180   9.078  21.660  0.00  0.00    +0.000 A 
ATOM     15  C   UNL     1      -0.491   9.285  22.866  0.00  0.00    +0.000 A 
ATOM     16  C   UNL     1      -1.007  10.544  23.168  0.00  0.00    +0.000 A 
ATOM     17  C   UNL     1      -0.851  11.595  22.266  0.00  0.00    +0.000 A 
ATOM     18  C   UNL     1      -0.183  11.388  21.057  0.00  0.00    +0.000 A 
ENDBRANCH  12  13
ENDBRANCH  10  12
ENDBRANCH   3   8
BRANCH   1  20
ATOM     19  C   UNL     1       1.101   3.317  20.629  0.00  0.00    +0.000 C 
ATOM     20  O   UNL     1       2.462   3.731  20.588  0.00  0.00    +0.000 OA
ENDBRANCH   1  20
BRANCH   7  21
ATOM     21  O   UNL     1       4.102   2.739  18.920  0.00  0.00    +0.000 OA
ATOM     22  C   UNL     1       3.559   1.631  18.233  0.00  0.00    +0.000 C 
ENDBRANCH   7  21
TORSDOF 5
ENDMDL
MODEL 2
REMARK VINA RESULT:      -7.1      0.104      1.059
REMARK  Name = 
REMARK  7 active torsions:
REMARK  status: ('A' for Active; 'I' for Inactive)
REMARK    1  A    between atoms: C_1  and  O_2
REMARK    2  A    between atoms: O_2  and  C_3
REMARK    3  A    between atoms: C_5  and  C_6
REMARK    4  A    between atoms: N_8  and  C_9
REMARK    5  A    between atoms: C_9  and  C_10
REMARK    6  A    between atoms: C_19  and  O_20
REMARK    7  A    between atoms: O_20  and  C_21
REMARK                            x       y       z     vdW  Elec       q    Type
REMARK                         _______ _______ _______ _____ _____    ______ ____
ROOT
ATOM      1  C   UNL     1       2.927   4.649  19.537  0.00  0.00    +0.000 A 
ATOM      2  C   UNL     1       2.440   5.955  19.421  0.00  0.00    +0.000 A 
ATOM      3  C   UNL     1       2.830   6.756  18.349  0.00  0.00    +0.000 A 
ATOM      4  C   UNL     1       3.688   6.239  17.378  0.00  0.00    +0.000 A 
ATOM      5  C   UNL     1       4.186   4.927  17.479  0.00  0.00    +0.000 A 
ATOM      6 BR   UNL     1       5.346   4.457  16.044  0.00  0.00    +0.000 Br
ATOM      7  C   UNL     1       3.815   4.111  18.563  0.00  0.00    +0.000 A 
ENDROOT
BRANCH   3   8
ATOM      8  C   UNL     1       2.282   8.136  18.263  0.00  0.00    +0.000 C 
ATOM      9  O   UNL     1       2.414   8.777  17.227  0.00  0.00    +0.000 OA
ATOM     10  N   UNL     1       1.621   8.602  19.374  0.00  0.00    +0.000 N 
ATOM     11  H   UNL     1       1.458   8.001  20.169  0.00  0.00    +0.000 HD
BRANCH  10  12
ATOM     12  C   UNL     1       1.069   9.937  19.437  0.00  0.00    +0.000 C 
BRANCH  12  13
ATOM     13  C   UNL     1       0.350  10.160  20.742  0.00  0.00    +0.000 A 
ATOM     14  C   UNL     1      -0.195  11.418  21.041  0.00  0.00    +0.000 A 
ATOM     15  C   UNL     1      -0.876  11.631  22.241  0.00  0.00    +0.000 A 
ATOM     16  C   UNL     1      -1.024  10.587  23.152  0.00  0.00    +0.000 A 
ATOM     17  C   UNL     1      -0.492   9.331  22.864  0.00  0.00    +0.000 A 
ATOM     18  C   UNL     1       0.194   9.117  21.666  0.00  0.00    +0.000 A 
ENDBRANCH  12  13
ENDBRANCH  10  12
ENDBRANCH   3   8
BRANCH   1  20
ATOM     19  C   UNL     1       1.210   3.504  20.761  0.00  0.00    +0.000 C 
ATOM     20  O   UNL     1       2.587   3.808  20.574  0.00  0.00    +0.000 OA
ENDBRANCH   1  20
BRANCH   7  21
ATOM     21  O   UNL     1       4.176   2.822  18.853  0.00  0.00    +0.000 OA
ATOM     22  C   UNL     1       3.618   1.703  18.196  0.00  0.00    +0.000 C 
ENDBRANCH   7  21
TORSDOF 5
ENDMDL
MODEL 3
REMARK VINA RESULT:      -7.0      1.571      2.670
REMARK  Name = 
REMARK  7 active torsions:
REMARK  status: ('A' for Active; 'I' for Inactive)
REMARK    1  A    between atoms: C_1  and  O_2
REMARK    2  A    between atoms: O_2  and  C_3
REMARK    3  A    between atoms: C_5  and  C_6
REMARK    4  A    between atoms: N_8  and  C_9
REMARK    5  A    between atoms: C_9  and  C_10
REMARK    6  A    between atoms: C_19  and  O_20
REMARK    7  A    between atoms: O_20  and  C_21
REMARK                            x       y       z     vdW  Elec       q    Type
REMARK                         _______ _______ _______ _____ _____    ______ ____
ROOT
ATOM      1  C   UNL     1       4.192   4.885  17.890  0.00  0.00    +0.000 A 
ATOM      2  C   UNL     1       3.703   6.189  17.764  0.00  0.00    +0.000 A 
ATOM      3  C   UNL     1       2.717   6.655  18.632  0.00  0.00    +0.000 A 
ATOM      4  C   UNL     1       2.239   5.822  19.643  0.00  0.00    +0.000 A 
ATOM      5  C   UNL     1       2.721   4.508  19.785  0.00  0.00    +0.000 A 
ATOM      6 BR   UNL     1       1.908   3.565  21.226  0.00  0.00    +0.000 Br
ATOM      7  C   UNL     1       3.705   4.017  18.908  0.00  0.00    +0.000 A 
ENDROOT
BRANCH   3   8
ATOM      8  C   UNL     1       2.232   8.050  18.464  0.00  0.00    +0.000 C 
ATOM      9  O   UNL     1       2.440   8.642  17.411  0.00  0.00    +0.000 OA
ATOM     10  N   UNL     1       1.538   8.588  19.522  0.00  0.00    +0.000 N 
ATOM     11  H   UNL     1       1.313   8.028  20.332  0.00  0.00    +0.000 HD
BRANCH  10  12
ATOM     12  C   UNL     1       1.040   9.946  19.505  0.00  0.00    +0.000 C 
BRANCH  12  13
ATOM     13  C   UNL     1       0.291  10.259  20.774  0.00  0.00    +0.000 A 
ATOM     14  C   UNL     1      -0.458  11.441  20.877  0.00  0.00    +0.000 A 
ATOM     15  C   UNL     1      -1.168  11.733  22.043  0.00  0.00    +0.000 A 
ATOM     16  C   UNL     1      -1.139  10.845  23.116  0.00  0.00    +0.000 A 
ATOM     17  C   UNL     1      -0.403   9.665  23.025  0.00  0.00    +0.000 A 
ATOM     18  C   UNL     1       0.311   9.373  21.860  0.00  0.00    +0.000 A 
ENDBRANCH  12  13
ENDBRANCH  10  12
ENDBRANCH   3   8
BRANCH   1  20
ATOM     19  C   UNL     1       5.300   4.921  15.762  0.00  0.00    +0.000 C 
ATOM     20  O   UNL     1       5.161   4.360  17.062  0.00  0.00    +0.000 OA
ENDBRANCH   1  20
BRANCH   7  21
ATOM     21  O   UNL     1       4.307   2.788  18.866  0.00  0.00    +0.000 OA
ATOM     22  C   UNL     1       3.620   1.609  18.503  0.00  0.00    +0.000 C 
ENDBRANCH   7  21
TORSDOF 5
ENDMDL
MODEL 4
REMARK VINA RESULT:      -6.9      2.609      3.563
REMARK  Name = 
REMARK  7 active torsions:
REMARK  status: ('A' for Active; 'I' for Inactive)
REMARK    1  A    between atoms: C_1  and  O_2
REMARK    2  A    between atoms: O_2  and  C_3
REMARK    3  A    between atoms: C_5  and  C_6
REMARK    4  A    between atoms: N_8  and  C_9
REMARK    5  A    between atoms: C_9  and  C_10
REMARK    6  A    between atoms: C_19  and  O_20
REMARK    7  A    between atoms: O_20  and  C_21
REMARK                            x       y       z     vdW  Elec       q    Type
REMARK                         _______ _______ _______ _____ _____    ______ ____
ROOT
ATOM      1  C   UNL     1       3.362   5.518  18.275  0.00  0.00    +0.000 A 
ATOM      2  C   UNL     1       2.842   6.744  18.699  0.00  0.00    +0.000 A 
ATOM      3  C   UNL     1       2.096   6.822  19.874  0.00  0.00    +0.000 A 
ATOM      4  C   UNL     1       1.894   5.673  20.638  0.00  0.00    +0.000 A 
ATOM      5  C   UNL     1       2.411   4.431  20.227  0.00  0.00    +0.000 A 
ATOM      6 BR   UNL     1       1.992   3.012  21.427  0.00  0.00    +0.000 Br
ATOM      7  C   UNL     1       3.153   4.333  19.036  0.00  0.00    +0.000 A 
ENDROOT
BRANCH   3   8
ATOM      8  C   UNL     1       1.567   8.148  20.289  0.00  0.00    +0.000 C 
ATOM      9  O   UNL     1       1.298   8.352  21.467  0.00  0.00    +0.000 OA
ATOM     10  N   UNL     1       1.437   9.092  19.298  0.00  0.00    +0.000 N 
ATOM     11  H   UNL     1       1.760   8.905  18.360  0.00  0.00    +0.000 HD
BRANCH  10  12
ATOM     12  C   UNL     1       0.904  10.411  19.558  0.00  0.00    +0.000 C 
BRANCH  12  13
ATOM     13  C   UNL     1      -0.428  10.595  18.880  0.00  0.00    +0.000 A 
ATOM     14  C   UNL     1      -0.763   9.814  17.762  0.00  0.00    +0.000 A 
ATOM     15  C   UNL     1      -2.001   9.965  17.135  0.00  0.00    +0.000 A 
ATOM     16  C   UNL     1      -2.918  10.894  17.621  0.00  0.00    +0.000 A 
ATOM     17  C   UNL     1      -2.600  11.672  18.733  0.00  0.00    +0.000 A 
ATOM     18  C   UNL     1      -1.360  11.525  19.360  0.00  0.00    +0.000 A 
ENDBRANCH  12  13
ENDBRANCH  10  12
ENDBRANCH   3   8
BRANCH   1  20
ATOM     19  C   UNL     1       4.819   6.504  16.643  0.00  0.00    +0.000 C 
ATOM     20  O   UNL     1       4.102   5.372  17.121  0.00  0.00    +0.000 OA
ENDBRANCH   1  20
BRANCH   7  21
ATOM     21  O   UNL     1       3.741   3.241  18.457  0.00  0.00    +0.000 OA
ATOM     22  C   UNL     1       3.000   2.173  17.905  0.00  0.00    +0.000 C 
ENDBRANCH   7  21
TORSDOF 5
ENDMDL
MODEL 5
REMARK VINA RESULT:      -6.8      2.637      3.655
REMARK  Name = 
REMARK  7 active torsions:
REMARK  status: ('A' for Active; 'I' for Inactive)
REMARK    1  A    between atoms: C_1  and  O_2
REMARK    2  A    between atoms: O_2  and  C_3
REMARK    3  A    between atoms: C_5  and  C_6
REMARK    4  A    between atoms: N_8  and  C_9
REMARK    5  A    between atoms: C_9  and  C_10
REMARK    6  A    between atoms: C_19  and  O_20
REMARK    7  A    between atoms: O_20  and  C_21
REMARK                            x       y       z     vdW  Elec       q    Type
REMARK                         _______ _______ _______ _____ _____    ______ ____
ROOT
ATOM      1  C   UNL     1       3.313   5.515  18.306  0.00  0.00    +0.000 A 
ATOM      2  C   UNL     1       2.816   6.745  18.745  0.00  0.00    +0.000 A 
ATOM      3  C   UNL     1       2.064   6.821  19.917  0.00  0.00    +0.000 A 
ATOM      4  C   UNL     1       1.833   5.665  20.662  0.00  0.00    +0.000 A 
ATOM      5  C   UNL     1       2.327   4.419  20.235  0.00  0.00    +0.000 A 
ATOM      6 BR   UNL     1       1.870   2.991  21.410  0.00  0.00    +0.000 Br
ATOM      7  C   UNL     1       3.074   4.323  19.047  0.00  0.00    +0.000 A 
ENDROOT
BRANCH   3   8
ATOM      8  C   UNL     1       1.561   8.151  20.349  0.00  0.00    +0.000 C 
ATOM      9  O   UNL     1       1.414   8.385  21.543  0.00  0.00    +0.000 OA
ATOM     10  N   UNL     1       1.313   9.065  19.352  0.00  0.00    +0.000 N 
ATOM     11  H   UNL     1       1.539   8.855  18.390  0.00  0.00    +0.000 HD
BRANCH  10  12
ATOM     12  C   UNL     1       0.790  10.384  19.631  0.00  0.00    +0.000 C 
BRANCH  12  13
ATOM     13  C   UNL     1      -0.532  10.594  18.939  0.00  0.00    +0.000 A 
ATOM     14  C   UNL     1      -1.435  11.553  19.422  0.00  0.00    +0.000 A 
ATOM     15  C   UNL     1      -2.657  11.766  18.780  0.00  0.00    +0.000 A 
ATOM     16  C   UNL     1      -2.986  11.026  17.647  0.00  0.00    +0.000 A 
ATOM     17  C   UNL     1      -2.095  10.073  17.154  0.00  0.00    +0.000 A 
ATOM     18  C   UNL     1      -0.874   9.856  17.798  0.00  0.00    +0.000 A 
ENDBRANCH  12  13
ENDBRANCH  10  12
ENDBRANCH   3   8
BRANCH   1  20
ATOM     19  C   UNL     1       5.020   6.373  16.855  0.00  0.00    +0.000 C 
ATOM     20  O   UNL     1       4.057   5.371  17.154  0.00  0.00    +0.000 OA
ENDBRANCH   1  20
BRANCH   7  21
ATOM     21  O   UNL     1       3.642   3.227  18.455  0.00  0.00    +0.000 OA
ATOM     22  C   UNL     1       2.882   2.181  17.887  0.00  0.00    +0.000 C 
ENDBRANCH   7  21
TORSDOF 5
ENDMDL
MODEL 6
REMARK VINA RESULT:      -6.8      2.305      2.949
REMARK  Name = 
REMARK  7 active torsions:
REMARK  status: ('A' for Active; 'I' for Inactive)
REMARK    1  A    between atoms: C_1  and  O_2
REMARK    2  A    between atoms: O_2  and  C_3
REMARK    3  A    between atoms: C_5  and  C_6
REMARK    4  A    between atoms: N_8  and  C_9
REMARK    5  A    between atoms: C_9  and  C_10
REMARK    6  A    between atoms: C_19  and  O_20
REMARK    7  A    between atoms: O_20  and  C_21
REMARK                            x       y       z     vdW  Elec       q    Type
REMARK                         _______ _______ _______ _____ _____    ______ ____
ROOT
ATOM      1  C   UNL     1       2.758   5.836  19.545  0.00  0.00    +0.000 A 
ATOM      2  C   UNL     1       2.181   7.104  19.429  0.00  0.00    +0.000 A 
ATOM      3  C   UNL     1       2.555   7.954  18.389  0.00  0.00    +0.000 A 
ATOM      4  C   UNL     1       3.490   7.521  17.449  0.00  0.00    +0.000 A 
ATOM      5  C   UNL     1       4.080   6.248  17.550  0.00  0.00    +0.000 A 
ATOM      6 BR   UNL     1       5.333   5.893  16.160  0.00  0.00    +0.000 Br
ATOM      7  C   UNL     1       3.725   5.385  18.602  0.00  0.00    +0.000 A 
ENDROOT
BRANCH   3   8
ATOM      8  C   UNL     1       1.910   9.291  18.302  0.00  0.00    +0.000 C 
ATOM      9  O   UNL     1       2.299  10.098  17.466  0.00  0.00    +0.000 OA
ATOM     10  N   UNL     1       0.874   9.528  19.174  0.00  0.00    +0.000 N 
ATOM     11  H   UNL     1       0.531   8.797  19.781  0.00  0.00    +0.000 HD
BRANCH  10  12
ATOM     12  C   UNL     1       0.182  10.797  19.219  0.00  0.00    +0.000 C 
BRANCH  12  13
ATOM     13  C   UNL     1      -1.150  10.706  18.521  0.00  0.00    +0.000 A 
ATOM     14  C   UNL     1      -2.218  11.520  18.932  0.00  0.00    +0.000 A 
ATOM     15  C   UNL     1      -3.452  11.455  18.283  0.00  0.00    +0.000 A 
ATOM     16  C   UNL     1      -3.630  10.580  17.213  0.00  0.00    +0.000 A 
ATOM     17  C   UNL     1      -2.576   9.770  16.792  0.00  0.00    +0.000 A 
ATOM     18  C   UNL     1      -1.342   9.831  17.443  0.00  0.00    +0.000 A 
ENDBRANCH  12  13
ENDBRANCH  10  12
ENDBRANCH   3   8
BRANCH   1  20
ATOM     19  C   UNL     1       1.140   4.369  20.537  0.00  0.00    +0.000 C 
ATOM     20  O   UNL     1       2.437   4.951  20.551  0.00  0.00    +0.000 OA
ENDBRANCH   1  20
BRANCH   7  21
ATOM     21  O   UNL     1       4.168   4.121  18.886  0.00  0.00    +0.000 OA
ATOM     22  C   UNL     1       3.834   2.996  18.099  0.00  0.00    +0.000 C 
ENDBRANCH   7  21
TORSDOF 5
ENDMDL
MODEL 7
REMARK VINA RESULT:      -6.8      1.717      2.482
REMARK  Name = 
REMARK  7 active torsions:
REMARK  status: ('A' for Active; 'I' for Inactive)
REMARK    1  A    between atoms: C_1  and  O_2
REMARK    2  A    between atoms: O_2  and  C_3
REMARK    3  A    between atoms: C_5  and  C_6
REMARK    4  A    between atoms: N_8  and  C_9
REMARK    5  A    between atoms: C_9  and  C_10
REMARK    6  A    between atoms: C_19  and  O_20
REMARK    7  A    between atoms: O_20  and  C_21
REMARK                            x       y       z     vdW  Elec       q    Type
REMARK                         _______ _______ _______ _____ _____    ______ ____
ROOT
ATOM      1  C   UNL     1       4.650   4.545  18.941  0.00  0.00    +0.000 A 
ATOM      2  C   UNL     1       4.217   5.855  18.713  0.00  0.00    +0.000 A 
ATOM      3  C   UNL     1       2.922   6.236  19.059  0.00  0.00    +0.000 A 
ATOM      4  C   UNL     1       2.068   5.310  19.659  0.00  0.00    +0.000 A 
ATOM      5  C   UNL     1       2.488   3.989  19.897  0.00  0.00    +0.000 A 
ATOM      6 BR   UNL     1       1.143   2.913  20.711  0.00  0.00    +0.000 Br
ATOM      7  C   UNL     1       3.786   3.584  19.539  0.00  0.00    +0.000 A 
ENDROOT
BRANCH   3   8
ATOM      8  C   UNL     1       2.507   7.641  18.804  0.00  0.00    +0.000 C 
ATOM      9  O   UNL     1       2.903   8.216  17.796  0.00  0.00    +0.000 OA
ATOM     10  N   UNL     1       1.662   8.207  19.727  0.00  0.00    +0.000 N 
ATOM     11  H   UNL     1       1.290   7.662  20.492  0.00  0.00    +0.000 HD
BRANCH  10  12
ATOM     12  C   UNL     1       1.208   9.576  19.618  0.00  0.00    +0.000 C 
BRANCH  12  13
ATOM     13  C   UNL     1       0.403   9.973  20.827  0.00  0.00    +0.000 A 
ATOM     14  C   UNL     1       0.458   9.197  21.996  0.00  0.00    +0.000 A 
ATOM     15  C   UNL     1      -0.272   9.565  23.128  0.00  0.00    +0.000 A 
ATOM     16  C   UNL     1      -1.061  10.713  23.105  0.00  0.00    +0.000 A 
ATOM     17  C   UNL     1      -1.119  11.495  21.952  0.00  0.00    +0.000 A 
ATOM     18  C   UNL     1      -0.392  11.127  20.818  0.00  0.00    +0.000 A 
ENDBRANCH  12  13
ENDBRANCH  10  12
ENDBRANCH   3   8
BRANCH   1  20
ATOM     19  C   UNL     1       6.618   4.793  17.592  0.00  0.00    +0.000 C 
ATOM     20  O   UNL     1       5.914   4.102  18.617  0.00  0.00    +0.000 OA
ENDBRANCH   1  20
BRANCH   7  21
ATOM     21  O   UNL     1       4.393   2.364  19.679  0.00  0.00    +0.000 OA
ATOM     22  C   UNL     1       3.979   1.216  18.970  0.00  0.00    +0.000 C 
ENDBRANCH   7  21
TORSDOF 5
ENDMDL
MODEL 8
REMARK VINA RESULT:      -6.8      2.269      2.812
REMARK  Name = 
REMARK  7 active torsions:
REMARK  status: ('A' for Active; 'I' for Inactive)
REMARK    1  A    between atoms: C_1  and  O_2
REMARK    2  A    between atoms: O_2  and  C_3
REMARK    3  A    between atoms: C_5  and  C_6
REMARK    4  A    between atoms: N_8  and  C_9
REMARK    5  A    between atoms: C_9  and  C_10
REMARK    6  A    between atoms: C_19  and  O_20
REMARK    7  A    between atoms: O_20  and  C_21
REMARK                            x       y       z     vdW  Elec       q    Type
REMARK                         _______ _______ _______ _____ _____    ______ ____
ROOT
ATOM      1  C   UNL     1       2.773   5.820  19.500  0.00  0.00    +0.000 A 
ATOM      2  C   UNL     1       2.205   7.094  19.411  0.00  0.00    +0.000 A 
ATOM      3  C   UNL     1       2.563   7.951  18.372  0.00  0.00    +0.000 A 
ATOM      4  C   UNL     1       3.471   7.519  17.405  0.00  0.00    +0.000 A 
ATOM      5  C   UNL     1       4.051   6.239  17.478  0.00  0.00    +0.000 A 
ATOM      6 BR   UNL     1       5.267   5.887  16.056  0.00  0.00    +0.000 Br
ATOM      7  C   UNL     1       3.712   5.369  18.530  0.00  0.00    +0.000 A 
ENDROOT
BRANCH   3   8
ATOM      8  C   UNL     1       1.930   9.295  18.314  0.00  0.00    +0.000 C 
ATOM      9  O   UNL     1       2.309  10.108  17.479  0.00  0.00    +0.000 OA
ATOM     10  N   UNL     1       0.914   9.531  19.209  0.00  0.00    +0.000 N 
ATOM     11  H   UNL     1       0.576   8.796  19.814  0.00  0.00    +0.000 HD
BRANCH  10  12
ATOM     12  C   UNL     1       0.235  10.806  19.283  0.00  0.00    +0.000 C 
BRANCH  12  13
ATOM     13  C   UNL     1      -1.088  10.752  18.564  0.00  0.00    +0.000 A 
ATOM     14  C   UNL     1      -1.264   9.880  17.477  0.00  0.00    +0.000 A 
ATOM     15  C   UNL     1      -2.490   9.811  16.814  0.00  0.00    +0.000 A 
ATOM     16  C   UNL     1      -3.554  10.608  17.231  0.00  0.00    +0.000 A 
ATOM     17  C   UNL     1      -3.393  11.474  18.312  0.00  0.00    +0.000 A 
ATOM     18  C   UNL     1      -2.166  11.547  18.975  0.00  0.00    +0.000 A 
ENDBRANCH  12  13
ENDBRANCH  10  12
ENDBRANCH   3   8
BRANCH   1  20
ATOM     19  C   UNL     1       1.162   4.362  20.519  0.00  0.00    +0.000 C 
ATOM     20  O   UNL     1       2.468   4.927  20.505  0.00  0.00    +0.000 OA
ENDBRANCH   1  20
BRANCH   7  21
ATOM     21  O   UNL     1       4.150   4.098  18.790  0.00  0.00    +0.000 OA
ATOM     22  C   UNL     1       3.803   2.988  17.988  0.00  0.00    +0.000 C 
ENDBRANCH   7  21
TORSDOF 5
ENDMDL
MODEL 9
REMARK VINA RESULT:      -6.7      3.442      7.368
REMARK  Name = 
REMARK  7 active torsions:
REMARK  status: ('A' for Active; 'I' for Inactive)
REMARK    1  A    between atoms: C_1  and  O_2
REMARK    2  A    between atoms: O_2  and  C_3
REMARK    3  A    between atoms: C_5  and  C_6
REMARK    4  A    between atoms: N_8  and  C_9
REMARK    5  A    between atoms: C_9  and  C_10
REMARK    6  A    between atoms: C_19  and  O_20
REMARK    7  A    between atoms: O_20  and  C_21
REMARK                            x       y       z     vdW  Elec       q    Type
REMARK                         _______ _______ _______ _____ _____    ______ ____
ROOT
ATOM      1  C   UNL     1       0.340  10.768  21.487  0.00  0.00    +0.000 A 
ATOM      2  C   UNL     1       0.931   9.788  20.685  0.00  0.00    +0.000 A 
ATOM      3  C   UNL     1       1.153  10.029  19.330  0.00  0.00    +0.000 A 
ATOM      4  C   UNL     1       0.806  11.265  18.785  0.00  0.00    +0.000 A 
ATOM      5  C   UNL     1       0.212  12.264  19.578  0.00  0.00    +0.000 A 
ATOM      6 BR   UNL     1      -0.182  13.854  18.606  0.00  0.00    +0.000 Br
ATOM      7  C   UNL     1      -0.033  12.030  20.943  0.00  0.00    +0.000 A 
ENDROOT
BRANCH   3   8
ATOM      8  C   UNL     1       1.790   8.960  18.518  0.00  0.00    +0.000 C 
ATOM      9  O   UNL     1       1.963   9.133  17.316  0.00  0.00    +0.000 OA
ATOM     10  N   UNL     1       2.177   7.827  19.193  0.00  0.00    +0.000 N 
ATOM     11  H   UNL     1       2.097   7.770  20.198  0.00  0.00    +0.000 HD
BRANCH  10  12
ATOM     12  C   UNL     1       2.778   6.697  18.518  0.00  0.00    +0.000 C 
BRANCH  12  13
ATOM     13  C   UNL     1       2.118   5.409  18.937  0.00  0.00    +0.000 A 
ATOM     14  C   UNL     1       1.829   4.422  17.982  0.00  0.00    +0.000 A 
ATOM     15  C   UNL     1       1.232   3.219  18.363  0.00  0.00    +0.000 A 
ATOM     16  C   UNL     1       0.921   2.988  19.701  0.00  0.00    +0.000 A 
ATOM     17  C   UNL     1       1.207   3.959  20.660  0.00  0.00    +0.000 A 
ATOM     18  C   UNL     1       1.801   5.165  20.281  0.00  0.00    +0.000 A 
ENDBRANCH  12  13
ENDBRANCH  10  12
ENDBRANCH   3   8
BRANCH   1  20
ATOM     19  C   UNL     1      -0.098   9.263  23.303  0.00  0.00    +0.000 C 
ATOM     20  O   UNL     1       0.087  10.592  22.830  0.00  0.00    +0.000 OA
ENDBRANCH   1  20
BRANCH   7  21
ATOM     21  O   UNL     1      -0.593  12.850  21.886  0.00  0.00    +0.000 OA
ATOM     22  C   UNL     1      -1.963  13.193  21.888  0.00  0.00    +0.000 C 
ENDBRANCH   7  21
TORSDOF 5
ENDMDL
