MODEL 1
REMARK VINA RESULT:      -7.6      0.000      0.000
REMARK  Name = 
REMARK  5 active torsions:
REMARK  status: ('A' for Active; 'I' for Inactive)
REMARK    1  A    between atoms: C_8  and  C_9
REMARK    2  A    between atoms: C_11  and  N_12
REMARK    3  A    between atoms: C_17  and  S_18
REMARK    4  A    between atoms: S_18  and  C_19
REMARK    5  A    between atoms: C_19  and  C_20
REMARK                            x       y       z     vdW  Elec       q    Type
REMARK                         _______ _______ _______ _____ _____    ______ ____
ROOT
ATOM      1  C   UNL     1       3.212   5.633  18.544  0.00  0.00    +0.000 A 
ATOM      2  C   UNL     1       2.097   4.849  18.884  0.00  0.00    +0.000 A 
ATOM      3  C   UNL     1       2.282   3.572  19.426  0.00  0.00    +0.000 A 
ATOM      4  C   UNL     1       3.571   3.072  19.633  0.00  0.00    +0.000 A 
ATOM      5  C   UNL     1       4.680   3.861  19.311  0.00  0.00    +0.000 A 
ATOM      6  C   UNL     1       4.522   5.139  18.752  0.00  0.00    +0.000 A 
ENDROOT
BRANCH   1  14
ATOM      7  O   UNL     1       2.105   7.129  20.866  0.00  0.00    +0.000 OA
ATOM      8  C   UNL     1       1.831   7.944  20.003  0.00  0.00    +0.000 C 
ATOM      9  N   UNL     1       0.989   9.006  20.188  0.00  0.00    +0.000 N 
ATOM     10  C   UNL     1       0.798   9.862  19.148  0.00  0.00    +0.000 C 
ATOM     11  S   UNL     1      -0.292  11.107  19.171  0.00  0.00    +0.000 S 
ATOM     12  S   UNL     1       1.849   9.422  17.822  0.00  0.00    +0.000 S 
ATOM     13  C   UNL     1       2.326   7.948  18.596  0.00  0.00    +0.000 C 
ATOM     14  C   UNL     1       2.945   6.950  17.952  0.00  0.00    +0.000 C 
ATOM     15  H   UNL     1       0.504   9.119  21.065  0.00  0.00    +0.000 HD
ENDBRANCH   1  14
BRANCH   3  16
ATOM     16  N   UNL     1       1.117   2.761  19.798  0.00  0.00    +0.000 N 
ATOM     17  O   UNL     1       0.381   2.355  18.886  0.00  0.00    +0.000 OA
ATOM     18  O   UNL     1       0.929   2.542  21.003  0.00  0.00    +0.000 OA
ENDBRANCH   3  16
BRANCH   6  19
ATOM     19  S   UNL     1       5.985   6.147  18.419  0.00  0.00    +0.000 S 
BRANCH  19  20
ATOM     20  C   UNL     1       7.131   4.907  17.721  0.00  0.00    +0.000 C 
BRANCH  20  21
ATOM     21  C   UNL     1       6.797   4.505  16.299  0.00  0.00    +0.000 A 
ATOM     22  C   UNL     1       5.736   3.627  16.023  0.00  0.00    +0.000 A 
ATOM     23  C   UNL     1       5.372   3.337  14.700  0.00  0.00    +0.000 A 
ATOM     24  C   UNL     1       6.070   3.925  13.646  0.00  0.00    +0.000 A 
ATOM     25 CL   UNL     1       5.605   3.592  12.023  0.00  0.00    +0.000 Cl
ATOM     26  C   UNL     1       7.126   4.788  13.902  0.00  0.00    +0.000 A 
ATOM     27  C   UNL     1       7.492   5.077  15.220  0.00  0.00    +0.000 A 
ENDBRANCH  20  21
ENDBRANCH  19  20
ENDBRANCH   6  19
TORSDOF 5
ENDMDL
MODEL 2
REMARK VINA RESULT:      -7.6      0.211      1.142
REMARK  Name = 
REMARK  5 active torsions:
REMARK  status: ('A' for Active; 'I' for Inactive)
REMARK    1  A    between atoms: C_8  and  C_9
REMARK    2  A    between atoms: C_11  and  N_12
REMARK    3  A    between atoms: C_17  and  S_18
REMARK    4  A    between atoms: S_18  and  C_19
REMARK    5  A    between atoms: C_19  and  C_20
REMARK                            x       y       z     vdW  Elec       q    Type
REMARK                         _______ _______ _______ _____ _____    ______ ____
ROOT
ATOM      1  C   UNL     1       3.118   5.690  18.475  0.00  0.00    +0.000 A 
ATOM      2  C   UNL     1       1.979   4.915  18.751  0.00  0.00    +0.000 A 
ATOM      3  C   UNL     1       2.125   3.609  19.232  0.00  0.00    +0.000 A 
ATOM      4  C   UNL     1       3.398   3.070  19.442  0.00  0.00    +0.000 A 
ATOM      5  C   UNL     1       4.530   3.849  19.183  0.00  0.00    +0.000 A 
ATOM      6  C   UNL     1       4.413   5.157  18.685  0.00  0.00    +0.000 A 
ENDROOT
BRANCH   1  14
ATOM      7  O   UNL     1       1.971   7.087  20.839  0.00  0.00    +0.000 OA
ATOM      8  C   UNL     1       1.737   7.950  20.011  0.00  0.00    +0.000 C 
ATOM      9  N   UNL     1       0.909   9.018  20.226  0.00  0.00    +0.000 N 
ATOM     10  C   UNL     1       0.765   9.929  19.227  0.00  0.00    +0.000 C 
ATOM     11  S   UNL     1      -0.303  11.192  19.283  0.00  0.00    +0.000 S 
ATOM     12  S   UNL     1       1.846   9.536  17.910  0.00  0.00    +0.000 S 
ATOM     13  C   UNL     1       2.274   8.016  18.621  0.00  0.00    +0.000 C 
ATOM     14  C   UNL     1       2.892   7.041  17.943  0.00  0.00    +0.000 C 
ATOM     15  H   UNL     1       0.402   9.095  21.094  0.00  0.00    +0.000 HD
ENDBRANCH   1  14
BRANCH   3  16
ATOM     16  N   UNL     1       0.934   2.807  19.538  0.00  0.00    +0.000 N 
ATOM     17  O   UNL     1       0.597   2.703  20.726  0.00  0.00    +0.000 OA
ATOM     18  O   UNL     1       0.343   2.270  18.590  0.00  0.00    +0.000 OA
ENDBRANCH   3  16
BRANCH   6  19
ATOM     19  S   UNL     1       5.903   6.147  18.435  0.00  0.00    +0.000 S 
BRANCH  19  20
ATOM     20  C   UNL     1       7.029   4.925  17.673  0.00  0.00    +0.000 C 
BRANCH  20  21
ATOM     21  C   UNL     1       6.722   4.643  16.216  0.00  0.00    +0.000 A 
ATOM     22  C   UNL     1       7.503   5.197  15.189  0.00  0.00    +0.000 A 
ATOM     23  C   UNL     1       7.274   4.853  13.849  0.00  0.00    +0.000 A 
ATOM     24  C   UNL     1       6.258   3.952  13.531  0.00  0.00    +0.000 A 
ATOM     25 CL   UNL     1       5.994   3.507  11.890  0.00  0.00    +0.000 Cl
ATOM     26  C   UNL     1       5.471   3.403  14.534  0.00  0.00    +0.000 A 
ATOM     27  C   UNL     1       5.698   3.746  15.870  0.00  0.00    +0.000 A 
ENDBRANCH  20  21
ENDBRANCH  19  20
ENDBRANCH   6  19
TORSDOF 5
ENDMDL
MODEL 3
REMARK VINA RESULT:      -7.0      4.443      7.205
REMARK  Name = 
REMARK  5 active torsions:
REMARK  status: ('A' for Active; 'I' for Inactive)
REMARK    1  A    between atoms: C_8  and  C_9
REMARK    2  A    between atoms: C_11  and  N_12
REMARK    3  A    between atoms: C_17  and  S_18
REMARK    4  A    between atoms: S_18  and  C_19
REMARK    5  A    between atoms: C_19  and  C_20
REMARK                            x       y       z     vdW  Elec       q    Type
REMARK                         _______ _______ _______ _____ _____    ______ ____
ROOT
ATOM      1  C   UNL     1       5.381   4.504  16.763  0.00  0.00    +0.000 A 
ATOM      2  C   UNL     1       5.785   3.834  15.595  0.00  0.00    +0.000 A 
ATOM      3  C   UNL     1       5.829   4.523  14.378  0.00  0.00    +0.000 A 
ATOM      4  C   UNL     1       5.476   5.874  14.315  0.00  0.00    +0.000 A 
ATOM      5  C   UNL     1       5.091   6.543  15.481  0.00  0.00    +0.000 A 
ATOM      6  C   UNL     1       5.023   5.873  16.713  0.00  0.00    +0.000 A 
ENDROOT
BRANCH   1  14
ATOM      7  O   UNL     1       2.472   3.916  16.981  0.00  0.00    +0.000 OA
ATOM      8  C   UNL     1       2.798   3.531  18.090  0.00  0.00    +0.000 C 
ATOM      9  N   UNL     1       1.917   3.251  19.098  0.00  0.00    +0.000 N 
ATOM     10  C   UNL     1       2.415   2.794  20.278  0.00  0.00    +0.000 C 
ATOM     11  S   UNL     1       1.494   2.545  21.630  0.00  0.00    +0.000 S 
ATOM     12  S   UNL     1       4.139   2.545  20.133  0.00  0.00    +0.000 S 
ATOM     13  C   UNL     1       4.190   3.307  18.578  0.00  0.00    +0.000 C 
ATOM     14  C   UNL     1       5.327   3.713  18.000  0.00  0.00    +0.000 C 
ATOM     15  H   UNL     1       0.931   3.416  18.966  0.00  0.00    +0.000 HD
ENDBRANCH   1  14
BRANCH   3  16
ATOM     16  N   UNL     1       6.269   3.827  13.163  0.00  0.00    +0.000 N 
ATOM     17  O   UNL     1       7.323   4.205  12.630  0.00  0.00    +0.000 OA
ATOM     18  O   UNL     1       5.554   2.910  12.734  0.00  0.00    +0.000 OA
ENDBRANCH   3  16
BRANCH   6  19
ATOM     19  S   UNL     1       4.589   6.799  18.204  0.00  0.00    +0.000 S 
BRANCH  19  20
ATOM     20  C   UNL     1       3.102   7.705  17.649  0.00  0.00    +0.000 C 
BRANCH  20  21
ATOM     21  C   UNL     1       2.175   8.100  18.780  0.00  0.00    +0.000 A 
ATOM     22  C   UNL     1       2.102   7.340  19.958  0.00  0.00    +0.000 A 
ATOM     23  C   UNL     1       1.316   7.764  21.038  0.00  0.00    +0.000 A 
ATOM     24  C   UNL     1       0.597   8.956  20.943  0.00  0.00    +0.000 A 
ATOM     25 CL   UNL     1      -0.346   9.494  22.278  0.00  0.00    +0.000 Cl
ATOM     26  C   UNL     1       0.652   9.715  19.782  0.00  0.00    +0.000 A 
ATOM     27  C   UNL     1       1.434   9.291  18.704  0.00  0.00    +0.000 A 
ENDBRANCH  20  21
ENDBRANCH  19  20
ENDBRANCH   6  19
TORSDOF 5
ENDMDL
MODEL 4
REMARK VINA RESULT:      -6.9      5.158      7.521
REMARK  Name = 
REMARK  5 active torsions:
REMARK  status: ('A' for Active; 'I' for Inactive)
REMARK    1  A    between atoms: C_8  and  C_9
REMARK    2  A    between atoms: C_11  and  N_12
REMARK    3  A    between atoms: C_17  and  S_18
REMARK    4  A    between atoms: S_18  and  C_19
REMARK    5  A    between atoms: C_19  and  C_20
REMARK                            x       y       z     vdW  Elec       q    Type
REMARK                         _______ _______ _______ _____ _____    ______ ____
ROOT
ATOM      1  C   UNL     1      -1.556  11.284  19.253  0.00  0.00    +0.000 A 
ATOM      2  C   UNL     1      -2.747  11.606  18.579  0.00  0.00    +0.000 A 
ATOM      3  C   UNL     1      -3.046  10.987  17.360  0.00  0.00    +0.000 A 
ATOM      4  C   UNL     1      -2.169  10.048  16.810  0.00  0.00    +0.000 A 
ATOM      5  C   UNL     1      -0.994   9.715  17.491  0.00  0.00    +0.000 A 
ATOM      6  C   UNL     1      -0.662  10.333  18.707  0.00  0.00    +0.000 A 
ENDROOT
BRANCH   1  14
ATOM      7  O   UNL     1      -0.227  13.763  18.281  0.00  0.00    +0.000 OA
ATOM      8  C   UNL     1       0.008  13.908  19.468  0.00  0.00    +0.000 C 
ATOM      9  N   UNL     1       0.897  14.818  19.971  0.00  0.00    +0.000 N 
ATOM     10  C   UNL     1       1.037  14.900  21.321  0.00  0.00    +0.000 C 
ATOM     11  S   UNL     1       2.167  15.848  22.072  0.00  0.00    +0.000 S 
ATOM     12  S   UNL     1      -0.125  13.851  22.099  0.00  0.00    +0.000 S 
ATOM     13  C   UNL     1      -0.592  13.134  20.593  0.00  0.00    +0.000 C 
ATOM     14  C   UNL     1      -1.290  11.994  20.511  0.00  0.00    +0.000 C 
ATOM     15  H   UNL     1       1.450  15.382  19.344  0.00  0.00    +0.000 HD
ENDBRANCH   1  14
BRANCH   3  16
ATOM     16  N   UNL     1      -4.298  11.310  16.667  0.00  0.00    +0.000 N 
ATOM     17  O   UNL     1      -4.419  10.939  15.490  0.00  0.00    +0.000 OA
ATOM     18  O   UNL     1      -5.156  11.947  17.295  0.00  0.00    +0.000 OA
ENDBRANCH   3  16
BRANCH   6  19
ATOM     19  S   UNL     1       0.833   9.818  19.584  0.00  0.00    +0.000 S 
BRANCH  19  20
ATOM     20  C   UNL     1       1.897   9.275  18.201  0.00  0.00    +0.000 C 
BRANCH  20  21
ATOM     21  C   UNL     1       2.523   7.913  18.415  0.00  0.00    +0.000 A 
ATOM     22  C   UNL     1       3.501   7.417  17.538  0.00  0.00    +0.000 A 
ATOM     23  C   UNL     1       4.145   6.199  17.798  0.00  0.00    +0.000 A 
ATOM     24  C   UNL     1       3.812   5.470  18.940  0.00  0.00    +0.000 A 
ATOM     25 CL   UNL     1       4.622   3.989  19.274  0.00  0.00    +0.000 Cl
ATOM     26  C   UNL     1       2.841   5.943  19.812  0.00  0.00    +0.000 A 
ATOM     27  C   UNL     1       2.197   7.156  19.553  0.00  0.00    +0.000 A 
ENDBRANCH  20  21
ENDBRANCH  19  20
ENDBRANCH   6  19
TORSDOF 5
ENDMDL
MODEL 5
REMARK VINA RESULT:      -6.9      5.078      7.434
REMARK  Name = 
REMARK  5 active torsions:
REMARK  status: ('A' for Active; 'I' for Inactive)
REMARK    1  A    between atoms: C_8  and  C_9
REMARK    2  A    between atoms: C_11  and  N_12
REMARK    3  A    between atoms: C_17  and  S_18
REMARK    4  A    between atoms: S_18  and  C_19
REMARK    5  A    between atoms: C_19  and  C_20
REMARK                            x       y       z     vdW  Elec       q    Type
REMARK                         _______ _______ _______ _____ _____    ______ ____
ROOT
ATOM      1  C   UNL     1      -1.354  11.407  19.381  0.00  0.00    +0.000 A 
ATOM      2  C   UNL     1      -2.672  11.663  18.966  0.00  0.00    +0.000 A 
ATOM      3  C   UNL     1      -3.207  10.969  17.875  0.00  0.00    +0.000 A 
ATOM      4  C   UNL     1      -2.439  10.019  17.196  0.00  0.00    +0.000 A 
ATOM      5  C   UNL     1      -1.134   9.752  17.621  0.00  0.00    +0.000 A 
ATOM      6  C   UNL     1      -0.567  10.445  18.702  0.00  0.00    +0.000 A 
ENDROOT
BRANCH   1  14
ATOM      7  O   UNL     1      -0.332  13.845  18.014  0.00  0.00    +0.000 OA
ATOM      8  C   UNL     1       0.147  14.063  19.113  0.00  0.00    +0.000 C 
ATOM      9  N   UNL     1       1.097  15.015  19.364  0.00  0.00    +0.000 N 
ATOM     10  C   UNL     1       1.519  15.178  20.647  0.00  0.00    +0.000 C 
ATOM     11  S   UNL     1       2.755  16.186  21.086  0.00  0.00    +0.000 S 
ATOM     12  S   UNL     1       0.578  14.158  21.711  0.00  0.00    +0.000 S 
ATOM     13  C   UNL     1      -0.178  13.346  20.381  0.00  0.00    +0.000 C 
ATOM     14  C   UNL     1      -0.846  12.193  20.512  0.00  0.00    +0.000 C 
ATOM     15  H   UNL     1       1.488  15.550  18.604  0.00  0.00    +0.000 HD
ENDBRANCH   1  14
BRANCH   3  16
ATOM     16  N   UNL     1      -4.590  11.225  17.455  0.00  0.00    +0.000 N 
ATOM     17  O   UNL     1      -4.767  11.882  16.419  0.00  0.00    +0.000 OA
ATOM     18  O   UNL     1      -5.500  10.780  18.169  0.00  0.00    +0.000 OA
ENDBRANCH   3  16
BRANCH   6  19
ATOM     19  S   UNL     1       1.098  10.014  19.258  0.00  0.00    +0.000 S 
BRANCH  19  20
ATOM     20  C   UNL     1       1.720   9.054  17.832  0.00  0.00    +0.000 C 
BRANCH  20  21
ATOM     21  C   UNL     1       2.579   7.870  18.226  0.00  0.00    +0.000 A 
ATOM     22  C   UNL     1       2.290   7.113  19.372  0.00  0.00    +0.000 A 
ATOM     23  C   UNL     1       3.030   5.961  19.676  0.00  0.00    +0.000 A 
ATOM     24  C   UNL     1       4.065   5.562  18.831  0.00  0.00    +0.000 A 
ATOM     25 CL   UNL     1       4.955   4.133  19.187  0.00  0.00    +0.000 Cl
ATOM     26  C   UNL     1       4.368   6.304  17.698  0.00  0.00    +0.000 A 
ATOM     27  C   UNL     1       3.633   7.454  17.396  0.00  0.00    +0.000 A 
ENDBRANCH  20  21
ENDBRANCH  19  20
ENDBRANCH   6  19
TORSDOF 5
ENDMDL
MODEL 6
REMARK VINA RESULT:      -6.9      5.649     10.131
REMARK  Name = 
REMARK  5 active torsions:
REMARK  status: ('A' for Active; 'I' for Inactive)
REMARK    1  A    between atoms: C_8  and  C_9
REMARK    2  A    between atoms: C_11  and  N_12
REMARK    3  A    between atoms: C_17  and  S_18
REMARK    4  A    between atoms: S_18  and  C_19
REMARK    5  A    between atoms: C_19  and  C_20
REMARK                            x       y       z     vdW  Elec       q    Type
REMARK                         _______ _______ _______ _____ _____    ______ ____
ROOT
ATOM      1  C   UNL     1      -0.274  10.443  19.228  0.00  0.00    +0.000 A 
ATOM      2  C   UNL     1      -1.250  10.085  18.282  0.00  0.00    +0.000 A 
ATOM      3  C   UNL     1      -1.902  11.080  17.544  0.00  0.00    +0.000 A 
ATOM      4  C   UNL     1      -1.587  12.428  17.741  0.00  0.00    +0.000 A 
ATOM      5  C   UNL     1      -0.604  12.781  18.670  0.00  0.00    +0.000 A 
ATOM      6  C   UNL     1       0.055  11.804  19.434  0.00  0.00    +0.000 A 
ENDROOT
BRANCH   1  14
ATOM      7  O   UNL     1       2.019   9.714  17.477  0.00  0.00    +0.000 OA
ATOM      8  C   UNL     1       2.089   8.765  18.238  0.00  0.00    +0.000 C 
ATOM      9  N   UNL     1       2.845   7.649  18.008  0.00  0.00    +0.000 N 
ATOM     10  C   UNL     1       2.861   6.678  18.960  0.00  0.00    +0.000 C 
ATOM     11  S   UNL     1       3.611   5.215  18.769  0.00  0.00    +0.000 S 
ATOM     12  S   UNL     1       1.965   7.213  20.363  0.00  0.00    +0.000 S 
ATOM     13  C   UNL     1       1.372   8.615  19.538  0.00  0.00    +0.000 C 
ATOM     14  C   UNL     1       0.348   9.351  19.989  0.00  0.00    +0.000 C 
ATOM     15  H   UNL     1       3.344   7.548  17.138  0.00  0.00    +0.000 HD
ENDBRANCH   1  14
BRANCH   3  16
ATOM     16  N   UNL     1      -2.907  10.704  16.543  0.00  0.00    +0.000 N 
ATOM     17  O   UNL     1      -3.949  11.375  16.490  0.00  0.00    +0.000 OA
ATOM     18  O   UNL     1      -2.662   9.728  15.819  0.00  0.00    +0.000 OA
ENDBRANCH   3  16
BRANCH   6  19
ATOM     19  S   UNL     1       1.369  12.305  20.570  0.00  0.00    +0.000 S 
BRANCH  19  20
ATOM     20  C   UNL     1       0.605  13.744  21.398  0.00  0.00    +0.000 C 
BRANCH  20  21
ATOM     21  C   UNL     1      -0.595  13.387  22.252  0.00  0.00    +0.000 A 
ATOM     22  C   UNL     1      -1.516  14.367  22.655  0.00  0.00    +0.000 A 
ATOM     23  C   UNL     1      -2.674  14.014  23.362  0.00  0.00    +0.000 A 
ATOM     24  C   UNL     1      -2.916  12.675  23.668  0.00  0.00    +0.000 A 
ATOM     25 CL   UNL     1      -4.351  12.237  24.510  0.00  0.00    +0.000 Cl
ATOM     26  C   UNL     1      -2.010  11.696  23.283  0.00  0.00    +0.000 A 
ATOM     27  C   UNL     1      -0.854  12.047  22.581  0.00  0.00    +0.000 A 
ENDBRANCH  20  21
ENDBRANCH  19  20
ENDBRANCH   6  19
TORSDOF 5
ENDMDL
MODEL 7
REMARK VINA RESULT:      -6.9      3.679      6.989
REMARK  Name = 
REMARK  5 active torsions:
REMARK  status: ('A' for Active; 'I' for Inactive)
REMARK    1  A    between atoms: C_8  and  C_9
REMARK    2  A    between atoms: C_11  and  N_12
REMARK    3  A    between atoms: C_17  and  S_18
REMARK    4  A    between atoms: S_18  and  C_19
REMARK    5  A    between atoms: C_19  and  C_20
REMARK                            x       y       z     vdW  Elec       q    Type
REMARK                         _______ _______ _______ _____ _____    ______ ____
ROOT
ATOM      1  C   UNL     1       2.815   4.617  18.472  0.00  0.00    +0.000 A 
ATOM      2  C   UNL     1       2.765   3.569  19.407  0.00  0.00    +0.000 A 
ATOM      3  C   UNL     1       2.380   3.830  20.727  0.00  0.00    +0.000 A 
ATOM      4  C   UNL     1       2.041   5.128  21.122  0.00  0.00    +0.000 A 
ATOM      5  C   UNL     1       2.074   6.166  20.186  0.00  0.00    +0.000 A 
ATOM      6  C   UNL     1       2.471   5.935  18.859  0.00  0.00    +0.000 A 
ENDROOT
BRANCH   1  14
ATOM      7  O   UNL     1       5.771   4.834  18.725  0.00  0.00    +0.000 OA
ATOM      8  C   UNL     1       5.720   4.740  17.512  0.00  0.00    +0.000 C 
ATOM      9  N   UNL     1       6.770   4.998  16.674  0.00  0.00    +0.000 N 
ATOM     10  C   UNL     1       6.585   4.818  15.338  0.00  0.00    +0.000 C 
ATOM     11  S   UNL     1       7.709   5.220  14.193  0.00  0.00    +0.000 S 
ATOM     12  S   UNL     1       5.002   4.133  15.050  0.00  0.00    +0.000 S 
ATOM     13  C   UNL     1       4.529   4.350  16.702  0.00  0.00    +0.000 C 
ATOM     14  C   UNL     1       3.257   4.278  17.113  0.00  0.00    +0.000 C 
ATOM     15  H   UNL     1       7.640   5.345  17.048  0.00  0.00    +0.000 HD
ENDBRANCH   1  14
BRANCH   3  16
ATOM     16  N   UNL     1       2.312   2.731  21.697  0.00  0.00    +0.000 N 
ATOM     17  O   UNL     1       3.351   2.093  21.922  0.00  0.00    +0.000 OA
ATOM     18  O   UNL     1       1.215   2.497  22.225  0.00  0.00    +0.000 OA
ENDBRANCH   3  16
BRANCH   6  19
ATOM     19  S   UNL     1       2.428   7.296  17.670  0.00  0.00    +0.000 S 
BRANCH  19  20
ATOM     20  C   UNL     1       2.375   8.747  18.780  0.00  0.00    +0.000 C 
BRANCH  20  21
ATOM     21  C   UNL     1       1.017   9.414  18.843  0.00  0.00    +0.000 A 
ATOM     22  C   UNL     1       0.597  10.102  19.993  0.00  0.00    +0.000 A 
ATOM     23  C   UNL     1      -0.619  10.799  20.008  0.00  0.00    +0.000 A 
ATOM     24  C   UNL     1      -1.423  10.811  18.868  0.00  0.00    +0.000 A 
ATOM     25 CL   UNL     1      -2.902  11.690  18.876  0.00  0.00    +0.000 Cl
ATOM     26  C   UNL     1      -1.026  10.130  17.726  0.00  0.00    +0.000 A 
ATOM     27  C   UNL     1       0.185   9.432  17.711  0.00  0.00    +0.000 A 
ENDBRANCH  20  21
ENDBRANCH  19  20
ENDBRANCH   6  19
TORSDOF 5
ENDMDL
MODEL 8
REMARK VINA RESULT:      -6.8      5.091      7.765
REMARK  Name = 
REMARK  5 active torsions:
REMARK  status: ('A' for Active; 'I' for Inactive)
REMARK    1  A    between atoms: C_8  and  C_9
REMARK    2  A    between atoms: C_11  and  N_12
REMARK    3  A    between atoms: C_17  and  S_18
REMARK    4  A    between atoms: S_18  and  C_19
REMARK    5  A    between atoms: C_19  and  C_20
REMARK                            x       y       z     vdW  Elec       q    Type
REMARK                         _______ _______ _______ _____ _____    ______ ____
ROOT
ATOM      1  C   UNL     1      -1.383  12.169  19.079  0.00  0.00    +0.000 A 
ATOM      2  C   UNL     1      -2.753  12.176  18.764  0.00  0.00    +0.000 A 
ATOM      3  C   UNL     1      -3.315  11.095  18.077  0.00  0.00    +0.000 A 
ATOM      4  C   UNL     1      -2.524  10.005  17.704  0.00  0.00    +0.000 A 
ATOM      5  C   UNL     1      -1.165   9.991  18.035  0.00  0.00    +0.000 A 
ATOM      6  C   UNL     1      -0.572  11.069  18.710  0.00  0.00    +0.000 A 
ENDROOT
BRANCH   1  14
ATOM      7  O   UNL     1      -1.528  11.314  21.926  0.00  0.00    +0.000 OA
ATOM      8  C   UNL     1      -1.277  12.490  22.123  0.00  0.00    +0.000 C 
ATOM      9  N   UNL     1      -1.386  13.107  23.339  0.00  0.00    +0.000 N 
ATOM     10  C   UNL     1      -1.038  14.419  23.426  0.00  0.00    +0.000 C 
ATOM     11  S   UNL     1      -1.247  15.336  24.788  0.00  0.00    +0.000 S 
ATOM     12  S   UNL     1      -0.377  14.956  21.899  0.00  0.00    +0.000 S 
ATOM     13  C   UNL     1      -0.826  13.484  21.106  0.00  0.00    +0.000 C 
ATOM     14  C   UNL     1      -0.853  13.350  19.774  0.00  0.00    +0.000 C 
ATOM     15  H   UNL     1      -1.749  12.599  24.131  0.00  0.00    +0.000 HD
ENDBRANCH   1  14
BRANCH   3  16
ATOM     16  N   UNL     1      -4.749  11.096  17.764  0.00  0.00    +0.000 N 
ATOM     17  O   UNL     1      -5.132  11.787  16.809  0.00  0.00    +0.000 OA
ATOM     18  O   UNL     1      -5.496  10.416  18.483  0.00  0.00    +0.000 OA
ENDBRANCH   3  16
BRANCH   6  19
ATOM     19  S   UNL     1       1.171  10.973  19.177  0.00  0.00    +0.000 S 
BRANCH  19  20
ATOM     20  C   UNL     1       1.826   9.835  17.905  0.00  0.00    +0.000 C 
BRANCH  20  21
ATOM     21  C   UNL     1       2.261   8.493  18.457  0.00  0.00    +0.000 A 
ATOM     22  C   UNL     1       1.772   8.020  19.685  0.00  0.00    +0.000 A 
ATOM     23  C   UNL     1       2.101   6.736  20.143  0.00  0.00    +0.000 A 
ATOM     24  C   UNL     1       2.925   5.918  19.369  0.00  0.00    +0.000 A 
ATOM     25 CL   UNL     1       3.308   4.332  19.915  0.00  0.00    +0.000 Cl
ATOM     26  C   UNL     1       3.424   6.374  18.157  0.00  0.00    +0.000 A 
ATOM     27  C   UNL     1       3.097   7.655  17.702  0.00  0.00    +0.000 A 
ENDBRANCH  20  21
ENDBRANCH  19  20
ENDBRANCH   6  19
TORSDOF 5
ENDMDL
MODEL 9
REMARK VINA RESULT:      -6.8      5.452      7.732
REMARK  Name = 
REMARK  5 active torsions:
REMARK  status: ('A' for Active; 'I' for Inactive)
REMARK    1  A    between atoms: C_8  and  C_9
REMARK    2  A    between atoms: C_11  and  N_12
REMARK    3  A    between atoms: C_17  and  S_18
REMARK    4  A    between atoms: S_18  and  C_19
REMARK    5  A    between atoms: C_19  and  C_20
REMARK                            x       y       z     vdW  Elec       q    Type
REMARK                         _______ _______ _______ _____ _____    ______ ____
ROOT
ATOM      1  C   UNL     1      -1.606  11.443  19.366  0.00  0.00    +0.000 A 
ATOM      2  C   UNL     1      -2.743  11.707  18.583  0.00  0.00    +0.000 A 
ATOM      3  C   UNL     1      -2.936  11.018  17.381  0.00  0.00    +0.000 A 
ATOM      4  C   UNL     1      -2.006  10.065  16.954  0.00  0.00    +0.000 A 
ATOM      5  C   UNL     1      -0.885   9.790  17.743  0.00  0.00    +0.000 A 
ATOM      6  C   UNL     1      -0.659  10.478  18.946  0.00  0.00    +0.000 A 
ENDROOT
BRANCH   1  14
ATOM      7  O   UNL     1      -0.110  13.823  18.390  0.00  0.00    +0.000 OA
ATOM      8  C   UNL     1       0.006  14.037  19.584  0.00  0.00    +0.000 C 
ATOM      9  N   UNL     1       0.865  14.956  20.121  0.00  0.00    +0.000 N 
ATOM     10  C   UNL     1       0.868  15.120  21.471  0.00  0.00    +0.000 C 
ATOM     11  S   UNL     1       1.942  16.087  22.277  0.00  0.00    +0.000 S 
ATOM     12  S   UNL     1      -0.399  14.151  22.185  0.00  0.00    +0.000 S 
ATOM     13  C   UNL     1      -0.729  13.350  20.685  0.00  0.00    +0.000 C 
ATOM     14  C   UNL     1      -1.450  12.225  20.600  0.00  0.00    +0.000 C 
ATOM     15  H   UNL     1       1.497  15.466  19.522  0.00  0.00    +0.000 HD
ENDBRANCH   1  14
BRANCH   3  16
ATOM     16  N   UNL     1      -4.133  11.282  16.574  0.00  0.00    +0.000 N 
ATOM     17  O   UNL     1      -4.134  10.892  15.397  0.00  0.00    +0.000 OA
ATOM     18  O   UNL     1      -5.068  11.891  17.113  0.00  0.00    +0.000 OA
ENDBRANCH   3  16
BRANCH   6  19
ATOM     19  S   UNL     1       0.767  10.037  19.965  0.00  0.00    +0.000 S 
BRANCH  19  20
ATOM     20  C   UNL     1       1.847   9.212  18.743  0.00  0.00    +0.000 C 
BRANCH  20  21
ATOM     21  C   UNL     1       2.096   7.748  19.043  0.00  0.00    +0.000 A 
ATOM     22  C   UNL     1       1.825   7.211  20.312  0.00  0.00    +0.000 A 
ATOM     23  C   UNL     1       1.965   5.837  20.553  0.00  0.00    +0.000 A 
ATOM     24  C   UNL     1       2.377   4.992  19.522  0.00  0.00    +0.000 A 
ATOM     25 CL   UNL     1       2.522   3.302  19.809  0.00  0.00    +0.000 Cl
ATOM     26  C   UNL     1       2.657   5.510  18.265  0.00  0.00    +0.000 A 
ATOM     27  C   UNL     1       2.520   6.879  18.024  0.00  0.00    +0.000 A 
ENDBRANCH  20  21
ENDBRANCH  19  20
ENDBRANCH   6  19
TORSDOF 5
ENDMDL
