MODEL 1
REMARK VINA RESULT:      -7.5      0.000      0.000
REMARK  Name = 
REMARK  7 active torsions:
REMARK  status: ('A' for Active; 'I' for Inactive)
REMARK    1  A    between atoms: C_2  and  C_3
REMARK    2  A    between atoms: C_3  and  C_4
REMARK    3  A    between atoms: C_4  and  C_5
REMARK    4  A    between atoms: N_10  and  C_11
REMARK    5  A    between atoms: C_14  and  N_15
REMARK    6  A    between atoms: C_21  and  C_22
REMARK    7  A    between atoms: C_22  and  O_24
REMARK                            x       y       z     vdW  Elec       q    Type
REMARK                         _______ _______ _______ _____ _____    ______ ____
ROOT
ATOM      1  C   UNL     1       2.489   7.252  18.990  0.00  0.00    +0.000 A 
ATOM      2  C   UNL     1       2.365   8.177  17.972  0.00  0.00    +0.000 A 
ATOM      3  C   UNL     1       1.642   9.359  18.172  0.00  0.00    +0.000 A 
ATOM      4  C   UNL     1       0.993   9.692  19.382  0.00  0.00    +0.000 A 
ATOM      5  C   UNL     1       1.153   8.748  20.433  0.00  0.00    +0.000 A 
ATOM      6  C   UNL     1       1.910   7.558  20.224  0.00  0.00    +0.000 A 
ENDROOT
BRANCH   4   7
ATOM      7  N   UNL     1       0.252  10.861  19.414  0.00  0.00    +0.000 N 
ATOM      8  C   UNL     1      -1.189  10.960  19.122  0.00  0.00    +0.000 C 
ATOM      9  C   UNL     1      -1.429  12.032  18.039  0.00  0.00    +0.000 C 
ATOM     10  O   UNL     1      -0.861  13.304  18.392  0.00  0.00    +0.000 OA
ATOM     11  C   UNL     1       0.553  13.170  18.612  0.00  0.00    +0.000 C 
ATOM     12  C   UNL     1       0.844  12.176  19.748  0.00  0.00    +0.000 C 
ENDBRANCH   4   7
BRANCH   1  15
ATOM     13  O   UNL     1       1.486   4.828  17.670  0.00  0.00    +0.000 OA
ATOM     14  C   UNL     1       2.583   4.876  18.231  0.00  0.00    +0.000 C 
ATOM     15  N   UNL     1       3.132   6.005  18.822  0.00  0.00    +0.000 N 
ATOM     16  H   UNL     1       4.098   5.945  19.122  0.00  0.00    +0.000 HD
BRANCH  14  17
ATOM     17  C   UNL     1       3.450   3.638  18.357  0.00  0.00    +0.000 C 
BRANCH  17  18
ATOM     18  C   UNL     1       4.925   4.026  18.464  0.00  0.00    +0.000 C 
BRANCH  18  19
ATOM     19  C   UNL     1       5.545   4.222  17.112  0.00  0.00    +0.000 A 
ATOM     20  C   UNL     1       4.950   4.067  15.881  0.00  0.00    +0.000 A 
ATOM     21  C   UNL     1       5.850   4.326  14.800  0.00  0.00    +0.000 A 
ATOM     22  C   UNL     1       7.096   4.696  15.256  0.00  0.00    +0.000 A 
ATOM     23  S   UNL     1       7.173   4.716  16.964  0.00  0.00    +0.000 S 
ENDBRANCH  18  19
ENDBRANCH  17  18
ENDBRANCH  14  17
ENDBRANCH   1  15
BRANCH   5  24
ATOM     24  C   UNL     1       0.652   8.974  21.833  0.00  0.00    +0.000 C 
ATOM     25  O   UNL     1      -0.480   8.753  22.219  0.00  0.00    +0.000 OA
BRANCH  24  26
ATOM     26  O   UNL     1       1.591   9.471  22.681  0.00  0.00    +0.000 OA
ATOM     27  H   UNL     1       2.330   9.957  22.277  0.00  0.00    +0.000 HD
ENDBRANCH  24  26
ENDBRANCH   5  24
TORSDOF 7
ENDMDL
MODEL 2
REMARK VINA RESULT:      -7.3      3.286      8.256
REMARK  Name = 
REMARK  7 active torsions:
REMARK  status: ('A' for Active; 'I' for Inactive)
REMARK    1  A    between atoms: C_2  and  C_3
REMARK    2  A    between atoms: C_3  and  C_4
REMARK    3  A    between atoms: C_4  and  C_5
REMARK    4  A    between atoms: N_10  and  C_11
REMARK    5  A    between atoms: C_14  and  N_15
REMARK    6  A    between atoms: C_21  and  C_22
REMARK    7  A    between atoms: C_22  and  O_24
REMARK                            x       y       z     vdW  Elec       q    Type
REMARK                         _______ _______ _______ _____ _____    ______ ____
ROOT
ATOM      1  C   UNL     1       2.255   7.863  18.163  0.00  0.00    +0.000 A 
ATOM      2  C   UNL     1       3.474   8.181  17.597  0.00  0.00    +0.000 A 
ATOM      3  C   UNL     1       4.393   7.175  17.280  0.00  0.00    +0.000 A 
ATOM      4  C   UNL     1       4.168   5.799  17.512  0.00  0.00    +0.000 A 
ATOM      5  C   UNL     1       2.899   5.480  18.066  0.00  0.00    +0.000 A 
ATOM      6  C   UNL     1       1.961   6.512  18.363  0.00  0.00    +0.000 A 
ENDROOT
BRANCH   4   7
ATOM      7  N   UNL     1       5.197   4.921  17.217  0.00  0.00    +0.000 N 
ATOM      8  C   UNL     1       6.163   4.387  18.193  0.00  0.00    +0.000 C 
ATOM      9  C   UNL     1       7.601   4.646  17.698  0.00  0.00    +0.000 C 
ATOM     10  O   UNL     1       7.827   4.130  16.377  0.00  0.00    +0.000 OA
ATOM     11  C   UNL     1       6.901   4.718  15.450  0.00  0.00    +0.000 C 
ATOM     12  C   UNL     1       5.448   4.411  15.850  0.00  0.00    +0.000 C 
ENDBRANCH   4   7
BRANCH   1  15
ATOM     13  O   UNL     1       1.502   8.635  20.895  0.00  0.00    +0.000 OA
ATOM     14  C   UNL     1       0.972   9.123  19.895  0.00  0.00    +0.000 C 
ATOM     15  N   UNL     1       1.323   8.839  18.582  0.00  0.00    +0.000 N 
ATOM     16  H   UNL     1       0.906   9.413  17.858  0.00  0.00    +0.000 HD
BRANCH  14  17
ATOM     17  C   UNL     1      -0.184  10.096  20.020  0.00  0.00    +0.000 C 
BRANCH  17  18
ATOM     18  C   UNL     1      -0.289  10.968  18.769  0.00  0.00    +0.000 C 
BRANCH  18  19
ATOM     19  C   UNL     1      -1.591  10.755  18.054  0.00  0.00    +0.000 A 
ATOM     20  C   UNL     1      -1.863   9.857  17.047  0.00  0.00    +0.000 A 
ATOM     21  C   UNL     1      -3.216   9.940  16.590  0.00  0.00    +0.000 A 
ATOM     22  C   UNL     1      -3.932  10.885  17.291  0.00  0.00    +0.000 A 
ATOM     23  S   UNL     1      -2.974  11.666  18.473  0.00  0.00    +0.000 S 
ENDBRANCH  18  19
ENDBRANCH  17  18
ENDBRANCH  14  17
ENDBRANCH   1  15
BRANCH   5  24
ATOM     24  C   UNL     1       2.414   4.070  18.268  0.00  0.00    +0.000 C 
ATOM     25  O   UNL     1       2.749   3.334  19.176  0.00  0.00    +0.000 OA
BRANCH  24  26
ATOM     26  O   UNL     1       1.536   3.648  17.320  0.00  0.00    +0.000 OA
ATOM     27  H   UNL     1       0.762   4.215  17.158  0.00  0.00    +0.000 HD
ENDBRANCH  24  26
ENDBRANCH   5  24
TORSDOF 7
ENDMDL
MODEL 3
REMARK VINA RESULT:      -7.3      1.852      3.076
REMARK  Name = 
REMARK  7 active torsions:
REMARK  status: ('A' for Active; 'I' for Inactive)
REMARK    1  A    between atoms: C_2  and  C_3
REMARK    2  A    between atoms: C_3  and  C_4
REMARK    3  A    between atoms: C_4  and  C_5
REMARK    4  A    between atoms: N_10  and  C_11
REMARK    5  A    between atoms: C_14  and  N_15
REMARK    6  A    between atoms: C_21  and  C_22
REMARK    7  A    between atoms: C_22  and  O_24
REMARK                            x       y       z     vdW  Elec       q    Type
REMARK                         _______ _______ _______ _____ _____    ______ ____
ROOT
ATOM      1  C   UNL     1       2.605   7.102  18.335  0.00  0.00    +0.000 A 
ATOM      2  C   UNL     1       2.526   8.173  17.465  0.00  0.00    +0.000 A 
ATOM      3  C   UNL     1       1.877   9.351  17.850  0.00  0.00    +0.000 A 
ATOM      4  C   UNL     1       1.260   9.539  19.108  0.00  0.00    +0.000 A 
ATOM      5  C   UNL     1       1.374   8.443  20.005  0.00  0.00    +0.000 A 
ATOM      6  C   UNL     1       2.058   7.255  19.610  0.00  0.00    +0.000 A 
ENDROOT
BRANCH   4   7
ATOM      7  N   UNL     1       0.590  10.731  19.324  0.00  0.00    +0.000 N 
ATOM      8  C   UNL     1      -0.870  10.910  19.243  0.00  0.00    +0.000 C 
ATOM      9  C   UNL     1      -1.201  12.070  18.282  0.00  0.00    +0.000 C 
ATOM     10  O   UNL     1      -0.527  13.288  18.641  0.00  0.00    +0.000 OA
ATOM     11  C   UNL     1       0.895  13.081  18.653  0.00  0.00    +0.000 C 
ATOM     12  C   UNL     1       1.287  11.992  19.665  0.00  0.00    +0.000 C 
ENDBRANCH   4   7
BRANCH   1  15
ATOM     13  O   UNL     1       1.271   4.712  17.269  0.00  0.00    +0.000 OA
ATOM     14  C   UNL     1       2.477   4.745  17.522  0.00  0.00    +0.000 C 
ATOM     15  N   UNL     1       3.171   5.859  17.974  0.00  0.00    +0.000 N 
ATOM     16  H   UNL     1       4.182   5.790  18.007  0.00  0.00    +0.000 HD
BRANCH  14  17
ATOM     17  C   UNL     1       3.338   3.504  17.385  0.00  0.00    +0.000 C 
BRANCH  17  18
ATOM     18  C   UNL     1       2.621   2.288  17.971  0.00  0.00    +0.000 C 
BRANCH  18  19
ATOM     19  C   UNL     1       2.315   2.474  19.428  0.00  0.00    +0.000 A 
ATOM     20  C   UNL     1       1.078   2.567  20.025  0.00  0.00    +0.000 A 
ATOM     21  C   UNL     1       1.166   2.757  21.440  0.00  0.00    +0.000 A 
ATOM     22  C   UNL     1       2.474   2.774  21.870  0.00  0.00    +0.000 A 
ATOM     23  S   UNL     1       3.575   2.576  20.576  0.00  0.00    +0.000 S 
ENDBRANCH  18  19
ENDBRANCH  17  18
ENDBRANCH  14  17
ENDBRANCH   1  15
BRANCH   5  24
ATOM     24  C   UNL     1       0.902   8.488  21.432  0.00  0.00    +0.000 C 
ATOM     25  O   UNL     1      -0.242   8.299  21.801  0.00  0.00    +0.000 OA
BRANCH  24  26
ATOM     26  O   UNL     1       1.882   8.773  22.329  0.00  0.00    +0.000 OA
ATOM     27  H   UNL     1       1.964   8.174  23.091  0.00  0.00    +0.000 HD
ENDBRANCH  24  26
ENDBRANCH   5  24
TORSDOF 7
ENDMDL
MODEL 4
REMARK VINA RESULT:      -7.2      0.615      1.320
REMARK  Name = 
REMARK  7 active torsions:
REMARK  status: ('A' for Active; 'I' for Inactive)
REMARK    1  A    between atoms: C_2  and  C_3
REMARK    2  A    between atoms: C_3  and  C_4
REMARK    3  A    between atoms: C_4  and  C_5
REMARK    4  A    between atoms: N_10  and  C_11
REMARK    5  A    between atoms: C_14  and  N_15
REMARK    6  A    between atoms: C_21  and  C_22
REMARK    7  A    between atoms: C_22  and  O_24
REMARK                            x       y       z     vdW  Elec       q    Type
REMARK                         _______ _______ _______ _____ _____    ______ ____
ROOT
ATOM      1  C   UNL     1       2.527   7.343  18.928  0.00  0.00    +0.000 A 
ATOM      2  C   UNL     1       2.496   8.188  17.835  0.00  0.00    +0.000 A 
ATOM      3  C   UNL     1       1.782   9.391  17.890  0.00  0.00    +0.000 A 
ATOM      4  C   UNL     1       1.051   9.824  19.019  0.00  0.00    +0.000 A 
ATOM      5  C   UNL     1       1.116   8.963  20.147  0.00  0.00    +0.000 A 
ATOM      6  C   UNL     1       1.865   7.751  20.087  0.00  0.00    +0.000 A 
ENDROOT
BRANCH   4   7
ATOM      7  N   UNL     1       0.331  11.001  18.905  0.00  0.00    +0.000 N 
ATOM      8  C   UNL     1       0.875  12.353  19.126  0.00  0.00    +0.000 C 
ATOM      9  C   UNL     1       0.002  13.105  20.151  0.00  0.00    +0.000 C 
ATOM     10  O   UNL     1      -1.383  13.136  19.773  0.00  0.00    +0.000 OA
ATOM     11  C   UNL     1      -1.886  11.799  19.623  0.00  0.00    +0.000 C 
ATOM     12  C   UNL     1      -1.104  11.032  18.544  0.00  0.00    +0.000 C 
ENDBRANCH   4   7
BRANCH   1  15
ATOM     13  O   UNL     1       1.547   4.818  17.794  0.00  0.00    +0.000 OA
ATOM     14  C   UNL     1       2.619   4.906  18.396  0.00  0.00    +0.000 C 
ATOM     15  N   UNL     1       3.158   6.079  18.904  0.00  0.00    +0.000 N 
ATOM     16  H   UNL     1       4.110   6.037  19.251  0.00  0.00    +0.000 HD
BRANCH  14  17
ATOM     17  C   UNL     1       3.461   3.676  18.674  0.00  0.00    +0.000 C 
BRANCH  17  18
ATOM     18  C   UNL     1       4.940   4.051  18.775  0.00  0.00    +0.000 C 
BRANCH  18  19
ATOM     19  C   UNL     1       5.568   4.195  17.420  0.00  0.00    +0.000 A 
ATOM     20  C   UNL     1       5.046   3.817  16.204  0.00  0.00    +0.000 A 
ATOM     21  C   UNL     1       5.932   4.096  15.117  0.00  0.00    +0.000 A 
ATOM     22  C   UNL     1       7.089   4.705  15.549  0.00  0.00    +0.000 A 
ATOM     23  S   UNL     1       7.104   4.920  17.245  0.00  0.00    +0.000 S 
ENDBRANCH  18  19
ENDBRANCH  17  18
ENDBRANCH  14  17
ENDBRANCH   1  15
BRANCH   5  24
ATOM     24  C   UNL     1       0.518   9.303  21.484  0.00  0.00    +0.000 C 
ATOM     25  O   UNL     1       0.913  10.179  22.231  0.00  0.00    +0.000 OA
BRANCH  24  26
ATOM     26  O   UNL     1      -0.544   8.527  21.827  0.00  0.00    +0.000 OA
ATOM     27  H   UNL     1      -1.332   8.591  21.261  0.00  0.00    +0.000 HD
ENDBRANCH  24  26
ENDBRANCH   5  24
TORSDOF 7
ENDMDL
MODEL 5
REMARK VINA RESULT:      -7.2      1.866      3.106
REMARK  Name = 
REMARK  7 active torsions:
REMARK  status: ('A' for Active; 'I' for Inactive)
REMARK    1  A    between atoms: C_2  and  C_3
REMARK    2  A    between atoms: C_3  and  C_4
REMARK    3  A    between atoms: C_4  and  C_5
REMARK    4  A    between atoms: N_10  and  C_11
REMARK    5  A    between atoms: C_14  and  N_15
REMARK    6  A    between atoms: C_21  and  C_22
REMARK    7  A    between atoms: C_22  and  O_24
REMARK                            x       y       z     vdW  Elec       q    Type
REMARK                         _______ _______ _______ _____ _____    ______ ____
ROOT
ATOM      1  C   UNL     1       2.181   7.449  18.642  0.00  0.00    +0.000 A 
ATOM      2  C   UNL     1       2.171   8.473  17.715  0.00  0.00    +0.000 A 
ATOM      3  C   UNL     1       1.696   9.742  18.066  0.00  0.00    +0.000 A 
ATOM      4  C   UNL     1       1.194  10.071  19.345  0.00  0.00    +0.000 A 
ATOM      5  C   UNL     1       1.238   9.020  20.300  0.00  0.00    +0.000 A 
ATOM      6  C   UNL     1       1.746   7.737  19.937  0.00  0.00    +0.000 A 
ENDROOT
BRANCH   4   7
ATOM      7  N   UNL     1       0.689  11.347  19.528  0.00  0.00    +0.000 N 
ATOM      8  C   UNL     1      -0.709  11.748  19.290  0.00  0.00    +0.000 C 
ATOM      9  C   UNL     1      -0.749  12.963  18.342  0.00  0.00    +0.000 C 
ATOM     10  O   UNL     1       0.052  14.056  18.819  0.00  0.00    +0.000 OA
ATOM     11  C   UNL     1       1.416  13.636  18.983  0.00  0.00    +0.000 C 
ATOM     12  C   UNL     1       1.521  12.480  19.992  0.00  0.00    +0.000 C 
ENDBRANCH   4   7
BRANCH   1  15
ATOM     13  O   UNL     1       4.811   6.455  17.794  0.00  0.00    +0.000 OA
ATOM     14  C   UNL     1       3.820   5.728  17.878  0.00  0.00    +0.000 C 
ATOM     15  N   UNL     1       2.568   6.128  18.324  0.00  0.00    +0.000 N 
ATOM     16  H   UNL     1       1.879   5.400  18.479  0.00  0.00    +0.000 HD
BRANCH  14  17
ATOM     17  C   UNL     1       3.880   4.274  17.450  0.00  0.00    +0.000 C 
BRANCH  17  18
ATOM     18  C   UNL     1       2.527   3.596  17.664  0.00  0.00    +0.000 C 
BRANCH  18  19
ATOM     19  C   UNL     1       2.309   3.238  19.104  0.00  0.00    +0.000 A 
ATOM     20  C   UNL     1       1.128   3.262  19.810  0.00  0.00    +0.000 A 
ATOM     21  C   UNL     1       1.296   2.869  21.175  0.00  0.00    +0.000 A 
ATOM     22  C   UNL     1       2.603   2.532  21.448  0.00  0.00    +0.000 A 
ATOM     23  S   UNL     1       3.609   2.705  20.076  0.00  0.00    +0.000 S 
ENDBRANCH  18  19
ENDBRANCH  17  18
ENDBRANCH  14  17
ENDBRANCH   1  15
BRANCH   5  24
ATOM     24  C   UNL     1       0.874   9.199  21.748  0.00  0.00    +0.000 C 
ATOM     25  O   UNL     1       1.620   9.613  22.615  0.00  0.00    +0.000 OA
BRANCH  24  26
ATOM     26  O   UNL     1      -0.405   8.847  22.043  0.00  0.00    +0.000 OA
ATOM     27  H   UNL     1      -0.694   7.966  21.749  0.00  0.00    +0.000 HD
ENDBRANCH  24  26
ENDBRANCH   5  24
TORSDOF 7
ENDMDL
MODEL 6
REMARK VINA RESULT:      -7.2      5.264      8.030
REMARK  Name = 
REMARK  7 active torsions:
REMARK  status: ('A' for Active; 'I' for Inactive)
REMARK    1  A    between atoms: C_2  and  C_3
REMARK    2  A    between atoms: C_3  and  C_4
REMARK    3  A    between atoms: C_4  and  C_5
REMARK    4  A    between atoms: N_10  and  C_11
REMARK    5  A    between atoms: C_14  and  N_15
REMARK    6  A    between atoms: C_21  and  C_22
REMARK    7  A    between atoms: C_22  and  O_24
REMARK                            x       y       z     vdW  Elec       q    Type
REMARK                         _______ _______ _______ _____ _____    ______ ____
ROOT
ATOM      1  C   UNL     1       6.360   6.834  17.324  0.00  0.00    +0.000 A 
ATOM      2  C   UNL     1       6.782   5.545  17.065  0.00  0.00    +0.000 A 
ATOM      3  C   UNL     1       5.969   4.454  17.392  0.00  0.00    +0.000 A 
ATOM      4  C   UNL     1       4.700   4.570  18.002  0.00  0.00    +0.000 A 
ATOM      5  C   UNL     1       4.261   5.902  18.235  0.00  0.00    +0.000 A 
ATOM      6  C   UNL     1       5.089   7.006  17.876  0.00  0.00    +0.000 A 
ENDROOT
BRANCH   4   7
ATOM      7  N   UNL     1       4.038   3.401  18.337  0.00  0.00    +0.000 N 
ATOM      8  C   UNL     1       3.053   2.711  17.486  0.00  0.00    +0.000 C 
ATOM      9  C   UNL     1       1.750   2.480  18.277  0.00  0.00    +0.000 C 
ATOM     10  O   UNL     1       1.976   1.785  19.514  0.00  0.00    +0.000 OA
ATOM     11  C   UNL     1       2.897   2.521  20.334  0.00  0.00    +0.000 C 
ATOM     12  C   UNL     1       4.249   2.701  19.624  0.00  0.00    +0.000 C 
ENDBRANCH   4   7
BRANCH   1  15
ATOM     13  O   UNL     1       8.567   7.880  18.955  0.00  0.00    +0.000 OA
ATOM     14  C   UNL     1       8.169   8.443  17.933  0.00  0.00    +0.000 C 
ATOM     15  N   UNL     1       7.170   7.969  17.095  0.00  0.00    +0.000 N 
ATOM     16  H   UNL     1       7.038   8.455  16.215  0.00  0.00    +0.000 HD
BRANCH  14  17
ATOM     17  C   UNL     1       8.742   9.780  17.506  0.00  0.00    +0.000 C 
BRANCH  17  18
ATOM     18  C   UNL     1       9.252  10.558  18.719  0.00  0.00    +0.000 C 
BRANCH  18  19
ATOM     19  C   UNL     1      10.074  11.744  18.310  0.00  0.00    +0.000 A 
ATOM     20  C   UNL     1      11.386  11.758  17.894  0.00  0.00    +0.000 A 
ATOM     21  C   UNL     1      11.852  13.077  17.596  0.00  0.00    +0.000 A 
ATOM     22  C   UNL     1      10.861  14.017  17.771  0.00  0.00    +0.000 A 
ATOM     23  S   UNL     1       9.396  13.312  18.302  0.00  0.00    +0.000 S 
ENDBRANCH  18  19
ENDBRANCH  17  18
ENDBRANCH  14  17
ENDBRANCH   1  15
BRANCH   5  24
ATOM     24  C   UNL     1       2.892   6.245  18.753  0.00  0.00    +0.000 C 
ATOM     25  O   UNL     1       1.934   6.545  18.066  0.00  0.00    +0.000 OA
BRANCH  24  26
ATOM     26  O   UNL     1       2.788   6.202  20.107  0.00  0.00    +0.000 OA
ATOM     27  H   UNL     1       3.616   6.088  20.606  0.00  0.00    +0.000 HD
ENDBRANCH  24  26
ENDBRANCH   5  24
TORSDOF 7
ENDMDL
MODEL 7
REMARK VINA RESULT:      -7.1      1.765      2.864
REMARK  Name = 
REMARK  7 active torsions:
REMARK  status: ('A' for Active; 'I' for Inactive)
REMARK    1  A    between atoms: C_2  and  C_3
REMARK    2  A    between atoms: C_3  and  C_4
REMARK    3  A    between atoms: C_4  and  C_5
REMARK    4  A    between atoms: N_10  and  C_11
REMARK    5  A    between atoms: C_14  and  N_15
REMARK    6  A    between atoms: C_21  and  C_22
REMARK    7  A    between atoms: C_22  and  O_24
REMARK                            x       y       z     vdW  Elec       q    Type
REMARK                         _______ _______ _______ _____ _____    ______ ____
ROOT
ATOM      1  C   UNL     1       2.517   7.355  18.690  0.00  0.00    +0.000 A 
ATOM      2  C   UNL     1       2.350   8.324  17.720  0.00  0.00    +0.000 A 
ATOM      3  C   UNL     1       1.657   9.505  18.010  0.00  0.00    +0.000 A 
ATOM      4  C   UNL     1       1.081   9.793  19.268  0.00  0.00    +0.000 A 
ATOM      5  C   UNL     1       1.285   8.804  20.267  0.00  0.00    +0.000 A 
ATOM      6  C   UNL     1       2.013   7.615  19.966  0.00  0.00    +0.000 A 
ENDROOT
BRANCH   4   7
ATOM      7  N   UNL     1       0.360  10.969  19.390  0.00  0.00    +0.000 N 
ATOM      8  C   UNL     1      -1.094  11.097  19.187  0.00  0.00    +0.000 C 
ATOM      9  C   UNL     1      -1.381  12.216  18.165  0.00  0.00    +0.000 C 
ATOM     10  O   UNL     1      -0.775  13.465  18.535  0.00  0.00    +0.000 OA
ATOM     11  C   UNL     1       0.646  13.306  18.667  0.00  0.00    +0.000 C 
ATOM     12  C   UNL     1       0.989  12.262  19.743  0.00  0.00    +0.000 C 
ENDBRANCH   4   7
BRANCH   1  15
ATOM     13  O   UNL     1       5.133   6.809  17.473  0.00  0.00    +0.000 OA
ATOM     14  C   UNL     1       4.354   5.914  17.806  0.00  0.00    +0.000 C 
ATOM     15  N   UNL     1       3.132   6.108  18.434  0.00  0.00    +0.000 N 
ATOM     16  H   UNL     1       2.655   5.284  18.781  0.00  0.00    +0.000 HD
BRANCH  14  17
ATOM     17  C   UNL     1       4.666   4.459  17.515  0.00  0.00    +0.000 C 
BRANCH  17  18
ATOM     18  C   UNL     1       4.660   3.640  18.805  0.00  0.00    +0.000 C 
BRANCH  18  19
ATOM     19  C   UNL     1       3.276   3.188  19.167  0.00  0.00    +0.000 A 
ATOM     20  C   UNL     1       2.662   3.249  20.397  0.00  0.00    +0.000 A 
ATOM     21  C   UNL     1       1.338   2.711  20.377  0.00  0.00    +0.000 A 
ATOM     22  C   UNL     1       0.982   2.284  19.117  0.00  0.00    +0.000 A 
ATOM     23  S   UNL     1       2.241   2.520  17.983  0.00  0.00    +0.000 S 
ENDBRANCH  18  19
ENDBRANCH  17  18
ENDBRANCH  14  17
ENDBRANCH   1  15
BRANCH   5  24
ATOM     24  C   UNL     1       0.866   8.975  21.701  0.00  0.00    +0.000 C 
ATOM     25  O   UNL     1      -0.276   8.908  22.113  0.00  0.00    +0.000 OA
BRANCH  24  26
ATOM     26  O   UNL     1       1.896   9.228  22.551  0.00  0.00    +0.000 OA
ATOM     27  H   UNL     1       1.799   8.904  23.463  0.00  0.00    +0.000 HD
ENDBRANCH  24  26
ENDBRANCH   5  24
TORSDOF 7
ENDMDL
MODEL 8
REMARK VINA RESULT:      -7.1      5.160      7.743
REMARK  Name = 
REMARK  7 active torsions:
REMARK  status: ('A' for Active; 'I' for Inactive)
REMARK    1  A    between atoms: C_2  and  C_3
REMARK    2  A    between atoms: C_3  and  C_4
REMARK    3  A    between atoms: C_4  and  C_5
REMARK    4  A    between atoms: N_10  and  C_11
REMARK    5  A    between atoms: C_14  and  N_15
REMARK    6  A    between atoms: C_21  and  C_22
REMARK    7  A    between atoms: C_22  and  O_24
REMARK                            x       y       z     vdW  Elec       q    Type
REMARK                         _______ _______ _______ _____ _____    ______ ____
ROOT
ATOM      1  C   UNL     1       5.934   7.010  17.168  0.00  0.00    +0.000 A 
ATOM      2  C   UNL     1       5.925   5.936  16.299  0.00  0.00    +0.000 A 
ATOM      3  C   UNL     1       4.989   4.907  16.455  0.00  0.00    +0.000 A 
ATOM      4  C   UNL     1       4.016   4.873  17.480  0.00  0.00    +0.000 A 
ATOM      5  C   UNL     1       4.014   5.998  18.347  0.00  0.00    +0.000 A 
ATOM      6  C   UNL     1       4.958   7.051  18.165  0.00  0.00    +0.000 A 
ENDROOT
BRANCH   4   7
ATOM      7  N   UNL     1       3.202   3.756  17.556  0.00  0.00    +0.000 N 
ATOM      8  C   UNL     1       1.733   3.767  17.444  0.00  0.00    +0.000 C 
ATOM      9  C   UNL     1       1.111   3.053  18.661  0.00  0.00    +0.000 C 
ATOM     10  O   UNL     1       1.629   1.725  18.841  0.00  0.00    +0.000 OA
ATOM     11  C   UNL     1       3.055   1.767  19.002  0.00  0.00    +0.000 C 
ATOM     12  C   UNL     1       3.733   2.390  17.771  0.00  0.00    +0.000 C 
ENDBRANCH   4   7
BRANCH   1  15
ATOM     13  O   UNL     1       8.366   7.327  18.782  0.00  0.00    +0.000 OA
ATOM     14  C   UNL     1       8.012   8.156  17.942  0.00  0.00    +0.000 C 
ATOM     15  N   UNL     1       6.906   8.035  17.113  0.00  0.00    +0.000 N 
ATOM     16  H   UNL     1       6.808   8.719  16.371  0.00  0.00    +0.000 HD
BRANCH  14  17
ATOM     17  C   UNL     1       8.773   9.455  17.759  0.00  0.00    +0.000 C 
BRANCH  17  18
ATOM     18  C   UNL     1       8.962  10.160  19.102  0.00  0.00    +0.000 C 
BRANCH  18  19
ATOM     19  C   UNL     1      10.130  11.101  19.072  0.00  0.00    +0.000 A 
ATOM     20  C   UNL     1      10.967  11.440  20.111  0.00  0.00    +0.000 A 
ATOM     21  C   UNL     1      11.969  12.382  19.723  0.00  0.00    +0.000 A 
ATOM     22  C   UNL     1      11.873  12.705  18.387  0.00  0.00    +0.000 A 
ATOM     23  S   UNL     1      10.578  11.888  17.624  0.00  0.00    +0.000 S 
ENDBRANCH  18  19
ENDBRANCH  17  18
ENDBRANCH  14  17
ENDBRANCH   1  15
BRANCH   5  24
ATOM     24  C   UNL     1       2.980   6.217  19.418  0.00  0.00    +0.000 C 
ATOM     25  O   UNL     1       2.108   7.064  19.391  0.00  0.00    +0.000 OA
BRANCH  24  26
ATOM     26  O   UNL     1       3.091   5.368  20.474  0.00  0.00    +0.000 OA
ATOM     27  H   UNL     1       3.484   5.732  21.286  0.00  0.00    +0.000 HD
ENDBRANCH  24  26
ENDBRANCH   5  24
TORSDOF 7
ENDMDL
MODEL 9
REMARK VINA RESULT:      -7.1      1.949      3.269
REMARK  Name = 
REMARK  7 active torsions:
REMARK  status: ('A' for Active; 'I' for Inactive)
REMARK    1  A    between atoms: C_2  and  C_3
REMARK    2  A    between atoms: C_3  and  C_4
REMARK    3  A    between atoms: C_4  and  C_5
REMARK    4  A    between atoms: N_10  and  C_11
REMARK    5  A    between atoms: C_14  and  N_15
REMARK    6  A    between atoms: C_21  and  C_22
REMARK    7  A    between atoms: C_22  and  O_24
REMARK                            x       y       z     vdW  Elec       q    Type
REMARK                         _______ _______ _______ _____ _____    ______ ____
ROOT
ATOM      1  C   UNL     1       2.135   7.473  18.782  0.00  0.00    +0.000 A 
ATOM      2  C   UNL     1       1.984   8.472  17.840  0.00  0.00    +0.000 A 
ATOM      3  C   UNL     1       1.439   9.710  18.200  0.00  0.00    +0.000 A 
ATOM      4  C   UNL     1       1.003  10.030  19.506  0.00  0.00    +0.000 A 
ATOM      5  C   UNL     1       1.193   9.007  20.474  0.00  0.00    +0.000 A 
ATOM      6  C   UNL     1       1.770   7.758  20.099  0.00  0.00    +0.000 A 
ENDROOT
BRANCH   4   7
ATOM      7  N   UNL     1       0.416  11.268  19.701  0.00  0.00    +0.000 N 
ATOM      8  C   UNL     1       1.114  12.471  20.188  0.00  0.00    +0.000 C 
ATOM      9  C   UNL     1       0.366  13.053  21.405  0.00  0.00    +0.000 C 
ATOM     10  O   UNL     1      -1.019  13.309  21.124  0.00  0.00    +0.000 OA
ATOM     11  C   UNL     1      -1.673  12.100  20.708  0.00  0.00    +0.000 C 
ATOM     12  C   UNL     1      -1.019  11.526  19.440  0.00  0.00    +0.000 C 
ENDBRANCH   4   7
BRANCH   1  15
ATOM     13  O   UNL     1       4.560   6.696  17.319  0.00  0.00    +0.000 OA
ATOM     14  C   UNL     1       3.732   5.875  17.719  0.00  0.00    +0.000 C 
ATOM     15  N   UNL     1       2.599   6.177  18.462  0.00  0.00    +0.000 N 
ATOM     16  H   UNL     1       2.079   5.398  18.847  0.00  0.00    +0.000 HD
BRANCH  14  17
ATOM     17  C   UNL     1       3.872   4.402  17.391  0.00  0.00    +0.000 C 
BRANCH  17  18
ATOM     18  C   UNL     1       2.536   3.682  17.575  0.00  0.00    +0.000 C 
BRANCH  18  19
ATOM     19  C   UNL     1       2.306   3.300  19.007  0.00  0.00    +0.000 A 
ATOM     20  C   UNL     1       1.112   3.271  19.691  0.00  0.00    +0.000 A 
ATOM     21  C   UNL     1       1.270   2.869  21.054  0.00  0.00    +0.000 A 
ATOM     22  C   UNL     1       2.584   2.579  21.348  0.00  0.00    +0.000 A 
ATOM     23  S   UNL     1       3.607   2.805  19.996  0.00  0.00    +0.000 S 
ENDBRANCH  18  19
ENDBRANCH  17  18
ENDBRANCH  14  17
ENDBRANCH   1  15
BRANCH   5  24
ATOM     24  C   UNL     1       0.916   9.193  21.940  0.00  0.00    +0.000 C 
ATOM     25  O   UNL     1      -0.188   9.217  22.451  0.00  0.00    +0.000 OA
BRANCH  24  26
ATOM     26  O   UNL     1       2.034   9.344  22.698  0.00  0.00    +0.000 OA
ATOM     27  H   UNL     1       2.021  10.059  23.357  0.00  0.00    +0.000 HD
ENDBRANCH  24  26
ENDBRANCH   5  24
TORSDOF 7
ENDMDL
