MODEL 1
REMARK VINA RESULT:      -7.5      0.000      0.000
REMARK  Name = 
REMARK  15 active torsions:
REMARK  status: ('A' for Active; 'I' for Inactive)
REMARK    1  A    between atoms: CD1_1  and  CG_2
REMARK    2  A    between atoms: CG_2  and  CD2_3
REMARK    3  A    between atoms: CG_2  and  CB_4
REMARK    4  A    between atoms: CB_4  and  CA_5
REMARK    5  A    between atoms: CA_5  and  N_6
REMARK    6  A    between atoms: CA_5  and  C_19
REMARK    7  A    between atoms: C_7  and  O_9
REMARK    8  A    between atoms: O_9  and  C_10
REMARK    9  A    between atoms: C_13  and  C_14
REMARK   10  A    between atoms: C_14  and  C_15
REMARK   11  A    between atoms: C_14  and  C_16
REMARK   12  A    between atoms: N_21  and  C_22
REMARK   13  A    between atoms: C_22  and  C_23
REMARK   14  A    between atoms: C_22  and  C_25
REMARK   15  A    between atoms: C_25  and  C_26
REMARK                            x       y       z     vdW  Elec       q    Type
REMARK                         _______ _______ _______ _____ _____    ______ ____
ROOT
ATOM      1  CA  LEU A   1       3.327   5.110  18.860  0.00  0.00    +0.000 C 
ENDROOT
BRANCH   1   2
ATOM      2  N   LEU A   1       2.890   6.190  17.939  0.00  0.00    +0.000 N 
ATOM      3  C   UNK A   0       2.711   7.497  18.321  0.00  0.00    +0.000 C 
ATOM      4  O   UNK A   0       3.301   8.426  17.787  0.00  0.00    +0.000 OA
ATOM      5  H   LEU A   1       3.251   6.084  16.997  0.00  0.00    +0.000 HD
BRANCH   3   6
ATOM      6  O   UNK A   0       1.764   7.632  19.289  0.00  0.00    +0.000 OA
BRANCH   6   7
ATOM      7  C   UNK A   0       1.365   8.967  19.696  0.00  0.00    +0.000 C 
ATOM      8  C   UNK A   0       0.352   9.608  18.739  0.00  0.00    +0.000 C 
ATOM      9  C   UNK A   0      -0.044  11.006  19.228  0.00  0.00    +0.000 C 
ATOM     10  C   UNK A   0      -0.647  10.985  20.650  0.00  0.00    +0.000 C 
ATOM     11  C   UNK A   0       0.291  10.221  21.613  0.00  0.00    +0.000 C 
ATOM     12  C   UNK A   0       0.706   8.851  21.073  0.00  0.00    +0.000 C 
BRANCH  10  13
ATOM     13  C   UNK A   0      -0.965  12.424  21.163  0.00  0.00    +0.000 C 
ATOM     14  C   UNK A   0      -0.919  12.519  22.694  0.00  0.00    +0.000 C 
ATOM     15  C   UNK A   0      -2.339  12.918  20.693  0.00  0.00    +0.000 C 
ENDBRANCH  10  13
ENDBRANCH   6   7
ENDBRANCH   3   6
ENDBRANCH   1   2
BRANCH   1  16
ATOM     16  C   LEU A   1       4.889   5.014  18.728  0.00  0.00    +0.000 C 
ATOM     17  O   LEU A   1       5.602   4.887  19.748  0.00  0.00    +0.000 OA
ATOM     18  N   UNK A   2       5.436   5.074  17.456  0.00  0.00    +0.000 N 
ATOM     19  H   UNK A   2       4.807   5.149  16.682  0.00  0.00    +0.000 HD
BRANCH  18  20
ATOM     20  C   UNK A   2       6.896   5.023  17.159  0.00  0.00    +0.000 C 
BRANCH  20  21
ATOM     21  C   UNK A   2       7.432   6.458  17.115  0.00  0.00    +0.000 C 
ATOM     22  O   UNK A   2       6.773   7.451  16.839  0.00  0.00    +0.000 OA
ENDBRANCH  20  21
BRANCH  20  23
ATOM     23  C   UNK A   2       7.137   4.336  15.787  0.00  0.00    +0.000 C 
BRANCH  23  24
ATOM     24  C   UNK A   2       6.552   5.084  14.567  0.00  0.00    +0.000 C 
ATOM     25  C   UNK A   2       5.393   4.312  13.901  0.00  0.00    +0.000 C 
ATOM     26  C   UNK A   2       6.093   3.418  12.895  0.00  0.00    +0.000 C 
ATOM     27  N   UNK A   2       7.215   4.204  12.492  0.00  0.00    +0.000 N 
ATOM     28  C   UNK A   2       7.545   5.163  13.423  0.00  0.00    +0.000 C 
ATOM     29  O   UNK A   2       8.512   5.900  13.355  0.00  0.00    +0.000 OA
ATOM     30  H   UNK A   2       7.827   4.018  11.704  0.00  0.00    +0.000 HD
ENDBRANCH  23  24
ENDBRANCH  20  23
ENDBRANCH  18  20
ENDBRANCH   1  16
BRANCH   1  31
ATOM     31  CB  LEU A   1       2.622   3.795  18.466  0.00  0.00    +0.000 C 
BRANCH  31  33
ATOM     32  CD1 LEU A   1       0.754   2.120  19.008  0.00  0.00    +0.000 C 
ATOM     33  CG  LEU A   1       1.165   3.585  18.933  0.00  0.00    +0.000 C 
ATOM     34  CD2 LEU A   1       0.909   4.202  20.318  0.00  0.00    +0.000 C 
ENDBRANCH  31  33
ENDBRANCH   1  31
TORSDOF 11
ENDMDL
MODEL 2
REMARK VINA RESULT:      -7.4      0.920      1.536
REMARK  Name = 
REMARK  15 active torsions:
REMARK  status: ('A' for Active; 'I' for Inactive)
REMARK    1  A    between atoms: CD1_1  and  CG_2
REMARK    2  A    between atoms: CG_2  and  CD2_3
REMARK    3  A    between atoms: CG_2  and  CB_4
REMARK    4  A    between atoms: CB_4  and  CA_5
REMARK    5  A    between atoms: CA_5  and  N_6
REMARK    6  A    between atoms: CA_5  and  C_19
REMARK    7  A    between atoms: C_7  and  O_9
REMARK    8  A    between atoms: O_9  and  C_10
REMARK    9  A    between atoms: C_13  and  C_14
REMARK   10  A    between atoms: C_14  and  C_15
REMARK   11  A    between atoms: C_14  and  C_16
REMARK   12  A    between atoms: N_21  and  C_22
REMARK   13  A    between atoms: C_22  and  C_23
REMARK   14  A    between atoms: C_22  and  C_25
REMARK   15  A    between atoms: C_25  and  C_26
REMARK                            x       y       z     vdW  Elec       q    Type
REMARK                         _______ _______ _______ _____ _____    ______ ____
ROOT
ATOM      1  CA  LEU A   1       3.927   4.441  19.421  0.00  0.00    +0.000 C 
ENDROOT
BRANCH   1   2
ATOM      2  N   LEU A   1       3.066   5.254  18.525  0.00  0.00    +0.000 N 
ATOM      3  C   UNK A   0       3.040   6.627  18.527  0.00  0.00    +0.000 C 
ATOM      4  O   UNK A   0       3.272   7.293  17.528  0.00  0.00    +0.000 OA
ATOM      5  H   LEU A   1       2.944   4.844  17.605  0.00  0.00    +0.000 HD
BRANCH   3   6
ATOM      6  O   UNK A   0       2.657   7.139  19.729  0.00  0.00    +0.000 OA
BRANCH   6   7
ATOM      7  C   UNK A   0       1.471   7.975  19.789  0.00  0.00    +0.000 C 
ATOM      8  C   UNK A   0       1.211   8.549  21.186  0.00  0.00    +0.000 C 
ATOM      9  C   UNK A   0      -0.041   9.433  21.183  0.00  0.00    +0.000 C 
ATOM     10  C   UNK A   0       0.065  10.601  20.178  0.00  0.00    +0.000 C 
ATOM     11  C   UNK A   0       0.464  10.067  18.783  0.00  0.00    +0.000 C 
ATOM     12  C   UNK A   0       1.687   9.149  18.829  0.00  0.00    +0.000 C 
BRANCH  10  13
ATOM     13  C   UNK A   0      -1.250  11.440  20.127  0.00  0.00    +0.000 C 
ATOM     14  C   UNK A   0      -1.168  12.592  19.117  0.00  0.00    +0.000 C 
ATOM     15  C   UNK A   0      -1.616  12.029  21.496  0.00  0.00    +0.000 C 
ENDBRANCH  10  13
ENDBRANCH   6   7
ENDBRANCH   3   6
ENDBRANCH   1   2
BRANCH   1  16
ATOM     16  C   LEU A   1       5.405   4.650  18.933  0.00  0.00    +0.000 C 
ATOM     17  O   LEU A   1       6.304   4.942  19.752  0.00  0.00    +0.000 OA
ATOM     18  N   UNK A   2       5.667   4.500  17.581  0.00  0.00    +0.000 N 
ATOM     19  H   UNK A   2       4.907   4.239  16.985  0.00  0.00    +0.000 HD
BRANCH  18  20
ATOM     20  C   UNK A   2       7.006   4.687  16.952  0.00  0.00    +0.000 C 
BRANCH  20  21
ATOM     21  C   UNK A   2       7.265   6.190  16.801  0.00  0.00    +0.000 C 
ATOM     22  O   UNK A   2       6.401   7.055  16.759  0.00  0.00    +0.000 OA
ENDBRANCH  20  21
BRANCH  20  23
ATOM     23  C   UNK A   2       7.037   4.012  15.553  0.00  0.00    +0.000 C 
BRANCH  23  24
ATOM     24  C   UNK A   2       6.475   4.870  14.397  0.00  0.00    +0.000 C 
ATOM     25  C   UNK A   2       5.334   4.161  13.637  0.00  0.00    +0.000 C 
ATOM     26  C   UNK A   2       6.058   3.368  12.567  0.00  0.00    +0.000 C 
ATOM     27  N   UNK A   2       7.186   4.191  12.263  0.00  0.00    +0.000 N 
ATOM     28  C   UNK A   2       7.491   5.059  13.287  0.00  0.00    +0.000 C 
ATOM     29  O   UNK A   2       8.456   5.802  13.311  0.00  0.00    +0.000 OA
ATOM     30  H   UNK A   2       7.815   4.082  11.474  0.00  0.00    +0.000 HD
ENDBRANCH  23  24
ENDBRANCH  20  23
ENDBRANCH  18  20
ENDBRANCH   1  16
BRANCH   1  31
ATOM     31  CB  LEU A   1       3.485   2.965  19.342  0.00  0.00    +0.000 C 
BRANCH  31  33
ATOM     32  CD1 LEU A   1       1.854   3.431  21.268  0.00  0.00    +0.000 C 
ATOM     33  CG  LEU A   1       2.182   2.558  20.064  0.00  0.00    +0.000 C 
ATOM     34  CD2 LEU A   1       0.965   2.600  19.125  0.00  0.00    +0.000 C 
ENDBRANCH  31  33
ENDBRANCH   1  31
TORSDOF 11
ENDMDL
MODEL 3
REMARK VINA RESULT:      -7.4      1.280      1.852
REMARK  Name = 
REMARK  15 active torsions:
REMARK  status: ('A' for Active; 'I' for Inactive)
REMARK    1  A    between atoms: CD1_1  and  CG_2
REMARK    2  A    between atoms: CG_2  and  CD2_3
REMARK    3  A    between atoms: CG_2  and  CB_4
REMARK    4  A    between atoms: CB_4  and  CA_5
REMARK    5  A    between atoms: CA_5  and  N_6
REMARK    6  A    between atoms: CA_5  and  C_19
REMARK    7  A    between atoms: C_7  and  O_9
REMARK    8  A    between atoms: O_9  and  C_10
REMARK    9  A    between atoms: C_13  and  C_14
REMARK   10  A    between atoms: C_14  and  C_15
REMARK   11  A    between atoms: C_14  and  C_16
REMARK   12  A    between atoms: N_21  and  C_22
REMARK   13  A    between atoms: C_22  and  C_23
REMARK   14  A    between atoms: C_22  and  C_25
REMARK   15  A    between atoms: C_25  and  C_26
REMARK                            x       y       z     vdW  Elec       q    Type
REMARK                         _______ _______ _______ _____ _____    ______ ____
ROOT
ATOM      1  CA  LEU A   1       3.560   4.961  19.641  0.00  0.00    +0.000 C 
ENDROOT
BRANCH   1   2
ATOM      2  N   LEU A   1       2.938   5.714  18.523  0.00  0.00    +0.000 N 
ATOM      3  C   UNK A   0       3.161   7.047  18.280  0.00  0.00    +0.000 C 
ATOM      4  O   UNK A   0       3.591   7.459  17.211  0.00  0.00    +0.000 OA
ATOM      5  H   LEU A   1       2.818   5.159  17.682  0.00  0.00    +0.000 HD
BRANCH   3   6
ATOM      6  O   UNK A   0       2.782   7.838  19.320  0.00  0.00    +0.000 OA
BRANCH   6   7
ATOM      7  C   UNK A   0       1.476   8.472  19.278  0.00  0.00    +0.000 C 
ATOM      8  C   UNK A   0       0.992   8.939  20.655  0.00  0.00    +0.000 C 
ATOM      9  C   UNK A   0      -0.381   9.613  20.546  0.00  0.00    +0.000 C 
ATOM     10  C   UNK A   0      -0.368  10.823  19.586  0.00  0.00    +0.000 C 
ATOM     11  C   UNK A   0       0.247  10.417  18.227  0.00  0.00    +0.000 C 
ATOM     12  C   UNK A   0       1.591   9.703  18.375  0.00  0.00    +0.000 C 
BRANCH  10  13
ATOM     13  C   UNK A   0      -1.790  11.444  19.421  0.00  0.00    +0.000 C 
ATOM     14  C   UNK A   0      -2.270  11.422  17.964  0.00  0.00    +0.000 C 
ATOM     15  C   UNK A   0      -1.854  12.892  19.925  0.00  0.00    +0.000 C 
ENDBRANCH  10  13
ENDBRANCH   6   7
ENDBRANCH   3   6
ENDBRANCH   1   2
BRANCH   1  16
ATOM     16  C   LEU A   1       5.052   4.697  19.228  0.00  0.00    +0.000 C 
ATOM     17  O   LEU A   1       5.575   3.580  19.433  0.00  0.00    +0.000 OA
ATOM     18  N   UNK A   2       5.753   5.736  18.638  0.00  0.00    +0.000 N 
ATOM     19  H   UNK A   2       5.266   6.596  18.479  0.00  0.00    +0.000 HD
BRANCH  18  20
ATOM     20  C   UNK A   2       7.180   5.661  18.212  0.00  0.00    +0.000 C 
BRANCH  20  21
ATOM     21  C   UNK A   2       7.678   7.083  17.930  0.00  0.00    +0.000 C 
ATOM     22  O   UNK A   2       8.447   7.716  18.639  0.00  0.00    +0.000 OA
ENDBRANCH  20  21
BRANCH  20  23
ATOM     23  C   UNK A   2       7.307   4.801  16.924  0.00  0.00    +0.000 C 
BRANCH  23  24
ATOM     24  C   UNK A   2       6.434   5.266  15.736  0.00  0.00    +0.000 C 
ATOM     25  C   UNK A   2       5.130   4.449  15.609  0.00  0.00    +0.000 C 
ATOM     26  C   UNK A   2       5.528   3.277  14.732  0.00  0.00    +0.000 C 
ATOM     27  N   UNK A   2       6.517   3.842  13.869  0.00  0.00    +0.000 N 
ATOM     28  C   UNK A   2       7.093   4.973  14.402  0.00  0.00    +0.000 C 
ATOM     29  O   UNK A   2       8.018   5.588  13.904  0.00  0.00    +0.000 OA
ATOM     30  H   UNK A   2       6.898   3.415  13.031  0.00  0.00    +0.000 HD
ENDBRANCH  23  24
ENDBRANCH  20  23
ENDBRANCH  18  20
ENDBRANCH   1  16
BRANCH   1  31
ATOM     31  CB  LEU A   1       2.774   3.652  19.867  0.00  0.00    +0.000 C 
BRANCH  31  33
ATOM     32  CD1 LEU A   1       2.929   1.845  18.051  0.00  0.00    +0.000 C 
ATOM     33  CG  LEU A   1       2.110   2.985  18.643  0.00  0.00    +0.000 C 
ATOM     34  CD2 LEU A   1       0.719   2.420  18.977  0.00  0.00    +0.000 C 
ENDBRANCH  31  33
ENDBRANCH   1  31
TORSDOF 11
ENDMDL
MODEL 4
REMARK VINA RESULT:      -7.2      1.426      1.992
REMARK  Name = 
REMARK  15 active torsions:
REMARK  status: ('A' for Active; 'I' for Inactive)
REMARK    1  A    between atoms: CD1_1  and  CG_2
REMARK    2  A    between atoms: CG_2  and  CD2_3
REMARK    3  A    between atoms: CG_2  and  CB_4
REMARK    4  A    between atoms: CB_4  and  CA_5
REMARK    5  A    between atoms: CA_5  and  N_6
REMARK    6  A    between atoms: CA_5  and  C_19
REMARK    7  A    between atoms: C_7  and  O_9
REMARK    8  A    between atoms: O_9  and  C_10
REMARK    9  A    between atoms: C_13  and  C_14
REMARK   10  A    between atoms: C_14  and  C_15
REMARK   11  A    between atoms: C_14  and  C_16
REMARK   12  A    between atoms: N_21  and  C_22
REMARK   13  A    between atoms: C_22  and  C_23
REMARK   14  A    between atoms: C_22  and  C_25
REMARK   15  A    between atoms: C_25  and  C_26
REMARK                            x       y       z     vdW  Elec       q    Type
REMARK                         _______ _______ _______ _____ _____    ______ ____
ROOT
ATOM      1  CA  LEU A   1       3.793   4.301  19.337  0.00  0.00    +0.000 C 
ENDROOT
BRANCH   1   2
ATOM      2  N   LEU A   1       3.369   5.351  20.299  0.00  0.00    +0.000 N 
ATOM      3  C   UNK A   0       2.200   6.062  20.190  0.00  0.00    +0.000 C 
ATOM      4  O   UNK A   0       1.358   6.089  21.078  0.00  0.00    +0.000 OA
ATOM      5  H   LEU A   1       3.639   5.150  21.256  0.00  0.00    +0.000 HD
BRANCH   3   6
ATOM      6  O   UNK A   0       2.131   6.778  19.034  0.00  0.00    +0.000 OA
BRANCH   6   7
ATOM      7  C   UNK A   0       2.177   8.228  19.105  0.00  0.00    +0.000 C 
ATOM      8  C   UNK A   0       1.983   8.901  17.741  0.00  0.00    +0.000 C 
ATOM      9  C   UNK A   0       2.025  10.427  17.881  0.00  0.00    +0.000 C 
ATOM     10  C   UNK A   0       0.951  10.959  18.856  0.00  0.00    +0.000 C 
ATOM     11  C   UNK A   0       1.031  10.199  20.200  0.00  0.00    +0.000 C 
ATOM     12  C   UNK A   0       1.037   8.680  20.022  0.00  0.00    +0.000 C 
BRANCH  10  13
ATOM     13  C   UNK A   0       1.064  12.503  19.050  0.00  0.00    +0.000 C 
ATOM     14  C   UNK A   0       2.222  13.109  18.247  0.00  0.00    +0.000 C 
ATOM     15  C   UNK A   0       1.248  12.892  20.524  0.00  0.00    +0.000 C 
ENDBRANCH  10  13
ENDBRANCH   6   7
ENDBRANCH   3   6
ENDBRANCH   1   2
BRANCH   1  16
ATOM     16  C   LEU A   1       5.261   4.654  18.908  0.00  0.00    +0.000 C 
ATOM     17  O   LEU A   1       6.094   5.036  19.760  0.00  0.00    +0.000 OA
ATOM     18  N   UNK A   2       5.592   4.527  17.569  0.00  0.00    +0.000 N 
ATOM     19  H   UNK A   2       4.887   4.191  16.944  0.00  0.00    +0.000 HD
BRANCH  18  20
ATOM     20  C   UNK A   2       6.930   4.845  16.992  0.00  0.00    +0.000 C 
BRANCH  20  21
ATOM     21  C   UNK A   2       7.039   6.365  16.828  0.00  0.00    +0.000 C 
ATOM     22  O   UNK A   2       7.653   7.114  17.575  0.00  0.00    +0.000 OA
ENDBRANCH  20  21
BRANCH  20  23
ATOM     23  C   UNK A   2       7.091   4.160  15.608  0.00  0.00    +0.000 C 
BRANCH  23  24
ATOM     24  C   UNK A   2       6.540   4.965  14.409  0.00  0.00    +0.000 C 
ATOM     25  C   UNK A   2       5.396   4.229  13.679  0.00  0.00    +0.000 C 
ATOM     26  C   UNK A   2       6.119   3.379  12.651  0.00  0.00    +0.000 C 
ATOM     27  N   UNK A   2       7.254   4.178  12.313  0.00  0.00    +0.000 N 
ATOM     28  C   UNK A   2       7.562   5.092  13.295  0.00  0.00    +0.000 C 
ATOM     29  O   UNK A   2       8.533   5.828  13.287  0.00  0.00    +0.000 OA
ATOM     30  H   UNK A   2       7.885   4.026  11.533  0.00  0.00    +0.000 HD
ENDBRANCH  23  24
ENDBRANCH  20  23
ENDBRANCH  18  20
ENDBRANCH   1  16
BRANCH   1  31
ATOM     31  CB  LEU A   1       2.818   4.289  18.141  0.00  0.00    +0.000 C 
BRANCH  31  33
ATOM     32  CD1 LEU A   1       2.872   1.741  17.835  0.00  0.00    +0.000 C 
ATOM     33  CG  LEU A   1       2.013   2.999  17.875  0.00  0.00    +0.000 C 
ATOM     34  CD2 LEU A   1       0.921   2.772  18.934  0.00  0.00    +0.000 C 
ENDBRANCH  31  33
ENDBRANCH   1  31
TORSDOF 11
ENDMDL
MODEL 5
REMARK VINA RESULT:      -7.2      0.782      1.016
REMARK  Name = 
REMARK  15 active torsions:
REMARK  status: ('A' for Active; 'I' for Inactive)
REMARK    1  A    between atoms: CD1_1  and  CG_2
REMARK    2  A    between atoms: CG_2  and  CD2_3
REMARK    3  A    between atoms: CG_2  and  CB_4
REMARK    4  A    between atoms: CB_4  and  CA_5
REMARK    5  A    between atoms: CA_5  and  N_6
REMARK    6  A    between atoms: CA_5  and  C_19
REMARK    7  A    between atoms: C_7  and  O_9
REMARK    8  A    between atoms: O_9  and  C_10
REMARK    9  A    between atoms: C_13  and  C_14
REMARK   10  A    between atoms: C_14  and  C_15
REMARK   11  A    between atoms: C_14  and  C_16
REMARK   12  A    between atoms: N_21  and  C_22
REMARK   13  A    between atoms: C_22  and  C_23
REMARK   14  A    between atoms: C_22  and  C_25
REMARK   15  A    between atoms: C_25  and  C_26
REMARK                            x       y       z     vdW  Elec       q    Type
REMARK                         _______ _______ _______ _____ _____    ______ ____
ROOT
ATOM      1  CA  LEU A   1       2.851   5.400  18.696  0.00  0.00    +0.000 C 
ENDROOT
BRANCH   1   2
ATOM      2  N   LEU A   1       2.337   6.517  17.864  0.00  0.00    +0.000 N 
ATOM      3  C   UNK A   0       2.489   7.843  18.184  0.00  0.00    +0.000 C 
ATOM      4  O   UNK A   0       3.033   8.644  17.435  0.00  0.00    +0.000 OA
ATOM      5  H   LEU A   1       2.380   6.328  16.868  0.00  0.00    +0.000 HD
BRANCH   3   6
ATOM      6  O   UNK A   0       1.907   8.164  19.371  0.00  0.00    +0.000 OA
BRANCH   6   7
ATOM      7  C   UNK A   0       1.240   9.447  19.500  0.00  0.00    +0.000 C 
ATOM      8  C   UNK A   0       0.222   9.709  18.384  0.00  0.00    +0.000 C 
ATOM      9  C   UNK A   0      -0.460  11.068  18.582  0.00  0.00    +0.000 C 
ATOM     10  C   UNK A   0      -1.178  11.174  19.946  0.00  0.00    +0.000 C 
ATOM     11  C   UNK A   0      -0.213  10.778  21.087  0.00  0.00    +0.000 C 
ATOM     12  C   UNK A   0       0.487   9.442  20.834  0.00  0.00    +0.000 C 
BRANCH  10  13
ATOM     13  C   UNK A   0      -1.793  12.591  20.166  0.00  0.00    +0.000 C 
ATOM     14  C   UNK A   0      -0.722  13.654  20.439  0.00  0.00    +0.000 C 
ATOM     15  C   UNK A   0      -2.799  12.614  21.324  0.00  0.00    +0.000 C 
ENDBRANCH  10  13
ENDBRANCH   6   7
ENDBRANCH   3   6
ENDBRANCH   1   2
BRANCH   1  16
ATOM     16  C   LEU A   1       4.408   5.375  18.500  0.00  0.00    +0.000 C 
ATOM     17  O   LEU A   1       5.170   5.639  19.457  0.00  0.00    +0.000 OA
ATOM     18  N   UNK A   2       4.897   5.055  17.244  0.00  0.00    +0.000 N 
ATOM     19  H   UNK A   2       4.234   4.828  16.530  0.00  0.00    +0.000 HD
BRANCH  18  20
ATOM     20  C   UNK A   2       6.343   5.012  16.882  0.00  0.00    +0.000 C 
BRANCH  20  21
ATOM     21  C   UNK A   2       6.823   6.445  16.626  0.00  0.00    +0.000 C 
ATOM     22  O   UNK A   2       7.906   6.899  16.967  0.00  0.00    +0.000 OA
ENDBRANCH  20  21
BRANCH  20  23
ATOM     23  C   UNK A   2       6.548   4.159  15.601  0.00  0.00    +0.000 C 
BRANCH  23  24
ATOM     24  C   UNK A   2       6.217   4.879  14.274  0.00  0.00    +0.000 C 
ATOM     25  C   UNK A   2       5.249   4.066  13.387  0.00  0.00    +0.000 C 
ATOM     26  C   UNK A   2       6.173   3.186  12.567  0.00  0.00    +0.000 C 
ATOM     27  N   UNK A   2       7.333   4.003  12.401  0.00  0.00    +0.000 N 
ATOM     28  C   UNK A   2       7.429   4.979  13.367  0.00  0.00    +0.000 C 
ATOM     29  O   UNK A   2       8.366   5.745  13.497  0.00  0.00    +0.000 OA
ATOM     30  H   UNK A   2       8.104   3.830  11.764  0.00  0.00    +0.000 HD
ENDBRANCH  23  24
ENDBRANCH  20  23
ENDBRANCH  18  20
ENDBRANCH   1  16
BRANCH   1  31
ATOM     31  CB  LEU A   1       2.181   4.085  18.245  0.00  0.00    +0.000 C 
BRANCH  31  33
ATOM     32  CD1 LEU A   1       1.146   3.785  20.575  0.00  0.00    +0.000 C 
ATOM     33  CG  LEU A   1       1.711   3.099  19.338  0.00  0.00    +0.000 C 
ATOM     34  CD2 LEU A   1       0.632   2.135  18.819  0.00  0.00    +0.000 C 
ENDBRANCH  31  33
ENDBRANCH   1  31
TORSDOF 11
ENDMDL
MODEL 6
REMARK VINA RESULT:      -7.2      2.484      9.100
REMARK  Name = 
REMARK  15 active torsions:
REMARK  status: ('A' for Active; 'I' for Inactive)
REMARK    1  A    between atoms: CD1_1  and  CG_2
REMARK    2  A    between atoms: CG_2  and  CD2_3
REMARK    3  A    between atoms: CG_2  and  CB_4
REMARK    4  A    between atoms: CB_4  and  CA_5
REMARK    5  A    between atoms: CA_5  and  N_6
REMARK    6  A    between atoms: CA_5  and  C_19
REMARK    7  A    between atoms: C_7  and  O_9
REMARK    8  A    between atoms: O_9  and  C_10
REMARK    9  A    between atoms: C_13  and  C_14
REMARK   10  A    between atoms: C_14  and  C_15
REMARK   11  A    between atoms: C_14  and  C_16
REMARK   12  A    between atoms: N_21  and  C_22
REMARK   13  A    between atoms: C_22  and  C_23
REMARK   14  A    between atoms: C_22  and  C_25
REMARK   15  A    between atoms: C_25  and  C_26
REMARK                            x       y       z     vdW  Elec       q    Type
REMARK                         _______ _______ _______ _____ _____    ______ ____
ROOT
ATOM      1  CA  LEU A   1       2.973   6.011  18.883  0.00  0.00    +0.000 C 
ENDROOT
BRANCH   1   2
ATOM      2  N   LEU A   1       4.027   5.431  19.754  0.00  0.00    +0.000 N 
ATOM      3  C   UNK A   0       5.299   5.142  19.328  0.00  0.00    +0.000 C 
ATOM      4  O   UNK A   0       6.296   5.615  19.858  0.00  0.00    +0.000 OA
ATOM      5  H   LEU A   1       3.980   5.760  20.712  0.00  0.00    +0.000 HD
BRANCH   3   6
ATOM      6  O   UNK A   0       5.317   4.229  18.319  0.00  0.00    +0.000 OA
BRANCH   6   7
ATOM      7  C   UNK A   0       5.668   4.671  16.981  0.00  0.00    +0.000 C 
ATOM      8  C   UNK A   0       7.156   4.485  16.659  0.00  0.00    +0.000 C 
ATOM      9  C   UNK A   0       7.463   4.952  15.231  0.00  0.00    +0.000 C 
ATOM     10  C   UNK A   0       6.627   4.200  14.172  0.00  0.00    +0.000 C 
ATOM     11  C   UNK A   0       5.127   4.250  14.545  0.00  0.00    +0.000 C 
ATOM     12  C   UNK A   0       4.862   3.825  15.990  0.00  0.00    +0.000 C 
BRANCH  10  13
ATOM     13  C   UNK A   0       6.890   4.746  12.735  0.00  0.00    +0.000 C 
ATOM     14  C   UNK A   0       6.959   3.626  11.689  0.00  0.00    +0.000 C 
ATOM     15  C   UNK A   0       8.189   5.560  12.651  0.00  0.00    +0.000 C 
ENDBRANCH  10  13
ENDBRANCH   6   7
ENDBRANCH   3   6
ENDBRANCH   1   2
BRANCH   1  16
ATOM     16  C   LEU A   1       2.217   7.082  19.746  0.00  0.00    +0.000 C 
ATOM     17  O   LEU A   1       1.912   6.834  20.934  0.00  0.00    +0.000 OA
ATOM     18  N   UNK A   2       1.908   8.294  19.149  0.00  0.00    +0.000 N 
ATOM     19  H   UNK A   2       2.205   8.437  18.205  0.00  0.00    +0.000 HD
BRANCH  18  20
ATOM     20  C   UNK A   2       1.173   9.405  19.819  0.00  0.00    +0.000 C 
BRANCH  20  21
ATOM     21  C   UNK A   2       0.243   8.804  20.878  0.00  0.00    +0.000 C 
ATOM     22  O   UNK A   2       0.084   9.241  22.009  0.00  0.00    +0.000 OA
ENDBRANCH  20  21
BRANCH  20  23
ATOM     23  C   UNK A   2       0.333  10.193  18.776  0.00  0.00    +0.000 C 
BRANCH  23  24
ATOM     24  C   UNK A   2      -1.168  10.335  19.116  0.00  0.00    +0.000 C 
ATOM     25  C   UNK A   2      -2.077  10.069  17.897  0.00  0.00    +0.000 C 
ATOM     26  C   UNK A   2      -2.197  11.429  17.238  0.00  0.00    +0.000 C 
ATOM     27  N   UNK A   2      -2.143  12.330  18.346  0.00  0.00    +0.000 N 
ATOM     28  C   UNK A   2      -1.539  11.768  19.448  0.00  0.00    +0.000 C 
ATOM     29  O   UNK A   2      -1.294  12.355  20.487  0.00  0.00    +0.000 OA
ATOM     30  H   UNK A   2      -2.363  13.320  18.326  0.00  0.00    +0.000 HD
ENDBRANCH  23  24
ENDBRANCH  20  23
ENDBRANCH  18  20
ENDBRANCH   1  16
BRANCH   1  31
ATOM     31  CB  LEU A   1       2.039   4.882  18.399  0.00  0.00    +0.000 C 
BRANCH  31  33
ATOM     32  CD1 LEU A   1       0.800   3.378  20.071  0.00  0.00    +0.000 C 
ATOM     33  CG  LEU A   1       2.033   3.557  19.193  0.00  0.00    +0.000 C 
ATOM     34  CD2 LEU A   1       2.116   2.330  18.270  0.00  0.00    +0.000 C 
ENDBRANCH  31  33
ENDBRANCH   1  31
TORSDOF 11
ENDMDL
MODEL 7
REMARK VINA RESULT:      -7.0      4.215     10.432
REMARK  Name = 
REMARK  15 active torsions:
REMARK  status: ('A' for Active; 'I' for Inactive)
REMARK    1  A    between atoms: CD1_1  and  CG_2
REMARK    2  A    between atoms: CG_2  and  CD2_3
REMARK    3  A    between atoms: CG_2  and  CB_4
REMARK    4  A    between atoms: CB_4  and  CA_5
REMARK    5  A    between atoms: CA_5  and  N_6
REMARK    6  A    between atoms: CA_5  and  C_19
REMARK    7  A    between atoms: C_7  and  O_9
REMARK    8  A    between atoms: O_9  and  C_10
REMARK    9  A    between atoms: C_13  and  C_14
REMARK   10  A    between atoms: C_14  and  C_15
REMARK   11  A    between atoms: C_14  and  C_16
REMARK   12  A    between atoms: N_21  and  C_22
REMARK   13  A    between atoms: C_22  and  C_23
REMARK   14  A    between atoms: C_22  and  C_25
REMARK   15  A    between atoms: C_25  and  C_26
REMARK                            x       y       z     vdW  Elec       q    Type
REMARK                         _______ _______ _______ _____ _____    ______ ____
ROOT
ATOM      1  CA  LEU A   1       0.026  11.194  18.853  0.00  0.00    +0.000 C 
ENDROOT
BRANCH   1   2
ATOM      2  N   LEU A   1       1.387  10.896  18.340  0.00  0.00    +0.000 N 
ATOM      3  C   UNK A   0       1.868   9.627  18.136  0.00  0.00    +0.000 C 
ATOM      4  O   UNK A   0       2.286   9.245  17.051  0.00  0.00    +0.000 OA
ATOM      5  H   LEU A   1       1.716  11.573  17.660  0.00  0.00    +0.000 HD
BRANCH   3   6
ATOM      6  O   UNK A   0       1.895   8.889  19.280  0.00  0.00    +0.000 OA
BRANCH   6   7
ATOM      7  C   UNK A   0       1.870   7.441  19.181  0.00  0.00    +0.000 C 
ATOM      8  C   UNK A   0       3.122   6.864  18.510  0.00  0.00    +0.000 C 
ATOM      9  C   UNK A   0       3.046   5.334  18.448  0.00  0.00    +0.000 C 
ATOM     10  C   UNK A   0       2.891   4.695  19.846  0.00  0.00    +0.000 C 
ATOM     11  C   UNK A   0       1.717   5.356  20.605  0.00  0.00    +0.000 C 
ATOM     12  C   UNK A   0       1.797   6.883  20.605  0.00  0.00    +0.000 C 
BRANCH  10  13
ATOM     13  C   UNK A   0       2.730   3.145  19.757  0.00  0.00    +0.000 C 
ATOM     14  C   UNK A   0       1.421   2.658  20.391  0.00  0.00    +0.000 C 
ATOM     15  C   UNK A   0       3.893   2.401  20.426  0.00  0.00    +0.000 C 
ENDBRANCH  10  13
ENDBRANCH   6   7
ENDBRANCH   3   6
ENDBRANCH   1   2
BRANCH   1  16
ATOM     16  C   LEU A   1       0.174  11.449  20.395  0.00  0.00    +0.000 C 
ATOM     17  O   LEU A   1       1.268  11.829  20.870  0.00  0.00    +0.000 OA
ATOM     18  N   UNK A   2      -0.937  11.239  21.196  0.00  0.00    +0.000 N 
ATOM     19  H   UNK A   2      -1.787  10.961  20.748  0.00  0.00    +0.000 HD
BRANCH  18  20
ATOM     20  C   UNK A   2      -0.959  11.409  22.677  0.00  0.00    +0.000 C 
BRANCH  20  21
ATOM     21  C   UNK A   2      -0.653  10.055  23.326  0.00  0.00    +0.000 C 
ATOM     22  O   UNK A   2       0.441   9.706  23.751  0.00  0.00    +0.000 OA
ENDBRANCH  20  21
BRANCH  20  23
ATOM     23  C   UNK A   2      -2.359  11.900  23.137  0.00  0.00    +0.000 C 
BRANCH  23  24
ATOM     24  C   UNK A   2      -3.044  12.910  22.187  0.00  0.00    +0.000 C 
ATOM     25  C   UNK A   2      -2.581  14.361  22.436  0.00  0.00    +0.000 C 
ATOM     26  C   UNK A   2      -3.536  14.862  23.501  0.00  0.00    +0.000 C 
ATOM     27  N   UNK A   2      -4.750  14.173  23.197  0.00  0.00    +0.000 N 
ATOM     28  C   UNK A   2      -4.531  13.027  22.465  0.00  0.00    +0.000 C 
ATOM     29  O   UNK A   2      -5.389  12.221  22.154  0.00  0.00    +0.000 OA
ATOM     30  H   UNK A   2      -5.667  14.372  23.581  0.00  0.00    +0.000 HD
ENDBRANCH  23  24
ENDBRANCH  20  23
ENDBRANCH  18  20
ENDBRANCH   1  16
BRANCH   1  31
ATOM     31  CB  LEU A   1      -0.903  10.001  18.542  0.00  0.00    +0.000 C 
BRANCH  31  33
ATOM     32  CD1 LEU A   1      -2.751  11.735  18.136  0.00  0.00    +0.000 C 
ATOM     33  CG  LEU A   1      -2.285  10.301  17.921  0.00  0.00    +0.000 C 
ATOM     34  CD2 LEU A   1      -2.306  10.037  16.407  0.00  0.00    +0.000 C 
ENDBRANCH  31  33
ENDBRANCH   1  31
TORSDOF 11
ENDMDL
MODEL 8
REMARK VINA RESULT:      -6.9      1.720      3.043
REMARK  Name = 
REMARK  15 active torsions:
REMARK  status: ('A' for Active; 'I' for Inactive)
REMARK    1  A    between atoms: CD1_1  and  CG_2
REMARK    2  A    between atoms: CG_2  and  CD2_3
REMARK    3  A    between atoms: CG_2  and  CB_4
REMARK    4  A    between atoms: CB_4  and  CA_5
REMARK    5  A    between atoms: CA_5  and  N_6
REMARK    6  A    between atoms: CA_5  and  C_19
REMARK    7  A    between atoms: C_7  and  O_9
REMARK    8  A    between atoms: O_9  and  C_10
REMARK    9  A    between atoms: C_13  and  C_14
REMARK   10  A    between atoms: C_14  and  C_15
REMARK   11  A    between atoms: C_14  and  C_16
REMARK   12  A    between atoms: N_21  and  C_22
REMARK   13  A    between atoms: C_22  and  C_23
REMARK   14  A    between atoms: C_22  and  C_25
REMARK   15  A    between atoms: C_25  and  C_26
REMARK                            x       y       z     vdW  Elec       q    Type
REMARK                         _______ _______ _______ _____ _____    ______ ____
ROOT
ATOM      1  CA  LEU A   1       2.758   4.935  18.065  0.00  0.00    +0.000 C 
ENDROOT
BRANCH   1   2
ATOM      2  N   LEU A   1       2.299   6.288  17.659  0.00  0.00    +0.000 N 
ATOM      3  C   UNK A   0       2.619   7.440  18.334  0.00  0.00    +0.000 C 
ATOM      4  O   UNK A   0       3.181   8.385  17.798  0.00  0.00    +0.000 OA
ATOM      5  H   LEU A   1       2.238   6.406  16.653  0.00  0.00    +0.000 HD
BRANCH   3   6
ATOM      6  O   UNK A   0       2.176   7.430  19.621  0.00  0.00    +0.000 OA
BRANCH   6   7
ATOM      7  C   UNK A   0       1.647   8.657  20.189  0.00  0.00    +0.000 C 
ATOM      8  C   UNK A   0       0.855   9.493  19.177  0.00  0.00    +0.000 C 
ATOM      9  C   UNK A   0       0.308  10.765  19.836  0.00  0.00    +0.000 C 
ATOM     10  C   UNK A   0      -0.601  10.457  21.046  0.00  0.00    +0.000 C 
ATOM     11  C   UNK A   0       0.120   9.500  22.022  0.00  0.00    +0.000 C 
ATOM     12  C   UNK A   0       0.696   8.266  21.325  0.00  0.00    +0.000 C 
BRANCH  10  13
ATOM     13  C   UNK A   0      -1.079  11.763  21.755  0.00  0.00    +0.000 C 
ATOM     14  C   UNK A   0      -1.621  11.495  23.165  0.00  0.00    +0.000 C 
ATOM     15  C   UNK A   0      -2.165  12.494  20.955  0.00  0.00    +0.000 C 
ENDBRANCH  10  13
ENDBRANCH   6   7
ENDBRANCH   3   6
ENDBRANCH   1   2
BRANCH   1  16
ATOM     16  C   LEU A   1       4.110   4.676  17.309  0.00  0.00    +0.000 C 
ATOM     17  O   LEU A   1       4.752   3.621  17.508  0.00  0.00    +0.000 OA
ATOM     18  N   UNK A   2       4.555   5.648  16.428  0.00  0.00    +0.000 N 
ATOM     19  H   UNK A   2       3.980   6.455  16.295  0.00  0.00    +0.000 HD
BRANCH  18  20
ATOM     20  C   UNK A   2       5.827   5.570  15.653  0.00  0.00    +0.000 C 
BRANCH  20  21
ATOM     21  C   UNK A   2       5.887   4.208  14.954  0.00  0.00    +0.000 C 
ATOM     22  O   UNK A   2       5.411   3.956  13.855  0.00  0.00    +0.000 OA
ENDBRANCH  20  21
BRANCH  20  23
ATOM     23  C   UNK A   2       7.043   5.718  16.607  0.00  0.00    +0.000 C 
BRANCH  23  24
ATOM     24  C   UNK A   2       6.761   6.492  17.915  0.00  0.00    +0.000 C 
ATOM     25  C   UNK A   2       6.733   8.021  17.701  0.00  0.00    +0.000 C 
ATOM     26  C   UNK A   2       8.181   8.432  17.885  0.00  0.00    +0.000 C 
ATOM     27  N   UNK A   2       8.658   7.505  18.861  0.00  0.00    +0.000 N 
ATOM     28  C   UNK A   2       7.899   6.358  18.909  0.00  0.00    +0.000 C 
ATOM     29  O   UNK A   2       8.148   5.382  19.593  0.00  0.00    +0.000 OA
ATOM     30  H   UNK A   2       9.534   7.566  19.370  0.00  0.00    +0.000 HD
ENDBRANCH  23  24
ENDBRANCH  20  23
ENDBRANCH  18  20
ENDBRANCH   1  16
BRANCH   1  31
ATOM     31  CB  LEU A   1       1.672   3.902  17.696  0.00  0.00    +0.000 C 
BRANCH  31  33
ATOM     32  CD1 LEU A   1       1.993   1.828  19.175  0.00  0.00    +0.000 C 
ATOM     33  CG  LEU A   1       1.103   3.015  18.825  0.00  0.00    +0.000 C 
ATOM     34  CD2 LEU A   1       0.871   3.808  20.121  0.00  0.00    +0.000 C 
ENDBRANCH  31  33
ENDBRANCH   1  31
TORSDOF 11
ENDMDL
MODEL 9
REMARK VINA RESULT:      -6.9      1.605      2.143
REMARK  Name = 
REMARK  15 active torsions:
REMARK  status: ('A' for Active; 'I' for Inactive)
REMARK    1  A    between atoms: CD1_1  and  CG_2
REMARK    2  A    between atoms: CG_2  and  CD2_3
REMARK    3  A    between atoms: CG_2  and  CB_4
REMARK    4  A    between atoms: CB_4  and  CA_5
REMARK    5  A    between atoms: CA_5  and  N_6
REMARK    6  A    between atoms: CA_5  and  C_19
REMARK    7  A    between atoms: C_7  and  O_9
REMARK    8  A    between atoms: O_9  and  C_10
REMARK    9  A    between atoms: C_13  and  C_14
REMARK   10  A    between atoms: C_14  and  C_15
REMARK   11  A    between atoms: C_14  and  C_16
REMARK   12  A    between atoms: N_21  and  C_22
REMARK   13  A    between atoms: C_22  and  C_23
REMARK   14  A    between atoms: C_22  and  C_25
REMARK   15  A    between atoms: C_25  and  C_26
REMARK                            x       y       z     vdW  Elec       q    Type
REMARK                         _______ _______ _______ _____ _____    ______ ____
ROOT
ATOM      1  CA  LEU A   1       3.458   4.491  19.506  0.00  0.00    +0.000 C 
ENDROOT
BRANCH   1   2
ATOM      2  N   LEU A   1       3.147   5.598  20.446  0.00  0.00    +0.000 N 
ATOM      3  C   UNK A   0       2.058   6.425  20.322  0.00  0.00    +0.000 C 
ATOM      4  O   UNK A   0       1.226   6.557  21.209  0.00  0.00    +0.000 OA
ATOM      5  H   LEU A   1       3.396   5.390  21.407  0.00  0.00    +0.000 HD
BRANCH   3   6
ATOM      6  O   UNK A   0       2.063   7.121  19.152  0.00  0.00    +0.000 OA
BRANCH   6   7
ATOM      7  C   UNK A   0       2.074   8.572  19.200  0.00  0.00    +0.000 C 
ATOM      8  C   UNK A   0       2.019   9.219  17.812  0.00  0.00    +0.000 C 
ATOM      9  C   UNK A   0       2.017  10.748  17.927  0.00  0.00    +0.000 C 
ATOM     10  C   UNK A   0       0.833  11.274  18.768  0.00  0.00    +0.000 C 
ATOM     11  C   UNK A   0       0.779  10.538  20.127  0.00  0.00    +0.000 C 
ATOM     12  C   UNK A   0       0.832   9.017  19.978  0.00  0.00    +0.000 C 
BRANCH  10  13
ATOM     13  C   UNK A   0       0.895  12.823  18.945  0.00  0.00    +0.000 C 
ATOM     14  C   UNK A   0      -0.316  13.529  18.323  0.00  0.00    +0.000 C 
ATOM     15  C   UNK A   0       2.168  13.427  18.336  0.00  0.00    +0.000 C 
ENDBRANCH  10  13
ENDBRANCH   6   7
ENDBRANCH   3   6
ENDBRANCH   1   2
BRANCH   1  16
ATOM     16  C   LEU A   1       4.975   4.636  19.130  0.00  0.00    +0.000 C 
ATOM     17  O   LEU A   1       5.796   3.754  19.468  0.00  0.00    +0.000 OA
ATOM     18  N   UNK A   2       5.362   5.761  18.420  0.00  0.00    +0.000 N 
ATOM     19  H   UNK A   2       4.650   6.413  18.158  0.00  0.00    +0.000 HD
BRANCH  18  20
ATOM     20  C   UNK A   2       6.762   6.063  18.007  0.00  0.00    +0.000 C 
BRANCH  20  21
ATOM     21  C   UNK A   2       6.846   7.543  17.620  0.00  0.00    +0.000 C 
ATOM     22  O   UNK A   2       7.794   8.075  17.058  0.00  0.00    +0.000 OA
ENDBRANCH  20  21
BRANCH  20  23
ATOM     23  C   UNK A   2       7.161   5.184  16.790  0.00  0.00    +0.000 C 
BRANCH  23  24
ATOM     24  C   UNK A   2       6.364   5.458  15.494  0.00  0.00    +0.000 C 
ATOM     25  C   UNK A   2       5.091   4.592  15.390  0.00  0.00    +0.000 C 
ATOM     26  C   UNK A   2       5.576   3.327  14.709  0.00  0.00    +0.000 C 
ATOM     27  N   UNK A   2       6.611   3.801  13.846  0.00  0.00    +0.000 N 
ATOM     28  C   UNK A   2       7.123   5.011  14.259  0.00  0.00    +0.000 C 
ATOM     29  O   UNK A   2       8.068   5.582  13.746  0.00  0.00    +0.000 OA
ATOM     30  H   UNK A   2       7.059   3.278  13.101  0.00  0.00    +0.000 HD
ENDBRANCH  23  24
ENDBRANCH  20  23
ENDBRANCH  18  20
ENDBRANCH   1  16
BRANCH   1  31
ATOM     31  CB  LEU A   1       2.534   4.601  18.274  0.00  0.00    +0.000 C 
BRANCH  31  33
ATOM     32  CD1 LEU A   1       2.797   2.158  17.529  0.00  0.00    +0.000 C 
ATOM     33  CG  LEU A   1       1.838   3.317  17.774  0.00  0.00    +0.000 C 
ATOM     34  CD2 LEU A   1       0.767   2.820  18.759  0.00  0.00    +0.000 C 
ENDBRANCH  31  33
ENDBRANCH   1  31
TORSDOF 11
ENDMDL
