MODEL 1
REMARK VINA RESULT:      -7.8      0.000      0.000
REMARK  Name = 
REMARK  7 active torsions:
REMARK  status: ('A' for Active; 'I' for Inactive)
REMARK    1  A    between atoms: C_1  and  O_2
REMARK    2  A    between atoms: O_2  and  C_3
REMARK    3  A    between atoms: C_4  and  C_5
REMARK    4  A    between atoms: C_9  and  C_10
REMARK    5  A    between atoms: C_17  and  C_18
REMARK    6  A    between atoms: C_18  and  C_19
REMARK    7  A    between atoms: C_19  and  O_21
REMARK                            x       y       z     vdW  Elec       q    Type
REMARK                         _______ _______ _______ _____ _____    ______ ____
ROOT
ATOM      1  C   UNL     1       2.409   4.922  18.191  0.00  0.00    +0.000 A 
ATOM      2  C   UNL     1       2.947   6.139  18.412  0.00  0.00    +0.000 A 
ATOM      3  O   UNL     1       4.154   6.591  17.918  0.00  0.00    +0.000 OA
ATOM      4  C   UNL     1       4.940   5.751  17.183  0.00  0.00    +0.000 A 
ATOM      5  C   UNL     1       6.181   6.238  16.736  0.00  0.00    +0.000 A 
ATOM      6  C   UNL     1       7.017   5.376  16.014  0.00  0.00    +0.000 A 
ATOM      7  C   UNL     1       6.621   4.067  15.730  0.00  0.00    +0.000 A 
ATOM      8  C   UNL     1       5.381   3.603  16.167  0.00  0.00    +0.000 A 
ATOM      9  C   UNL     1       4.538   4.449  16.891  0.00  0.00    +0.000 A 
ATOM     10  C   UNL     1       3.222   3.978  17.359  0.00  0.00    +0.000 A 
ATOM     11  O   UNL     1       2.852   2.851  17.055  0.00  0.00    +0.000 OA
ENDROOT
BRANCH   2  12
ATOM     12  C   UNL     1       2.333   7.166  19.269  0.00  0.00    +0.000 A 
ATOM     13  C   UNL     1       1.970   6.892  20.591  0.00  0.00    +0.000 A 
ATOM     14  C   UNL     1       1.209   7.814  21.313  0.00  0.00    +0.000 A 
ATOM     15  C   UNL     1       0.809   9.015  20.722  0.00  0.00    +0.000 A 
ATOM     16  C   UNL     1       1.181   9.316  19.405  0.00  0.00    +0.000 A 
ATOM     17  C   UNL     1       1.951   8.385  18.689  0.00  0.00    +0.000 A 
BRANCH  16  18
ATOM     18  C   UNL     1       0.742  10.594  18.733  0.00  0.00    +0.000 C 
ATOM     19  F   UNL     1       1.745  11.243  18.081  0.00  0.00    +0.000 F 
ATOM     20  F   UNL     1      -0.235  10.387  17.807  0.00  0.00    +0.000 F 
ATOM     21  F   UNL     1       0.230  11.494  19.619  0.00  0.00    +0.000 F 
ENDBRANCH  16  18
ENDBRANCH   2  12
BRANCH   1  23
ATOM     22  C   UNL     1       1.124   3.598  19.715  0.00  0.00    +0.000 C 
ATOM     23  O   UNL     1       1.161   4.598  18.701  0.00  0.00    +0.000 OA
ENDBRANCH   1  23
BRANCH   5  24
ATOM     24  C   UNL     1       6.655   7.639  17.072  0.00  0.00    +0.000 C 
BRANCH  24  25
ATOM     25  C   UNL     1       7.831   7.745  18.021  0.00  0.00    +0.000 C 
ATOM     26  O   UNL     1       8.180   6.822  18.743  0.00  0.00    +0.000 OA
BRANCH  25  27
ATOM     27  O   UNL     1       8.432   8.953  18.081  0.00  0.00    +0.000 OA
ATOM     28  H   UNL     1       8.032   9.578  18.717  0.00  0.00    +0.000 HD
ENDBRANCH  25  27
ENDBRANCH  24  25
ENDBRANCH   5  24
TORSDOF 6
ENDMDL
MODEL 2
REMARK VINA RESULT:      -7.7      0.219      1.005
REMARK  Name = 
REMARK  7 active torsions:
REMARK  status: ('A' for Active; 'I' for Inactive)
REMARK    1  A    between atoms: C_1  and  O_2
REMARK    2  A    between atoms: O_2  and  C_3
REMARK    3  A    between atoms: C_4  and  C_5
REMARK    4  A    between atoms: C_9  and  C_10
REMARK    5  A    between atoms: C_17  and  C_18
REMARK    6  A    between atoms: C_18  and  C_19
REMARK    7  A    between atoms: C_19  and  O_21
REMARK                            x       y       z     vdW  Elec       q    Type
REMARK                         _______ _______ _______ _____ _____    ______ ____
ROOT
ATOM      1  C   UNL     1       2.480   4.961  18.149  0.00  0.00    +0.000 A 
ATOM      2  C   UNL     1       3.009   6.177  18.395  0.00  0.00    +0.000 A 
ATOM      3  O   UNL     1       4.232   6.632  17.943  0.00  0.00    +0.000 OA
ATOM      4  C   UNL     1       5.041   5.797  17.228  0.00  0.00    +0.000 A 
ATOM      5  C   UNL     1       6.296   6.288  16.825  0.00  0.00    +0.000 A 
ATOM      6  C   UNL     1       7.155   5.431  16.124  0.00  0.00    +0.000 A 
ATOM      7  C   UNL     1       6.769   4.124  15.820  0.00  0.00    +0.000 A 
ATOM      8  C   UNL     1       5.517   3.656  16.214  0.00  0.00    +0.000 A 
ATOM      9  C   UNL     1       4.650   4.497  16.915  0.00  0.00    +0.000 A 
ATOM     10  C   UNL     1       3.320   4.022  17.338  0.00  0.00    +0.000 A 
ATOM     11  O   UNL     1       2.961   2.897  17.015  0.00  0.00    +0.000 OA
ENDROOT
BRANCH   2  12
ATOM     12  C   UNL     1       2.367   7.197  19.238  0.00  0.00    +0.000 A 
ATOM     13  C   UNL     1       2.092   6.962  20.588  0.00  0.00    +0.000 A 
ATOM     14  C   UNL     1       1.304   7.862  21.310  0.00  0.00    +0.000 A 
ATOM     15  C   UNL     1       0.790   9.003  20.689  0.00  0.00    +0.000 A 
ATOM     16  C   UNL     1       1.073   9.266  19.342  0.00  0.00    +0.000 A 
ATOM     17  C   UNL     1       1.870   8.359  18.627  0.00  0.00    +0.000 A 
BRANCH  16  18
ATOM     18  C   UNL     1       0.509  10.478  18.640  0.00  0.00    +0.000 C 
ATOM     19  F   UNL     1      -0.357  11.199  19.403  0.00  0.00    +0.000 F 
ATOM     20  F   UNL     1       1.478  11.351  18.248  0.00  0.00    +0.000 F 
ATOM     21  F   UNL     1      -0.175  10.149  17.509  0.00  0.00    +0.000 F 
ENDBRANCH  16  18
ENDBRANCH   2  12
BRANCH   1  23
ATOM     22  C   UNL     1       1.149   3.648  19.644  0.00  0.00    +0.000 C 
ATOM     23  O   UNL     1       1.216   4.633  18.617  0.00  0.00    +0.000 OA
ENDBRANCH   1  23
BRANCH   5  24
ATOM     24  C   UNL     1       6.757   7.687  17.185  0.00  0.00    +0.000 C 
BRANCH  24  25
ATOM     25  C   UNL     1       7.888   7.788  18.188  0.00  0.00    +0.000 C 
ATOM     26  O   UNL     1       8.562   8.799  18.323  0.00  0.00    +0.000 OA
BRANCH  25  27
ATOM     27  O   UNL     1       8.161   6.662  18.882  0.00  0.00    +0.000 OA
ATOM     28  H   UNL     1       7.612   5.890  18.641  0.00  0.00    +0.000 HD
ENDBRANCH  25  27
ENDBRANCH  24  25
ENDBRANCH   5  24
TORSDOF 6
ENDMDL
MODEL 3
REMARK VINA RESULT:      -7.3      7.285      9.974
REMARK  Name = 
REMARK  7 active torsions:
REMARK  status: ('A' for Active; 'I' for Inactive)
REMARK    1  A    between atoms: C_1  and  O_2
REMARK    2  A    between atoms: O_2  and  C_3
REMARK    3  A    between atoms: C_4  and  C_5
REMARK    4  A    between atoms: C_9  and  C_10
REMARK    5  A    between atoms: C_17  and  C_18
REMARK    6  A    between atoms: C_18  and  C_19
REMARK    7  A    between atoms: C_19  and  O_21
REMARK                            x       y       z     vdW  Elec       q    Type
REMARK                         _______ _______ _______ _____ _____    ______ ____
ROOT
ATOM      1  C   UNL     1      -4.659  12.032  18.519  0.00  0.00    +0.000 A 
ATOM      2  C   UNL     1      -4.253  12.544  19.698  0.00  0.00    +0.000 A 
ATOM      3  O   UNL     1      -2.996  12.402  20.251  0.00  0.00    +0.000 OA
ATOM      4  C   UNL     1      -2.061  11.637  19.615  0.00  0.00    +0.000 A 
ATOM      5  C   UNL     1      -0.808  11.483  20.235  0.00  0.00    +0.000 A 
ATOM      6  C   UNL     1       0.149  10.668  19.616  0.00  0.00    +0.000 A 
ATOM      7  C   UNL     1      -0.129  10.034  18.403  0.00  0.00    +0.000 A 
ATOM      8  C   UNL     1      -1.371  10.207  17.793  0.00  0.00    +0.000 A 
ATOM      9  C   UNL     1      -2.336  11.014  18.400  0.00  0.00    +0.000 A 
ATOM     10  C   UNL     1      -3.654  11.212  17.769  0.00  0.00    +0.000 A 
ATOM     11  O   UNL     1      -3.871  10.705  16.676  0.00  0.00    +0.000 OA
ENDROOT
BRANCH   2  12
ATOM     12  C   UNL     1      -5.124  13.306  20.608  0.00  0.00    +0.000 A 
ATOM     13  C   UNL     1      -5.284  14.688  20.479  0.00  0.00    +0.000 A 
ATOM     14  C   UNL     1      -5.949  15.412  21.472  0.00  0.00    +0.000 A 
ATOM     15  C   UNL     1      -6.463  14.758  22.595  0.00  0.00    +0.000 A 
ATOM     16  C   UNL     1      -6.331  13.370  22.730  0.00  0.00    +0.000 A 
ATOM     17  C   UNL     1      -5.665  12.651  21.725  0.00  0.00    +0.000 A 
BRANCH  16  18
ATOM     18  C   UNL     1      -6.854  12.643  23.945  0.00  0.00    +0.000 C 
ATOM     19  F   UNL     1      -5.875  12.131  24.740  0.00  0.00    +0.000 F 
ATOM     20  F   UNL     1      -7.607  13.445  24.748  0.00  0.00    +0.000 F 
ATOM     21  F   UNL     1      -7.655  11.592  23.614  0.00  0.00    +0.000 F 
ENDBRANCH  16  18
ENDBRANCH   2  12
BRANCH   1  23
ATOM     22  C   UNL     1      -6.914  11.271  18.260  0.00  0.00    +0.000 C 
ATOM     23  O   UNL     1      -5.936  12.284  18.041  0.00  0.00    +0.000 OA
ENDBRANCH   1  23
BRANCH   5  24
ATOM     24  C   UNL     1      -0.499  12.122  21.576  0.00  0.00    +0.000 C 
BRANCH  24  25
ATOM     25  C   UNL     1      -0.988  11.382  22.804  0.00  0.00    +0.000 C 
ATOM     26  O   UNL     1      -0.302  10.560  23.395  0.00  0.00    +0.000 OA
BRANCH  25  27
ATOM     27  O   UNL     1      -2.264  11.629  23.171  0.00  0.00    +0.000 OA
ATOM     28  H   UNL     1      -2.487  12.576  23.264  0.00  0.00    +0.000 HD
ENDBRANCH  25  27
ENDBRANCH  24  25
ENDBRANCH   5  24
TORSDOF 6
ENDMDL
MODEL 4
REMARK VINA RESULT:      -7.2      1.634      2.247
REMARK  Name = 
REMARK  7 active torsions:
REMARK  status: ('A' for Active; 'I' for Inactive)
REMARK    1  A    between atoms: C_1  and  O_2
REMARK    2  A    between atoms: O_2  and  C_3
REMARK    3  A    between atoms: C_4  and  C_5
REMARK    4  A    between atoms: C_9  and  C_10
REMARK    5  A    between atoms: C_17  and  C_18
REMARK    6  A    between atoms: C_18  and  C_19
REMARK    7  A    between atoms: C_19  and  O_21
REMARK                            x       y       z     vdW  Elec       q    Type
REMARK                         _______ _______ _______ _____ _____    ______ ____
ROOT
ATOM      1  C   UNL     1       2.755   5.310  18.458  0.00  0.00    +0.000 A 
ATOM      2  C   UNL     1       3.097   6.610  18.353  0.00  0.00    +0.000 A 
ATOM      3  O   UNL     1       4.335   7.092  17.977  0.00  0.00    +0.000 OA
ATOM      4  C   UNL     1       5.355   6.219  17.736  0.00  0.00    +0.000 A 
ATOM      5  C   UNL     1       6.611   6.755  17.399  0.00  0.00    +0.000 A 
ATOM      6  C   UNL     1       7.679   5.873  17.188  0.00  0.00    +0.000 A 
ATOM      7  C   UNL     1       7.499   4.492  17.294  0.00  0.00    +0.000 A 
ATOM      8  C   UNL     1       6.245   3.975  17.614  0.00  0.00    +0.000 A 
ATOM      9  C   UNL     1       5.171   4.841  17.831  0.00  0.00    +0.000 A 
ATOM     10  C   UNL     1       3.836   4.313  18.169  0.00  0.00    +0.000 A 
ATOM     11  O   UNL     1       3.667   3.101  18.199  0.00  0.00    +0.000 OA
ENDROOT
BRANCH   2  12
ATOM     12  C   UNL     1       2.193   7.726  18.675  0.00  0.00    +0.000 A 
ATOM     13  C   UNL     1       1.864   8.697  17.725  0.00  0.00    +0.000 A 
ATOM     14  C   UNL     1       1.174   9.848  18.111  0.00  0.00    +0.000 A 
ATOM     15  C   UNL     1       0.804  10.034  19.446  0.00  0.00    +0.000 A 
ATOM     16  C   UNL     1       1.106   9.061  20.408  0.00  0.00    +0.000 A 
ATOM     17  C   UNL     1       1.796   7.905  20.009  0.00  0.00    +0.000 A 
BRANCH  16  18
ATOM     18  C   UNL     1       0.741   9.248  21.860  0.00  0.00    +0.000 C 
ATOM     19  F   UNL     1       1.763   8.983  22.720  0.00  0.00    +0.000 F 
ATOM     20  F   UNL     1       0.339  10.519  22.137  0.00  0.00    +0.000 F 
ATOM     21  F   UNL     1      -0.287   8.441  22.243  0.00  0.00    +0.000 F 
ENDBRANCH  16  18
ENDBRANCH   2  12
BRANCH   1  23
ATOM     22  C   UNL     1       1.279   4.344  20.076  0.00  0.00    +0.000 C 
ATOM     23  O   UNL     1       1.461   4.944  18.796  0.00  0.00    +0.000 OA
ENDBRANCH   1  23
BRANCH   5  24
ATOM     24  C   UNL     1       6.844   8.252  17.325  0.00  0.00    +0.000 C 
BRANCH  24  25
ATOM     25  C   UNL     1       8.048   8.785  18.074  0.00  0.00    +0.000 C 
ATOM     26  O   UNL     1       8.494   9.909  17.891  0.00  0.00    +0.000 OA
BRANCH  25  27
ATOM     27  O   UNL     1       8.655   7.915  18.909  0.00  0.00    +0.000 OA
ATOM     28  H   UNL     1       9.621   7.837  18.787  0.00  0.00    +0.000 HD
ENDBRANCH  25  27
ENDBRANCH  24  25
ENDBRANCH   5  24
TORSDOF 6
ENDMDL
MODEL 5
REMARK VINA RESULT:      -7.2      2.162      4.821
REMARK  Name = 
REMARK  7 active torsions:
REMARK  status: ('A' for Active; 'I' for Inactive)
REMARK    1  A    between atoms: C_1  and  O_2
REMARK    2  A    between atoms: O_2  and  C_3
REMARK    3  A    between atoms: C_4  and  C_5
REMARK    4  A    between atoms: C_9  and  C_10
REMARK    5  A    between atoms: C_17  and  C_18
REMARK    6  A    between atoms: C_18  and  C_19
REMARK    7  A    between atoms: C_19  and  O_21
REMARK                            x       y       z     vdW  Elec       q    Type
REMARK                         _______ _______ _______ _____ _____    ______ ____
ROOT
ATOM      1  C   UNL     1       4.056   6.117  17.312  0.00  0.00    +0.000 A 
ATOM      2  C   UNL     1       3.027   6.202  18.179  0.00  0.00    +0.000 A 
ATOM      3  O   UNL     1       2.454   5.145  18.858  0.00  0.00    +0.000 OA
ATOM      4  C   UNL     1       2.891   3.874  18.622  0.00  0.00    +0.000 A 
ATOM      5  C   UNL     1       2.250   2.823  19.302  0.00  0.00    +0.000 A 
ATOM      6  C   UNL     1       2.660   1.509  19.041  0.00  0.00    +0.000 A 
ATOM      7  C   UNL     1       3.693   1.248  18.138  0.00  0.00    +0.000 A 
ATOM      8  C   UNL     1       4.329   2.301  17.483  0.00  0.00    +0.000 A 
ATOM      9  C   UNL     1       3.930   3.616  17.729  0.00  0.00    +0.000 A 
ATOM     10  C   UNL     1       4.592   4.743  17.048  0.00  0.00    +0.000 A 
ATOM     11  O   UNL     1       5.538   4.515  16.305  0.00  0.00    +0.000 OA
ENDROOT
BRANCH   2  12
ATOM     12  C   UNL     1       2.322   7.453  18.499  0.00  0.00    +0.000 A 
ATOM     13  C   UNL     1       2.313   8.533  17.612  0.00  0.00    +0.000 A 
ATOM     14  C   UNL     1       1.814   9.772  18.022  0.00  0.00    +0.000 A 
ATOM     15  C   UNL     1       1.318   9.938  19.317  0.00  0.00    +0.000 A 
ATOM     16  C   UNL     1       1.299   8.860  20.213  0.00  0.00    +0.000 A 
ATOM     17  C   UNL     1       1.798   7.619  19.790  0.00  0.00    +0.000 A 
BRANCH  16  18
ATOM     18  C   UNL     1       0.792   9.019  21.626  0.00  0.00    +0.000 C 
ATOM     19  F   UNL     1       0.275  10.251  21.887  0.00  0.00    +0.000 F 
ATOM     20  F   UNL     1      -0.192   8.128  21.929  0.00  0.00    +0.000 F 
ATOM     21  F   UNL     1       1.771   8.821  22.552  0.00  0.00    +0.000 F 
ENDBRANCH  16  18
ENDBRANCH   2  12
BRANCH   1  23
ATOM     22  C   UNL     1       5.926   7.591  17.065  0.00  0.00    +0.000 C 
ATOM     23  O   UNL     1       4.583   7.259  16.726  0.00  0.00    +0.000 OA
ENDBRANCH   1  23
BRANCH   5  24
ATOM     24  C   UNL     1       1.094   3.077  20.251  0.00  0.00    +0.000 C 
BRANCH  24  25
ATOM     25  C   UNL     1       1.426   3.095  21.729  0.00  0.00    +0.000 C 
ATOM     26  O   UNL     1       2.344   3.757  22.191  0.00  0.00    +0.000 OA
BRANCH  25  27
ATOM     27  O   UNL     1       0.690   2.272  22.508  0.00  0.00    +0.000 OA
ATOM     28  H   UNL     1       0.467   1.413  22.099  0.00  0.00    +0.000 HD
ENDBRANCH  25  27
ENDBRANCH  24  25
ENDBRANCH   5  24
TORSDOF 6
ENDMDL
MODEL 6
REMARK VINA RESULT:      -7.0      4.762      8.882
REMARK  Name = 
REMARK  7 active torsions:
REMARK  status: ('A' for Active; 'I' for Inactive)
REMARK    1  A    between atoms: C_1  and  O_2
REMARK    2  A    between atoms: O_2  and  C_3
REMARK    3  A    between atoms: C_4  and  C_5
REMARK    4  A    between atoms: C_9  and  C_10
REMARK    5  A    between atoms: C_17  and  C_18
REMARK    6  A    between atoms: C_18  and  C_19
REMARK    7  A    between atoms: C_19  and  O_21
REMARK                            x       y       z     vdW  Elec       q    Type
REMARK                         _______ _______ _______ _____ _____    ______ ____
ROOT
ATOM      1  C   UNL     1       0.173  11.663  20.438  0.00  0.00    +0.000 A 
ATOM      2  C   UNL     1       0.054  10.769  19.436  0.00  0.00    +0.000 A 
ATOM      3  O   UNL     1      -1.078  10.553  18.676  0.00  0.00    +0.000 OA
ATOM      4  C   UNL     1      -2.223  11.239  18.961  0.00  0.00    +0.000 A 
ATOM      5  C   UNL     1      -3.364  10.957  18.189  0.00  0.00    +0.000 A 
ATOM      6  C   UNL     1      -4.559  11.623  18.494  0.00  0.00    +0.000 A 
ATOM      7  C   UNL     1      -4.612  12.558  19.531  0.00  0.00    +0.000 A 
ATOM      8  C   UNL     1      -3.469  12.837  20.277  0.00  0.00    +0.000 A 
ATOM      9  C   UNL     1      -2.271  12.179  19.988  0.00  0.00    +0.000 A 
ATOM     10  C   UNL     1      -1.050  12.464  20.764  0.00  0.00    +0.000 A 
ATOM     11  O   UNL     1      -1.086  13.328  21.630  0.00  0.00    +0.000 OA
ENDROOT
BRANCH   2  12
ATOM     12  C   UNL     1       1.123   9.841  19.031  0.00  0.00    +0.000 A 
ATOM     13  C   UNL     1       1.891  10.068  17.886  0.00  0.00    +0.000 A 
ATOM     14  C   UNL     1       2.754   9.076  17.414  0.00  0.00    +0.000 A 
ATOM     15  C   UNL     1       2.858   7.855  18.085  0.00  0.00    +0.000 A 
ATOM     16  C   UNL     1       2.111   7.618  19.247  0.00  0.00    +0.000 A 
ATOM     17  C   UNL     1       1.251   8.623  19.716  0.00  0.00    +0.000 A 
BRANCH  16  18
ATOM     18  C   UNL     1       2.185   6.299  19.976  0.00  0.00    +0.000 C 
ATOM     19  F   UNL     1       3.457   5.869  20.202  0.00  0.00    +0.000 F 
ATOM     20  F   UNL     1       1.583   6.344  21.197  0.00  0.00    +0.000 F 
ATOM     21  F   UNL     1       1.568   5.295  19.293  0.00  0.00    +0.000 F 
ENDBRANCH  16  18
ENDBRANCH   2  12
BRANCH   1  23
ATOM     22  C   UNL     1       2.169  12.953  20.729  0.00  0.00    +0.000 C 
ATOM     23  O   UNL     1       1.381  11.826  21.101  0.00  0.00    +0.000 OA
ENDBRANCH   1  23
BRANCH   5  24
ATOM     24  C   UNL     1      -3.345   9.912  17.090  0.00  0.00    +0.000 C 
BRANCH  24  25
ATOM     25  C   UNL     1      -3.013  10.404  15.696  0.00  0.00    +0.000 C 
ATOM     26  O   UNL     1      -2.540   9.676  14.835  0.00  0.00    +0.000 OA
BRANCH  25  27
ATOM     27  O   UNL     1      -3.201  11.724  15.478  0.00  0.00    +0.000 OA
ATOM     28  H   UNL     1      -3.758  12.173  16.143  0.00  0.00    +0.000 HD
ENDBRANCH  25  27
ENDBRANCH  24  25
ENDBRANCH   5  24
TORSDOF 6
ENDMDL
MODEL 7
REMARK VINA RESULT:      -7.0      4.184      7.269
REMARK  Name = 
REMARK  7 active torsions:
REMARK  status: ('A' for Active; 'I' for Inactive)
REMARK    1  A    between atoms: C_1  and  O_2
REMARK    2  A    between atoms: O_2  and  C_3
REMARK    3  A    between atoms: C_4  and  C_5
REMARK    4  A    between atoms: C_9  and  C_10
REMARK    5  A    between atoms: C_17  and  C_18
REMARK    6  A    between atoms: C_18  and  C_19
REMARK    7  A    between atoms: C_19  and  O_21
REMARK                            x       y       z     vdW  Elec       q    Type
REMARK                         _______ _______ _______ _____ _____    ______ ____
ROOT
ATOM      1  C   UNL     1       3.797   6.074  17.433  0.00  0.00    +0.000 A 
ATOM      2  C   UNL     1       4.356   4.866  17.215  0.00  0.00    +0.000 A 
ATOM      3  O   UNL     1       4.040   3.697  17.878  0.00  0.00    +0.000 OA
ATOM      4  C   UNL     1       3.129   3.723  18.894  0.00  0.00    +0.000 A 
ATOM      5  C   UNL     1       2.868   2.519  19.572  0.00  0.00    +0.000 A 
ATOM      6  C   UNL     1       1.965   2.536  20.643  0.00  0.00    +0.000 A 
ATOM      7  C   UNL     1       1.325   3.718  21.020  0.00  0.00    +0.000 A 
ATOM      8  C   UNL     1       1.582   4.901  20.330  0.00  0.00    +0.000 A 
ATOM      9  C   UNL     1       2.483   4.902  19.261  0.00  0.00    +0.000 A 
ATOM     10  C   UNL     1       2.765   6.143  18.517  0.00  0.00    +0.000 A 
ATOM     11  O   UNL     1       2.156   7.163  18.810  0.00  0.00    +0.000 OA
ENDROOT
BRANCH   2  12
ATOM     12  C   UNL     1       5.440   4.625  16.249  0.00  0.00    +0.000 A 
ATOM     13  C   UNL     1       6.751   5.039  16.505  0.00  0.00    +0.000 A 
ATOM     14  C   UNL     1       7.713   4.981  15.493  0.00  0.00    +0.000 A 
ATOM     15  C   UNL     1       7.373   4.506  14.224  0.00  0.00    +0.000 A 
ATOM     16  C   UNL     1       6.070   4.066  13.956  0.00  0.00    +0.000 A 
ATOM     17  C   UNL     1       5.112   4.123  14.980  0.00  0.00    +0.000 A 
BRANCH  16  18
ATOM     18  C   UNL     1       5.670   3.572  12.588  0.00  0.00    +0.000 C 
ATOM     19  F   UNL     1       5.845   2.232  12.416  0.00  0.00    +0.000 F 
ATOM     20  F   UNL     1       4.360   3.817  12.307  0.00  0.00    +0.000 F 
ATOM     21  F   UNL     1       6.382   4.171  11.593  0.00  0.00    +0.000 F 
ENDBRANCH  16  18
ENDBRANCH   2  12
BRANCH   1  23
ATOM     22  C   UNL     1       5.161   8.028  17.210  0.00  0.00    +0.000 C 
ATOM     23  O   UNL     1       4.162   7.170  16.666  0.00  0.00    +0.000 OA
ENDBRANCH   1  23
BRANCH   5  24
ATOM     24  C   UNL     1       3.586   1.232  19.212  0.00  0.00    +0.000 C 
BRANCH  24  25
ATOM     25  C   UNL     1       4.853   0.927  19.986  0.00  0.00    +0.000 C 
ATOM     26  O   UNL     1       5.307   1.683  20.832  0.00  0.00    +0.000 OA
BRANCH  25  27
ATOM     27  O   UNL     1       5.501  -0.204  19.631  0.00  0.00    +0.000 OA
ATOM     28  H   UNL     1       5.073  -0.714  18.916  0.00  0.00    +0.000 HD
ENDBRANCH  25  27
ENDBRANCH  24  25
ENDBRANCH   5  24
TORSDOF 6
ENDMDL
MODEL 8
REMARK VINA RESULT:      -7.0      4.537      8.369
REMARK  Name = 
REMARK  7 active torsions:
REMARK  status: ('A' for Active; 'I' for Inactive)
REMARK    1  A    between atoms: C_1  and  O_2
REMARK    2  A    between atoms: O_2  and  C_3
REMARK    3  A    between atoms: C_4  and  C_5
REMARK    4  A    between atoms: C_9  and  C_10
REMARK    5  A    between atoms: C_17  and  C_18
REMARK    6  A    between atoms: C_18  and  C_19
REMARK    7  A    between atoms: C_19  and  O_21
REMARK                            x       y       z     vdW  Elec       q    Type
REMARK                         _______ _______ _______ _____ _____    ______ ____
ROOT
ATOM      1  C   UNL     1       0.833  10.249  20.940  0.00  0.00    +0.000 A 
ATOM      2  C   UNL     1       0.745   9.570  19.778  0.00  0.00    +0.000 A 
ATOM      3  O   UNL     1      -0.229   9.741  18.815  0.00  0.00    +0.000 OA
ATOM      4  C   UNL     1      -1.247  10.623  19.033  0.00  0.00    +0.000 A 
ATOM      5  C   UNL     1      -2.241  10.734  18.044  0.00  0.00    +0.000 A 
ATOM      6  C   UNL     1      -3.316  11.605  18.271  0.00  0.00    +0.000 A 
ATOM      7  C   UNL     1      -3.391  12.357  19.445  0.00  0.00    +0.000 A 
ATOM      8  C   UNL     1      -2.391  12.247  20.409  0.00  0.00    +0.000 A 
ATOM      9  C   UNL     1      -1.315  11.381  20.200  0.00  0.00    +0.000 A 
ATOM     10  C   UNL     1      -0.246  11.253  21.207  0.00  0.00    +0.000 A 
ATOM     11  O   UNL     1      -0.284  11.960  22.206  0.00  0.00    +0.000 OA
ENDROOT
BRANCH   2  12
ATOM     12  C   UNL     1       1.667   8.493  19.384  0.00  0.00    +0.000 A 
ATOM     13  C   UNL     1       2.470   8.599  18.245  0.00  0.00    +0.000 A 
ATOM     14  C   UNL     1       3.179   7.489  17.782  0.00  0.00    +0.000 A 
ATOM     15  C   UNL     1       3.094   6.268  18.456  0.00  0.00    +0.000 A 
ATOM     16  C   UNL     1       2.311   6.147  19.612  0.00  0.00    +0.000 A 
ATOM     17  C   UNL     1       1.606   7.271  20.072  0.00  0.00    +0.000 A 
BRANCH  16  18
ATOM     18  C   UNL     1       2.182   4.834  20.343  0.00  0.00    +0.000 C 
ATOM     19  F   UNL     1       0.957   4.253  20.213  0.00  0.00    +0.000 F 
ATOM     20  F   UNL     1       3.083   3.908  19.915  0.00  0.00    +0.000 F 
ATOM     21  F   UNL     1       2.391   4.966  21.683  0.00  0.00    +0.000 F 
ENDBRANCH  16  18
ENDBRANCH   2  12
BRANCH   1  23
ATOM     22  C   UNL     1       1.601   9.273  22.987  0.00  0.00    +0.000 C 
ATOM     23  O   UNL     1       1.889  10.025  21.811  0.00  0.00    +0.000 OA
ENDBRANCH   1  23
BRANCH   5  24
ATOM     24  C   UNL     1      -2.207   9.892  16.783  0.00  0.00    +0.000 C 
BRANCH  24  25
ATOM     25  C   UNL     1      -3.043  10.385  15.620  0.00  0.00    +0.000 C 
ATOM     26  O   UNL     1      -3.666   9.629  14.888  0.00  0.00    +0.000 OA
BRANCH  25  27
ATOM     27  O   UNL     1      -3.002  11.715  15.387  0.00  0.00    +0.000 OA
ATOM     28  H   UNL     1      -3.817  12.088  14.998  0.00  0.00    +0.000 HD
ENDBRANCH  25  27
ENDBRANCH  24  25
ENDBRANCH   5  24
TORSDOF 6
ENDMDL
MODEL 9
REMARK VINA RESULT:      -7.0      3.116      5.238
REMARK  Name = 
REMARK  7 active torsions:
REMARK  status: ('A' for Active; 'I' for Inactive)
REMARK    1  A    between atoms: C_1  and  O_2
REMARK    2  A    between atoms: O_2  and  C_3
REMARK    3  A    between atoms: C_4  and  C_5
REMARK    4  A    between atoms: C_9  and  C_10
REMARK    5  A    between atoms: C_17  and  C_18
REMARK    6  A    between atoms: C_18  and  C_19
REMARK    7  A    between atoms: C_19  and  O_21
REMARK                            x       y       z     vdW  Elec       q    Type
REMARK                         _______ _______ _______ _____ _____    ______ ____
ROOT
ATOM      1  C   UNL     1       1.679   9.255  18.924  0.00  0.00    +0.000 A 
ATOM      2  C   UNL     1       1.409   8.708  20.126  0.00  0.00    +0.000 A 
ATOM      3  O   UNL     1       1.727   7.423  20.519  0.00  0.00    +0.000 OA
ATOM      4  C   UNL     1       2.318   6.572  19.630  0.00  0.00    +0.000 A 
ATOM      5  C   UNL     1       2.585   5.260  20.059  0.00  0.00    +0.000 A 
ATOM      6  C   UNL     1       3.154   4.361  19.146  0.00  0.00    +0.000 A 
ATOM      7  C   UNL     1       3.464   4.763  17.845  0.00  0.00    +0.000 A 
ATOM      8  C   UNL     1       3.206   6.071  17.439  0.00  0.00    +0.000 A 
ATOM      9  C   UNL     1       2.636   6.978  18.336  0.00  0.00    +0.000 A 
ATOM     10  C   UNL     1       2.358   8.367  17.926  0.00  0.00    +0.000 A 
ATOM     11  O   UNL     1       2.688   8.732  16.805  0.00  0.00    +0.000 OA
ENDROOT
BRANCH   2  12
ATOM     12  C   UNL     1       0.677   9.401  21.199  0.00  0.00    +0.000 A 
ATOM     13  C   UNL     1       0.654   8.905  22.505  0.00  0.00    +0.000 A 
ATOM     14  C   UNL     1      -0.208   9.464  23.451  0.00  0.00    +0.000 A 
ATOM     15  C   UNL     1      -1.047  10.524  23.100  0.00  0.00    +0.000 A 
ATOM     16  C   UNL     1      -1.022  11.049  21.801  0.00  0.00    +0.000 A 
ATOM     17  C   UNL     1      -0.149  10.483  20.859  0.00  0.00    +0.000 A 
BRANCH  16  18
ATOM     18  C   UNL     1      -1.936  12.176  21.388  0.00  0.00    +0.000 C 
ATOM     19  F   UNL     1      -2.983  12.371  22.237  0.00  0.00    +0.000 F 
ATOM     20  F   UNL     1      -1.288  13.372  21.313  0.00  0.00    +0.000 F 
ATOM     21  F   UNL     1      -2.486  11.973  20.158  0.00  0.00    +0.000 F 
ENDBRANCH  16  18
ENDBRANCH   2  12
BRANCH   1  23
ATOM     22  C   UNL     1       2.422  11.433  18.264  0.00  0.00    +0.000 C 
ATOM     23  O   UNL     1       1.354  10.577  18.660  0.00  0.00    +0.000 OA
ENDBRANCH   1  23
BRANCH   5  24
ATOM     24  C   UNL     1       2.215   4.785  21.451  0.00  0.00    +0.000 C 
BRANCH  24  25
ATOM     25  C   UNL     1       1.913   3.309  21.603  0.00  0.00    +0.000 C 
ATOM     26  O   UNL     1       2.714   2.518  22.081  0.00  0.00    +0.000 OA
BRANCH  25  27
ATOM     27  O   UNL     1       0.727   2.896  21.107  0.00  0.00    +0.000 OA
ATOM     28  H   UNL     1       0.422   3.384  20.317  0.00  0.00    +0.000 HD
ENDBRANCH  25  27
ENDBRANCH  24  25
ENDBRANCH   5  24
TORSDOF 6
ENDMDL
