MODEL 1
REMARK VINA RESULT:      -6.9      0.000      0.000
REMARK  Name = 
REMARK  2 active torsions:
REMARK  status: ('A' for Active; 'I' for Inactive)
REMARK    1  A    between atoms: C_1  and  C_2
REMARK    2  A    between atoms: C_6  and  C_7
REMARK                            x       y       z     vdW  Elec       q    Type
REMARK                         _______ _______ _______ _____ _____    ______ ____
ROOT
ATOM      1  C   UNL     1       7.481   5.195  12.210  0.00  0.00    +0.000 C 
ATOM      2  C   UNL     1       7.444   4.525  13.577  0.00  0.00    +0.000 C 
ATOM      3  C   UNL     1       6.044   3.988  13.915  0.00  0.00    +0.000 C 
ATOM      4  C   UNL     1       5.795   4.676  15.199  0.00  0.00    +0.000 A 
ATOM      5  C   UNL     1       4.685   4.605  16.023  0.00  0.00    +0.000 A 
ATOM      6  C   UNL     1       4.669   5.379  17.191  0.00  0.00    +0.000 A 
ATOM      7  C   UNL     1       5.774   6.188  17.516  0.00  0.00    +0.000 A 
ATOM      8  C   UNL     1       6.887   6.247  16.669  0.00  0.00    +0.000 A 
ATOM      9  C   UNL     1       6.865   5.491  15.514  0.00  0.00    +0.000 A 
ATOM     10  O   UNL     1       7.865   5.487  14.580  0.00  0.00    +0.000 OA
ENDROOT
BRANCH   6  11
ATOM     11  C   UNL     1       3.473   5.388  18.032  0.00  0.00    +0.000 C 
ATOM     12  C   UNL     1       3.227   4.556  19.053  0.00  0.00    +0.000 C 
ATOM     13  S   UNL     1       1.733   4.583  19.937  0.00  0.00    +0.000 S 
ATOM     14  C   UNL     1       2.192   3.216  20.922  0.00  0.00    +0.000 C 
ATOM     15  S   UNL     1       1.269   2.489  22.089  0.00  0.00    +0.000 S 
ATOM     16  N   UNL     1       3.447   2.813  20.592  0.00  0.00    +0.000 N 
ATOM     17  C   UNL     1       4.105   3.480  19.596  0.00  0.00    +0.000 C 
ATOM     18  O   UNL     1       5.239   3.212  19.237  0.00  0.00    +0.000 OA
ATOM     19  H   UNL     1       3.899   2.044  21.063  0.00  0.00    +0.000 HD
ENDBRANCH   6  11
TORSDOF 1
ENDMDL
MODEL 2
REMARK VINA RESULT:      -6.2      2.932      3.485
REMARK  Name = 
REMARK  2 active torsions:
REMARK  status: ('A' for Active; 'I' for Inactive)
REMARK    1  A    between atoms: C_1  and  C_2
REMARK    2  A    between atoms: C_6  and  C_7
REMARK                            x       y       z     vdW  Elec       q    Type
REMARK                         _______ _______ _______ _____ _____    ______ ____
ROOT
ATOM      1  C   UNL     1       7.022   4.842  13.505  0.00  0.00    +0.000 C 
ATOM      2  C   UNL     1       6.723   4.028  14.757  0.00  0.00    +0.000 C 
ATOM      3  C   UNL     1       5.225   4.036  15.104  0.00  0.00    +0.000 C 
ATOM      4  C   UNL     1       5.275   4.548  16.489  0.00  0.00    +0.000 A 
ATOM      5  C   UNL     1       4.230   4.786  17.366  0.00  0.00    +0.000 A 
ATOM      6  C   UNL     1       4.526   5.303  18.634  0.00  0.00    +0.000 A 
ATOM      7  C   UNL     1       5.863   5.548  19.002  0.00  0.00    +0.000 A 
ATOM      8  C   UNL     1       6.904   5.302  18.100  0.00  0.00    +0.000 A 
ATOM      9  C   UNL     1       6.581   4.815  16.850  0.00  0.00    +0.000 A 
ATOM     10  O   UNL     1       7.495   4.570  15.861  0.00  0.00    +0.000 OA
ENDROOT
BRANCH   6  11
ATOM     11  C   UNL     1       3.434   5.644  19.545  0.00  0.00    +0.000 C 
ATOM     12  C   UNL     1       2.681   6.749  19.487  0.00  0.00    +0.000 C 
ATOM     13  S   UNL     1       1.465   7.112  20.672  0.00  0.00    +0.000 S 
ATOM     14  C   UNL     1       1.090   8.654  19.942  0.00  0.00    +0.000 C 
ATOM     15  S   UNL     1      -0.007   9.763  20.493  0.00  0.00    +0.000 S 
ATOM     16  N   UNL     1       1.847   8.829  18.827  0.00  0.00    +0.000 N 
ATOM     17  C   UNL     1       2.736   7.849  18.481  0.00  0.00    +0.000 C 
ATOM     18  O   UNL     1       3.447   7.898  17.491  0.00  0.00    +0.000 OA
ATOM     19  H   UNL     1       1.764   9.654  18.253  0.00  0.00    +0.000 HD
ENDBRANCH   6  11
TORSDOF 1
ENDMDL
MODEL 3
REMARK VINA RESULT:      -6.1      4.069      5.099
REMARK  Name = 
REMARK  2 active torsions:
REMARK  status: ('A' for Active; 'I' for Inactive)
REMARK    1  A    between atoms: C_1  and  C_2
REMARK    2  A    between atoms: C_6  and  C_7
REMARK                            x       y       z     vdW  Elec       q    Type
REMARK                         _______ _______ _______ _____ _____    ______ ____
ROOT
ATOM      1  C   UNL     1       7.045   4.384  15.811  0.00  0.00    +0.000 C 
ATOM      2  C   UNL     1       5.712   5.113  15.707  0.00  0.00    +0.000 C 
ATOM      3  C   UNL     1       5.658   6.346  16.624  0.00  0.00    +0.000 C 
ATOM      4  C   UNL     1       4.451   6.037  17.417  0.00  0.00    +0.000 A 
ATOM      5  C   UNL     1       3.863   6.776  18.430  0.00  0.00    +0.000 A 
ATOM      6  C   UNL     1       2.723   6.260  19.060  0.00  0.00    +0.000 A 
ATOM      7  C   UNL     1       2.185   5.027  18.644  0.00  0.00    +0.000 A 
ATOM      8  C   UNL     1       2.794   4.295  17.619  0.00  0.00    +0.000 A 
ATOM      9  C   UNL     1       3.930   4.817  17.033  0.00  0.00    +0.000 A 
ATOM     10  O   UNL     1       4.647   4.188  16.052  0.00  0.00    +0.000 OA
ENDROOT
BRANCH   6  11
ATOM     11  C   UNL     1       2.136   6.980  20.189  0.00  0.00    +0.000 C 
ATOM     12  C   UNL     1       1.573   8.194  20.138  0.00  0.00    +0.000 C 
ATOM     13  S   UNL     1       0.985   9.009  21.553  0.00  0.00    +0.000 S 
ATOM     14  C   UNL     1       0.558  10.444  20.655  0.00  0.00    +0.000 C 
ATOM     15  S   UNL     1      -0.076  11.841  21.275  0.00  0.00    +0.000 S 
ATOM     16  N   UNL     1       0.827  10.257  19.337  0.00  0.00    +0.000 N 
ATOM     17  C   UNL     1       1.370   9.064  18.944  0.00  0.00    +0.000 C 
ATOM     18  O   UNL     1       1.630   8.787  17.785  0.00  0.00    +0.000 OA
ATOM     19  H   UNL     1       0.633  10.968  18.648  0.00  0.00    +0.000 HD
ENDBRANCH   6  11
TORSDOF 1
ENDMDL
MODEL 4
REMARK VINA RESULT:      -6.0      4.342      5.908
REMARK  Name = 
REMARK  2 active torsions:
REMARK  status: ('A' for Active; 'I' for Inactive)
REMARK    1  A    between atoms: C_1  and  C_2
REMARK    2  A    between atoms: C_6  and  C_7
REMARK                            x       y       z     vdW  Elec       q    Type
REMARK                         _______ _______ _______ _____ _____    ______ ____
ROOT
ATOM      1  C   UNL     1       3.487   1.543  18.199  0.00  0.00    +0.000 C 
ATOM      2  C   UNL     1       3.619   2.777  19.081  0.00  0.00    +0.000 C 
ATOM      3  C   UNL     1       2.304   3.570  19.163  0.00  0.00    +0.000 C 
ATOM      4  C   UNL     1       2.764   4.899  18.710  0.00  0.00    +0.000 A 
ATOM      5  C   UNL     1       2.035   6.067  18.564  0.00  0.00    +0.000 A 
ATOM      6  C   UNL     1       2.693   7.210  18.089  0.00  0.00    +0.000 A 
ATOM      7  C   UNL     1       4.068   7.161  17.794  0.00  0.00    +0.000 A 
ATOM      8  C   UNL     1       4.786   5.970  17.948  0.00  0.00    +0.000 A 
ATOM      9  C   UNL     1       4.108   4.854  18.395  0.00  0.00    +0.000 A 
ATOM     10  O   UNL     1       4.677   3.620  18.550  0.00  0.00    +0.000 OA
ENDROOT
BRANCH   6  11
ATOM     11  C   UNL     1       1.926   8.431  17.844  0.00  0.00    +0.000 C 
ATOM     12  C   UNL     1       1.277   9.148  18.770  0.00  0.00    +0.000 C 
ATOM     13  S   UNL     1       0.315  10.537  18.368  0.00  0.00    +0.000 S 
ATOM     14  C   UNL     1      -0.204  10.763  20.020  0.00  0.00    +0.000 C 
ATOM     15  S   UNL     1      -1.251  11.920  20.573  0.00  0.00    +0.000 S 
ATOM     16  N   UNL     1       0.382   9.831  20.816  0.00  0.00    +0.000 N 
ATOM     17  C   UNL     1       1.216   8.912  20.241  0.00  0.00    +0.000 C 
ATOM     18  O   UNL     1       1.806   8.048  20.867  0.00  0.00    +0.000 OA
ATOM     19  H   UNL     1       0.221   9.806  21.812  0.00  0.00    +0.000 HD
ENDBRANCH   6  11
TORSDOF 1
ENDMDL
MODEL 5
REMARK VINA RESULT:      -6.0      2.246      2.668
REMARK  Name = 
REMARK  2 active torsions:
REMARK  status: ('A' for Active; 'I' for Inactive)
REMARK    1  A    between atoms: C_1  and  C_2
REMARK    2  A    between atoms: C_6  and  C_7
REMARK                            x       y       z     vdW  Elec       q    Type
REMARK                         _______ _______ _______ _____ _____    ______ ____
ROOT
ATOM      1  C   UNL     1       7.270   5.207  12.475  0.00  0.00    +0.000 C 
ATOM      2  C   UNL     1       7.084   4.135  13.541  0.00  0.00    +0.000 C 
ATOM      3  C   UNL     1       5.607   3.957  13.927  0.00  0.00    +0.000 C 
ATOM      4  C   UNL     1       5.683   4.178  15.386  0.00  0.00    +0.000 A 
ATOM      5  C   UNL     1       4.664   4.151  16.323  0.00  0.00    +0.000 A 
ATOM      6  C   UNL     1       4.980   4.421  17.661  0.00  0.00    +0.000 A 
ATOM      7  C   UNL     1       6.312   4.689  18.031  0.00  0.00    +0.000 A 
ATOM      8  C   UNL     1       7.327   4.712  17.068  0.00  0.00    +0.000 A 
ATOM      9  C   UNL     1       6.983   4.466  15.754  0.00  0.00    +0.000 A 
ATOM     10  O   UNL     1       7.865   4.499  14.710  0.00  0.00    +0.000 OA
ENDROOT
BRANCH   6  11
ATOM     11  C   UNL     1       3.909   4.484  18.655  0.00  0.00    +0.000 C 
ATOM     12  C   UNL     1       3.230   5.583  19.006  0.00  0.00    +0.000 C 
ATOM     13  S   UNL     1       2.035   5.578  20.266  0.00  0.00    +0.000 S 
ATOM     14  C   UNL     1       1.764   7.298  20.135  0.00  0.00    +0.000 C 
ATOM     15  S   UNL     1       0.739   8.206  21.064  0.00  0.00    +0.000 S 
ATOM     16  N   UNL     1       2.535   7.809  19.140  0.00  0.00    +0.000 N 
ATOM     17  C   UNL     1       3.360   6.962  18.452  0.00  0.00    +0.000 C 
ATOM     18  O   UNL     1       4.076   7.314  17.530  0.00  0.00    +0.000 OA
ATOM     19  H   UNL     1       2.508   8.788  18.896  0.00  0.00    +0.000 HD
ENDBRANCH   6  11
TORSDOF 1
ENDMDL
MODEL 6
REMARK VINA RESULT:      -5.9      4.037      5.042
REMARK  Name = 
REMARK  2 active torsions:
REMARK  status: ('A' for Active; 'I' for Inactive)
REMARK    1  A    between atoms: C_1  and  C_2
REMARK    2  A    between atoms: C_6  and  C_7
REMARK                            x       y       z     vdW  Elec       q    Type
REMARK                         _______ _______ _______ _____ _____    ______ ____
ROOT
ATOM      1  C   UNL     1       7.362   4.606  17.620  0.00  0.00    +0.000 C 
ATOM      2  C   UNL     1       6.189   5.063  16.763  0.00  0.00    +0.000 C 
ATOM      3  C   UNL     1       5.983   6.584  16.834  0.00  0.00    +0.000 C 
ATOM      4  C   UNL     1       4.574   6.644  17.274  0.00  0.00    +0.000 A 
ATOM      5  C   UNL     1       3.787   7.756  17.524  0.00  0.00    +0.000 A 
ATOM      6  C   UNL     1       2.471   7.558  17.962  0.00  0.00    +0.000 A 
ATOM      7  C   UNL     1       1.968   6.253  18.118  0.00  0.00    +0.000 A 
ATOM      8  C   UNL     1       2.780   5.142  17.861  0.00  0.00    +0.000 A 
ATOM      9  C   UNL     1       4.079   5.367  17.453  0.00  0.00    +0.000 A 
ATOM     10  O   UNL     1       4.990   4.375  17.209  0.00  0.00    +0.000 OA
ENDROOT
BRANCH   6  11
ATOM     11  C   UNL     1       1.649   8.715  18.315  0.00  0.00    +0.000 C 
ATOM     12  C   UNL     1       1.206   9.016  19.542  0.00  0.00    +0.000 C 
ATOM     13  S   UNL     1       0.155  10.364  19.849  0.00  0.00    +0.000 S 
ATOM     14  C   UNL     1       0.005   9.972  21.544  0.00  0.00    +0.000 C 
ATOM     15  S   UNL     1      -0.915  10.774  22.662  0.00  0.00    +0.000 S 
ATOM     16  N   UNL     1       0.767   8.885  21.833  0.00  0.00    +0.000 N 
ATOM     17  C   UNL     1       1.471   8.294  20.820  0.00  0.00    +0.000 C 
ATOM     18  O   UNL     1       2.199   7.328  20.975  0.00  0.00    +0.000 OA
ATOM     19  H   UNL     1       0.828   8.512  22.768  0.00  0.00    +0.000 HD
ENDBRANCH   6  11
TORSDOF 1
ENDMDL
MODEL 7
REMARK VINA RESULT:      -5.9      4.806      6.082
REMARK  Name = 
REMARK  2 active torsions:
REMARK  status: ('A' for Active; 'I' for Inactive)
REMARK    1  A    between atoms: C_1  and  C_2
REMARK    2  A    between atoms: C_6  and  C_7
REMARK                            x       y       z     vdW  Elec       q    Type
REMARK                         _______ _______ _______ _____ _____    ______ ____
ROOT
ATOM      1  C   UNL     1       4.638   1.813  20.683  0.00  0.00    +0.000 C 
ATOM      2  C   UNL     1       4.520   2.453  19.307  0.00  0.00    +0.000 C 
ATOM      3  C   UNL     1       5.059   3.893  19.294  0.00  0.00    +0.000 C 
ATOM      4  C   UNL     1       3.876   4.618  18.787  0.00  0.00    +0.000 A 
ATOM      5  C   UNL     1       3.723   5.973  18.547  0.00  0.00    +0.000 A 
ATOM      6  C   UNL     1       2.483   6.434  18.085  0.00  0.00    +0.000 A 
ATOM      7  C   UNL     1       1.434   5.525  17.853  0.00  0.00    +0.000 A 
ATOM      8  C   UNL     1       1.608   4.159  18.103  0.00  0.00    +0.000 A 
ATOM      9  C   UNL     1       2.833   3.736  18.579  0.00  0.00    +0.000 A 
ATOM     10  O   UNL     1       3.125   2.439  18.904  0.00  0.00    +0.000 OA
ENDROOT
BRANCH   6  11
ATOM     11  C   UNL     1       2.270   7.870  17.908  0.00  0.00    +0.000 C 
ATOM     12  C   UNL     1       1.788   8.711  18.832  0.00  0.00    +0.000 C 
ATOM     13  S   UNL     1       1.482  10.387  18.497  0.00  0.00    +0.000 S 
ATOM     14  C   UNL     1       0.821  10.673  20.088  0.00  0.00    +0.000 C 
ATOM     15  S   UNL     1       0.197  12.098  20.654  0.00  0.00    +0.000 S 
ATOM     16  N   UNL     1       0.886   9.532  20.824  0.00  0.00    +0.000 N 
ATOM     17  C   UNL     1       1.406   8.409  20.241  0.00  0.00    +0.000 C 
ATOM     18  O   UNL     1       1.527   7.342  20.818  0.00  0.00    +0.000 OA
ATOM     19  H   UNL     1       0.568   9.498  21.780  0.00  0.00    +0.000 HD
ENDBRANCH   6  11
TORSDOF 1
ENDMDL
MODEL 8
REMARK VINA RESULT:      -5.7      6.427      8.130
REMARK  Name = 
REMARK  2 active torsions:
REMARK  status: ('A' for Active; 'I' for Inactive)
REMARK    1  A    between atoms: C_1  and  C_2
REMARK    2  A    between atoms: C_6  and  C_7
REMARK                            x       y       z     vdW  Elec       q    Type
REMARK                         _______ _______ _______ _____ _____    ______ ____
ROOT
ATOM      1  C   UNL     1       0.606  15.465  18.714  0.00  0.00    +0.000 C 
ATOM      2  C   UNL     1       0.689  14.186  19.536  0.00  0.00    +0.000 C 
ATOM      3  C   UNL     1       1.994  13.417  19.271  0.00  0.00    +0.000 C 
ATOM      4  C   UNL     1       1.453  12.103  18.866  0.00  0.00    +0.000 A 
ATOM      5  C   UNL     1       2.137  10.958  18.494  0.00  0.00    +0.000 A 
ATOM      6  C   UNL     1       1.397   9.828  18.121  0.00  0.00    +0.000 A 
ATOM      7  C   UNL     1      -0.010   9.865  18.152  0.00  0.00    +0.000 A 
ATOM      8  C   UNL     1      -0.683  11.033  18.530  0.00  0.00    +0.000 A 
ATOM      9  C   UNL     1       0.072  12.138  18.870  0.00  0.00    +0.000 A 
ATOM     10  O   UNL     1      -0.455  13.351  19.217  0.00  0.00    +0.000 OA
ENDROOT
BRANCH   6  11
ATOM     11  C   UNL     1       2.095   8.636  17.642  0.00  0.00    +0.000 C 
ATOM     12  C   UNL     1       2.449   7.582  18.388  0.00  0.00    +0.000 C 
ATOM     13  S   UNL     1       3.360   6.250  17.747  0.00  0.00    +0.000 S 
ATOM     14  C   UNL     1       3.458   5.458  19.300  0.00  0.00    +0.000 C 
ATOM     15  S   UNL     1       4.247   4.042  19.635  0.00  0.00    +0.000 S 
ATOM     16  N   UNL     1       2.782   6.183  20.229  0.00  0.00    +0.000 N 
ATOM     17  C   UNL     1       2.184   7.350  19.837  0.00  0.00    +0.000 C 
ATOM     18  O   UNL     1       1.538   8.063  20.585  0.00  0.00    +0.000 OA
ATOM     19  H   UNL     1       2.707   5.881  21.188  0.00  0.00    +0.000 HD
ENDBRANCH   6  11
TORSDOF 1
ENDMDL
MODEL 9
REMARK VINA RESULT:      -5.6      5.293      7.295
REMARK  Name = 
REMARK  2 active torsions:
REMARK  status: ('A' for Active; 'I' for Inactive)
REMARK    1  A    between atoms: C_1  and  C_2
REMARK    2  A    between atoms: C_6  and  C_7
REMARK                            x       y       z     vdW  Elec       q    Type
REMARK                         _______ _______ _______ _____ _____    ______ ____
ROOT
ATOM      1  C   UNL     1       1.058   2.006  18.770  0.00  0.00    +0.000 C 
ATOM      2  C   UNL     1       1.974   2.890  19.607  0.00  0.00    +0.000 C 
ATOM      3  C   UNL     1       1.185   3.753  20.605  0.00  0.00    +0.000 C 
ATOM      4  C   UNL     1       1.655   5.101  20.223  0.00  0.00    +0.000 A 
ATOM      5  C   UNL     1       1.307   6.328  20.762  0.00  0.00    +0.000 A 
ATOM      6  C   UNL     1       1.872   7.485  20.210  0.00  0.00    +0.000 A 
ATOM      7  C   UNL     1       2.789   7.384  19.146  0.00  0.00    +0.000 A 
ATOM      8  C   UNL     1       3.127   6.134  18.616  0.00  0.00    +0.000 A 
ATOM      9  C   UNL     1       2.537   5.013  19.164  0.00  0.00    +0.000 A 
ATOM     10  O   UNL     1       2.746   3.738  18.715  0.00  0.00    +0.000 OA
ENDROOT
BRANCH   6  11
ATOM     11  C   UNL     1       1.454   8.797  20.704  0.00  0.00    +0.000 C 
ATOM     12  C   UNL     1       0.968   9.796  19.957  0.00  0.00    +0.000 C 
ATOM     13  S   UNL     1       0.585  11.354  20.622  0.00  0.00    +0.000 S 
ATOM     14  C   UNL     1       0.159  12.011  19.062  0.00  0.00    +0.000 C 
ATOM     15  S   UNL     1      -0.316  13.565  18.744  0.00  0.00    +0.000 S 
ATOM     16  N   UNL     1       0.276  11.048  18.111  0.00  0.00    +0.000 N 
ATOM     17  C   UNL     1       0.697   9.803  18.491  0.00  0.00    +0.000 C 
ATOM     18  O   UNL     1       0.816   8.864  17.722  0.00  0.00    +0.000 OA
ATOM     19  H   UNL     1       0.057  11.227  17.143  0.00  0.00    +0.000 HD
ENDBRANCH   6  11
TORSDOF 1
ENDMDL
