MODEL 1
REMARK VINA RESULT:      -7.9      0.000      0.000
REMARK  Name = 
REMARK  8 active torsions:
REMARK  status: ('A' for Active; 'I' for Inactive)
REMARK    1  A    between atoms: C_1  and  C_2
REMARK    2  A    between atoms: N_8  and  C_9
REMARK    3  A    between atoms: C_9  and  C_10
REMARK    4  A    between atoms: C_10  and  O_11
REMARK    5  A    between atoms: O_11  and  C_12
REMARK    6  A    between atoms: C_12  and  C_13
REMARK    7  A    between atoms: C_17  and  C_18
REMARK    8  A    between atoms: C_19  and  C_20
REMARK                            x       y       z     vdW  Elec       q    Type
REMARK                         _______ _______ _______ _____ _____    ______ ____
ROOT
ATOM      1  C   UNL     1       0.995   4.254  20.262  0.00  0.00    +0.000 C 
ATOM      2  C   UNL     1       2.135   4.664  19.401  0.00  0.00    +0.000 A 
ATOM      3  N   UNL     1       2.812   3.712  18.618  0.00  0.00    +0.000 NA
ATOM      4  C   UNL     1       3.745   4.304  17.906  0.00  0.00    +0.000 A 
ATOM      5  N   UNL     1       4.567   3.668  16.995  0.00  0.00    +0.000 N 
ATOM      6  C   UNL     1       5.254   4.336  16.012  0.00  0.00    +0.000 C 
ATOM      7  O   UNL     1       5.171   5.539  15.764  0.00  0.00    +0.000 OA
ATOM      8  N   UNL     1       6.129   3.555  15.282  0.00  0.00    +0.000 N 
ATOM      9  S   UNL     1       3.977   5.960  18.248  0.00  0.00    +0.000 S 
ATOM     10  C   UNL     1       2.633   5.948  19.282  0.00  0.00    +0.000 A 
ATOM     11  H   UNL     1       4.454   2.665  16.938  0.00  0.00    +0.000 HD
ATOM     12  H   UNL     1       5.898   2.582  15.139  0.00  0.00    +0.000 HD
ENDROOT
BRANCH  10  13
ATOM     13  C   UNL     1       2.198   7.146  19.899  0.00  0.00    +0.000 C 
ATOM     14  C   UNL     1       1.631   8.050  20.452  0.00  0.00    +0.000 C 
BRANCH  14  15
ATOM     15  C   UNL     1       0.807   9.029  21.078  0.00  0.00    +0.000 A 
ATOM     16  C   UNL     1       0.588   8.977  22.455  0.00  0.00    +0.000 A 
ATOM     17  C   UNL     1      -0.264   9.915  23.012  0.00  0.00    +0.000 A 
ATOM     18  N   UNL     1      -0.893  10.873  22.297  0.00  0.00    +0.000 NA
ATOM     19  C   UNL     1      -0.650  10.886  20.969  0.00  0.00    +0.000 A 
ATOM     20 CL   UNL     1      -1.489  12.104  20.101  0.00  0.00    +0.000 Cl
ATOM     21  C   UNL     1       0.181  10.002  20.312  0.00  0.00    +0.000 A 
ENDBRANCH  14  15
ENDBRANCH  10  13
BRANCH   8  22
ATOM     22  C   UNL     1       6.805   4.242  14.187  0.00  0.00    +0.000 C 
BRANCH  22  23
ATOM     23  C   UNL     1       6.424   3.798  12.784  0.00  0.00    +0.000 C 
BRANCH  23  24
ATOM     24  O   UNL     1       5.022   3.513  12.689  0.00  0.00    +0.000 OA
BRANCH  24  25
ATOM     25  C   UNL     1       4.722   3.046  11.370  0.00  0.00    +0.000 C 
BRANCH  25  26
ATOM     26  C   UNL     1       3.371   3.513  10.935  0.00  0.00    +0.000 C 
ATOM     27  C   UNL     1       3.125   4.298   9.670  0.00  0.00    +0.000 C 
ATOM     28  C   UNL     1       2.739   2.848   9.734  0.00  0.00    +0.000 C 
ENDBRANCH  25  26
ENDBRANCH  24  25
ENDBRANCH  23  24
ENDBRANCH  22  23
ENDBRANCH   8  22
TORSDOF 7
ENDMDL
MODEL 2
REMARK VINA RESULT:      -7.2      1.250      1.536
REMARK  Name = 
REMARK  8 active torsions:
REMARK  status: ('A' for Active; 'I' for Inactive)
REMARK    1  A    between atoms: C_1  and  C_2
REMARK    2  A    between atoms: N_8  and  C_9
REMARK    3  A    between atoms: C_9  and  C_10
REMARK    4  A    between atoms: C_10  and  O_11
REMARK    5  A    between atoms: O_11  and  C_12
REMARK    6  A    between atoms: C_12  and  C_13
REMARK    7  A    between atoms: C_17  and  C_18
REMARK    8  A    between atoms: C_19  and  C_20
REMARK                            x       y       z     vdW  Elec       q    Type
REMARK                         _______ _______ _______ _____ _____    ______ ____
ROOT
ATOM      1  C   UNL     1       0.926   3.440  20.581  0.00  0.00    +0.000 C 
ATOM      2  C   UNL     1       2.098   4.139  19.992  0.00  0.00    +0.000 A 
ATOM      3  N   UNL     1       3.103   3.409  19.332  0.00  0.00    +0.000 NA
ATOM      4  C   UNL     1       4.008   4.231  18.851  0.00  0.00    +0.000 A 
ATOM      5  N   UNL     1       5.109   3.849  18.108  0.00  0.00    +0.000 N 
ATOM      6  C   UNL     1       5.815   4.717  17.314  0.00  0.00    +0.000 C 
ATOM      7  O   UNL     1       5.527   5.895  17.098  0.00  0.00    +0.000 OA
ATOM      8  N   UNL     1       6.962   4.190  16.754  0.00  0.00    +0.000 N 
ATOM      9  S   UNL     1       3.809   5.868  19.293  0.00  0.00    +0.000 S 
ATOM     10  C   UNL     1       2.323   5.503  20.025  0.00  0.00    +0.000 A 
ATOM     11  H   UNL     1       5.227   2.852  17.993  0.00  0.00    +0.000 HD
ATOM     12  H   UNL     1       6.978   3.204  16.532  0.00  0.00    +0.000 HD
ENDROOT
BRANCH  10  13
ATOM     13  C   UNL     1       1.529   6.536  20.581  0.00  0.00    +0.000 C 
ATOM     14  C   UNL     1       1.043   7.539  21.030  0.00  0.00    +0.000 C 
BRANCH  14  15
ATOM     15  C   UNL     1       0.637   8.791  21.575  0.00  0.00    +0.000 A 
ATOM     16  C   UNL     1      -0.094   8.829  22.762  0.00  0.00    +0.000 A 
ATOM     17  C   UNL     1      -0.515  10.063  23.225  0.00  0.00    +0.000 A 
ATOM     18  N   UNL     1      -0.259  11.227  22.591  0.00  0.00    +0.000 NA
ATOM     19  C   UNL     1       0.453  11.143  21.448  0.00  0.00    +0.000 A 
ATOM     20 CL   UNL     1       0.733  12.644  20.667  0.00  0.00    +0.000 Cl
ATOM     21  C   UNL     1       0.924   9.968  20.898  0.00  0.00    +0.000 A 
ENDBRANCH  14  15
ENDBRANCH  10  13
BRANCH   8  22
ATOM     22  C   UNL     1       7.677   5.084  15.849  0.00  0.00    +0.000 C 
BRANCH  22  23
ATOM     23  C   UNL     1       7.555   4.769  14.367  0.00  0.00    +0.000 C 
BRANCH  23  24
ATOM     24  O   UNL     1       6.383   3.989  14.093  0.00  0.00    +0.000 OA
BRANCH  24  25
ATOM     25  C   UNL     1       6.255   3.807  12.680  0.00  0.00    +0.000 C 
BRANCH  25  26
ATOM     26  C   UNL     1       5.047   2.989  12.356  0.00  0.00    +0.000 C 
ATOM     27  C   UNL     1       4.170   3.235  11.152  0.00  0.00    +0.000 C 
ATOM     28  C   UNL     1       5.111   2.064  11.162  0.00  0.00    +0.000 C 
ENDBRANCH  25  26
ENDBRANCH  24  25
ENDBRANCH  23  24
ENDBRANCH  22  23
ENDBRANCH   8  22
TORSDOF 7
ENDMDL
MODEL 3
REMARK VINA RESULT:      -7.2      1.416      1.691
REMARK  Name = 
REMARK  8 active torsions:
REMARK  status: ('A' for Active; 'I' for Inactive)
REMARK    1  A    between atoms: C_1  and  C_2
REMARK    2  A    between atoms: N_8  and  C_9
REMARK    3  A    between atoms: C_9  and  C_10
REMARK    4  A    between atoms: C_10  and  O_11
REMARK    5  A    between atoms: O_11  and  C_12
REMARK    6  A    between atoms: C_12  and  C_13
REMARK    7  A    between atoms: C_17  and  C_18
REMARK    8  A    between atoms: C_19  and  C_20
REMARK                            x       y       z     vdW  Elec       q    Type
REMARK                         _______ _______ _______ _____ _____    ______ ____
ROOT
ATOM      1  C   UNL     1       1.512   3.359  21.437  0.00  0.00    +0.000 C 
ATOM      2  C   UNL     1       2.382   4.034  20.438  0.00  0.00    +0.000 A 
ATOM      3  N   UNL     1       3.248   3.279  19.626  0.00  0.00    +0.000 NA
ATOM      4  C   UNL     1       3.878   4.073  18.789  0.00  0.00    +0.000 A 
ATOM      5  N   UNL     1       4.771   3.653  17.821  0.00  0.00    +0.000 N 
ATOM      6  C   UNL     1       5.120   4.423  16.739  0.00  0.00    +0.000 C 
ATOM      7  O   UNL     1       4.641   5.520  16.450  0.00  0.00    +0.000 OA
ATOM      8  N   UNL     1       6.124   3.896  15.952  0.00  0.00    +0.000 N 
ATOM      9  S   UNL     1       3.609   5.742  19.031  0.00  0.00    +0.000 S 
ATOM     10  C   UNL     1       2.439   5.396  20.207  0.00  0.00    +0.000 A 
ATOM     11  H   UNL     1       4.974   2.663  17.821  0.00  0.00    +0.000 HD
ATOM     12  H   UNL     1       6.199   2.891  15.878  0.00  0.00    +0.000 HD
ENDROOT
BRANCH  10  13
ATOM     13  C   UNL     1       1.708   6.445  20.816  0.00  0.00    +0.000 C 
ATOM     14  C   UNL     1       1.119   7.443  21.134  0.00  0.00    +0.000 C 
BRANCH  14  15
ATOM     15  C   UNL     1       0.497   8.704  21.367  0.00  0.00    +0.000 A 
ATOM     16  C   UNL     1       0.013   9.017  22.636  0.00  0.00    +0.000 A 
ATOM     17  C   UNL     1      -0.634  10.230  22.802  0.00  0.00    +0.000 A 
ATOM     18  N   UNL     1      -0.821  11.121  21.805  0.00  0.00    +0.000 NA
ATOM     19  C   UNL     1      -0.333  10.776  20.595  0.00  0.00    +0.000 A 
ATOM     20 CL   UNL     1      -0.614  11.929  19.356  0.00  0.00    +0.000 Cl
ATOM     21  C   UNL     1       0.328   9.597  20.319  0.00  0.00    +0.000 A 
ENDBRANCH  14  15
ENDBRANCH  10  13
BRANCH   8  22
ATOM     22  C   UNL     1       6.447   4.673  14.759  0.00  0.00    +0.000 C 
BRANCH  22  23
ATOM     23  C   UNL     1       6.985   3.884  13.576  0.00  0.00    +0.000 C 
BRANCH  23  24
ATOM     24  O   UNL     1       6.139   4.025  12.426  0.00  0.00    +0.000 OA
BRANCH  24  25
ATOM     25  C   UNL     1       5.354   2.839  12.269  0.00  0.00    +0.000 C 
BRANCH  25  26
ATOM     26  C   UNL     1       5.820   2.046  11.090  0.00  0.00    +0.000 C 
ATOM     27  C   UNL     1       7.242   1.573  10.911  0.00  0.00    +0.000 C 
ATOM     28  C   UNL     1       6.175   0.592  11.304  0.00  0.00    +0.000 C 
ENDBRANCH  25  26
ENDBRANCH  24  25
ENDBRANCH  23  24
ENDBRANCH  22  23
ENDBRANCH   8  22
TORSDOF 7
ENDMDL
MODEL 4
REMARK VINA RESULT:      -7.1      2.358      3.983
REMARK  Name = 
REMARK  8 active torsions:
REMARK  status: ('A' for Active; 'I' for Inactive)
REMARK    1  A    between atoms: C_1  and  C_2
REMARK    2  A    between atoms: N_8  and  C_9
REMARK    3  A    between atoms: C_9  and  C_10
REMARK    4  A    between atoms: C_10  and  O_11
REMARK    5  A    between atoms: O_11  and  C_12
REMARK    6  A    between atoms: C_12  and  C_13
REMARK    7  A    between atoms: C_17  and  C_18
REMARK    8  A    between atoms: C_19  and  C_20
REMARK                            x       y       z     vdW  Elec       q    Type
REMARK                         _______ _______ _______ _____ _____    ______ ____
ROOT
ATOM      1  C   UNL     1       1.617   3.483  21.400  0.00  0.00    +0.000 C 
ATOM      2  C   UNL     1       2.468   3.996  20.295  0.00  0.00    +0.000 A 
ATOM      3  N   UNL     1       3.241   3.110  19.523  0.00  0.00    +0.000 NA
ATOM      4  C   UNL     1       3.870   3.774  18.579  0.00  0.00    +0.000 A 
ATOM      5  N   UNL     1       4.680   3.203  17.616  0.00  0.00    +0.000 N 
ATOM      6  C   UNL     1       5.014   3.837  16.445  0.00  0.00    +0.000 C 
ATOM      7  O   UNL     1       4.586   4.929  16.069  0.00  0.00    +0.000 OA
ATOM      8  N   UNL     1       5.939   3.170  15.667  0.00  0.00    +0.000 N 
ATOM      9  S   UNL     1       3.716   5.472  18.662  0.00  0.00    +0.000 S 
ATOM     10  C   UNL     1       2.594   5.322  19.924  0.00  0.00    +0.000 A 
ATOM     11  H   UNL     1       4.823   2.207  17.708  0.00  0.00    +0.000 HD
ATOM     12  H   UNL     1       5.949   2.160  15.693  0.00  0.00    +0.000 HD
ENDROOT
BRANCH  10  13
ATOM     13  C   UNL     1       1.963   6.472  20.458  0.00  0.00    +0.000 C 
ATOM     14  C   UNL     1       1.402   7.509  20.692  0.00  0.00    +0.000 C 
BRANCH  14  15
ATOM     15  C   UNL     1       0.770   8.781  20.798  0.00  0.00    +0.000 A 
ATOM     16  C   UNL     1       0.943   9.729  19.789  0.00  0.00    +0.000 A 
ATOM     17  C   UNL     1       0.356  10.971  19.960  0.00  0.00    +0.000 A 
ATOM     18  N   UNL     1      -0.371  11.313  21.046  0.00  0.00    +0.000 NA
ATOM     19  C   UNL     1      -0.514  10.363  21.994  0.00  0.00    +0.000 A 
ATOM     20 CL   UNL     1      -1.424  10.851  23.363  0.00  0.00    +0.000 Cl
ATOM     21  C   UNL     1       0.025   9.094  21.926  0.00  0.00    +0.000 A 
ENDBRANCH  14  15
ENDBRANCH  10  13
BRANCH   8  22
ATOM     22  C   UNL     1       6.241   3.802  14.387  0.00  0.00    +0.000 C 
BRANCH  22  23
ATOM     23  C   UNL     1       6.866   5.185  14.456  0.00  0.00    +0.000 C 
BRANCH  23  24
ATOM     24  O   UNL     1       7.671   5.336  15.633  0.00  0.00    +0.000 OA
BRANCH  24  25
ATOM     25  C   UNL     1       7.437   6.627  16.204  0.00  0.00    +0.000 C 
BRANCH  25  26
ATOM     26  C   UNL     1       7.088   6.512  17.653  0.00  0.00    +0.000 C 
ATOM     27  C   UNL     1       7.744   5.532  18.595  0.00  0.00    +0.000 C 
ATOM     28  C   UNL     1       8.099   6.988  18.671  0.00  0.00    +0.000 C 
ENDBRANCH  25  26
ENDBRANCH  24  25
ENDBRANCH  23  24
ENDBRANCH  22  23
ENDBRANCH   8  22
TORSDOF 7
ENDMDL
MODEL 5
REMARK VINA RESULT:      -6.9      1.477      1.982
REMARK  Name = 
REMARK  8 active torsions:
REMARK  status: ('A' for Active; 'I' for Inactive)
REMARK    1  A    between atoms: C_1  and  C_2
REMARK    2  A    between atoms: N_8  and  C_9
REMARK    3  A    between atoms: C_9  and  C_10
REMARK    4  A    between atoms: C_10  and  O_11
REMARK    5  A    between atoms: O_11  and  C_12
REMARK    6  A    between atoms: C_12  and  C_13
REMARK    7  A    between atoms: C_17  and  C_18
REMARK    8  A    between atoms: C_19  and  C_20
REMARK                            x       y       z     vdW  Elec       q    Type
REMARK                         _______ _______ _______ _____ _____    ______ ____
ROOT
ATOM      1  C   UNL     1       0.858   3.631  20.521  0.00  0.00    +0.000 C 
ATOM      2  C   UNL     1       1.995   4.219  19.766  0.00  0.00    +0.000 A 
ATOM      3  N   UNL     1       2.843   3.395  19.004  0.00  0.00    +0.000 NA
ATOM      4  C   UNL     1       3.740   4.131  18.387  0.00  0.00    +0.000 A 
ATOM      5  N   UNL     1       4.701   3.645  17.521  0.00  0.00    +0.000 N 
ATOM      6  C   UNL     1       5.365   4.437  16.617  0.00  0.00    +0.000 C 
ATOM      7  O   UNL     1       5.146   5.630  16.406  0.00  0.00    +0.000 OA
ATOM      8  N   UNL     1       6.383   3.806  15.931  0.00  0.00    +0.000 N 
ATOM      9  S   UNL     1       3.732   5.786  18.804  0.00  0.00    +0.000 S 
ATOM     10  C   UNL     1       2.331   5.559  19.730  0.00  0.00    +0.000 A 
ATOM     11  H   UNL     1       4.723   2.639  17.420  0.00  0.00    +0.000 HD
ATOM     12  H   UNL     1       6.291   2.818  15.736  0.00  0.00    +0.000 HD
ENDROOT
BRANCH  10  13
ATOM     13  C   UNL     1       1.701   6.664  20.354  0.00  0.00    +0.000 C 
ATOM     14  C   UNL     1       1.235   7.718  20.698  0.00  0.00    +0.000 C 
BRANCH  14  15
ATOM     15  C   UNL     1       0.785   9.040  20.976  0.00  0.00    +0.000 A 
ATOM     16  C   UNL     1       1.276  10.113  20.233  0.00  0.00    +0.000 A 
ATOM     17  C   UNL     1       0.853  11.386  20.575  0.00  0.00    +0.000 A 
ATOM     18  N   UNL     1      -0.005  11.643  21.585  0.00  0.00    +0.000 NA
ATOM     19  C   UNL     1      -0.457  10.574  22.274  0.00  0.00    +0.000 A 
ATOM     20 CL   UNL     1      -1.525  10.953  23.562  0.00  0.00    +0.000 Cl
ATOM     21  C   UNL     1      -0.103   9.265  22.019  0.00  0.00    +0.000 A 
ENDBRANCH  14  15
ENDBRANCH  10  13
BRANCH   8  22
ATOM     22  C   UNL     1       7.043   4.620  14.915  0.00  0.00    +0.000 C 
BRANCH  22  23
ATOM     23  C   UNL     1       6.861   4.167  13.475  0.00  0.00    +0.000 C 
BRANCH  23  24
ATOM     24  O   UNL     1       5.484   3.895  13.183  0.00  0.00    +0.000 OA
BRANCH  24  25
ATOM     25  C   UNL     1       5.397   3.154  11.962  0.00  0.00    +0.000 C 
BRANCH  25  26
ATOM     26  C   UNL     1       6.442   2.086  11.913  0.00  0.00    +0.000 C 
ATOM     27  C   UNL     1       6.153   0.652  11.545  0.00  0.00    +0.000 C 
ATOM     28  C   UNL     1       6.848   1.548  10.560  0.00  0.00    +0.000 C 
ENDBRANCH  25  26
ENDBRANCH  24  25
ENDBRANCH  23  24
ENDBRANCH  22  23
ENDBRANCH   8  22
TORSDOF 7
ENDMDL
MODEL 6
REMARK VINA RESULT:      -6.9      1.268      1.637
REMARK  Name = 
REMARK  8 active torsions:
REMARK  status: ('A' for Active; 'I' for Inactive)
REMARK    1  A    between atoms: C_1  and  C_2
REMARK    2  A    between atoms: N_8  and  C_9
REMARK    3  A    between atoms: C_9  and  C_10
REMARK    4  A    between atoms: C_10  and  O_11
REMARK    5  A    between atoms: O_11  and  C_12
REMARK    6  A    between atoms: C_12  and  C_13
REMARK    7  A    between atoms: C_17  and  C_18
REMARK    8  A    between atoms: C_19  and  C_20
REMARK                            x       y       z     vdW  Elec       q    Type
REMARK                         _______ _______ _______ _____ _____    ______ ____
ROOT
ATOM      1  C   UNL     1       1.537   4.799  20.095  0.00  0.00    +0.000 C 
ATOM      2  C   UNL     1       2.521   5.280  19.089  0.00  0.00    +0.000 A 
ATOM      3  N   UNL     1       3.464   4.394  18.539  0.00  0.00    +0.000 NA
ATOM      4  C   UNL     1       4.193   5.020  17.642  0.00  0.00    +0.000 A 
ATOM      5  N   UNL     1       5.183   4.433  16.878  0.00  0.00    +0.000 N 
ATOM      6  C   UNL     1       5.660   4.986  15.716  0.00  0.00    +0.000 C 
ATOM      7  O   UNL     1       5.229   6.003  15.171  0.00  0.00    +0.000 OA
ATOM      8  N   UNL     1       6.740   4.330  15.161  0.00  0.00    +0.000 N 
ATOM      9  S   UNL     1       3.917   6.701  17.530  0.00  0.00    +0.000 S 
ATOM     10  C   UNL     1       2.618   6.573  18.612  0.00  0.00    +0.000 A 
ATOM     11  H   UNL     1       5.374   3.463  17.090  0.00  0.00    +0.000 HD
ATOM     12  H   UNL     1       6.812   3.330  15.289  0.00  0.00    +0.000 HD
ENDROOT
BRANCH  10  13
ATOM     13  C   UNL     1       1.835   7.712  18.924  0.00  0.00    +0.000 C 
ATOM     14  C   UNL     1       1.370   8.770  19.252  0.00  0.00    +0.000 C 
BRANCH  14  15
ATOM     15  C   UNL     1       0.976  10.056  19.722  0.00  0.00    +0.000 A 
ATOM     16  C   UNL     1       1.336  11.198  19.007  0.00  0.00    +0.000 A 
ATOM     17  C   UNL     1       0.980  12.429  19.530  0.00  0.00    +0.000 A 
ATOM     18  N   UNL     1       0.308  12.583  20.691  0.00  0.00    +0.000 NA
ATOM     19  C   UNL     1      -0.021  11.450  21.347  0.00  0.00    +0.000 A 
ATOM     20 CL   UNL     1      -0.852  11.697  22.827  0.00  0.00    +0.000 Cl
ATOM     21  C   UNL     1       0.281  10.175  20.916  0.00  0.00    +0.000 A 
ENDBRANCH  14  15
ENDBRANCH  10  13
BRANCH   8  22
ATOM     22  C   UNL     1       7.204   4.868  13.886  0.00  0.00    +0.000 C 
BRANCH  22  23
ATOM     23  C   UNL     1       6.764   4.111  12.643  0.00  0.00    +0.000 C 
BRANCH  23  24
ATOM     24  O   UNL     1       5.427   3.610  12.782  0.00  0.00    +0.000 OA
BRANCH  24  25
ATOM     25  C   UNL     1       5.035   2.966  11.566  0.00  0.00    +0.000 C 
BRANCH  25  26
ATOM     26  C   UNL     1       3.641   3.350  11.188  0.00  0.00    +0.000 C 
ATOM     27  C   UNL     1       3.301   4.156   9.959  0.00  0.00    +0.000 C 
ATOM     28  C   UNL     1       3.019   2.682   9.983  0.00  0.00    +0.000 C 
ENDBRANCH  25  26
ENDBRANCH  24  25
ENDBRANCH  23  24
ENDBRANCH  22  23
ENDBRANCH   8  22
TORSDOF 7
ENDMDL
MODEL 7
REMARK VINA RESULT:      -6.9      2.243      3.697
REMARK  Name = 
REMARK  8 active torsions:
REMARK  status: ('A' for Active; 'I' for Inactive)
REMARK    1  A    between atoms: C_1  and  C_2
REMARK    2  A    between atoms: N_8  and  C_9
REMARK    3  A    between atoms: C_9  and  C_10
REMARK    4  A    between atoms: C_10  and  O_11
REMARK    5  A    between atoms: O_11  and  C_12
REMARK    6  A    between atoms: C_12  and  C_13
REMARK    7  A    between atoms: C_17  and  C_18
REMARK    8  A    between atoms: C_19  and  C_20
REMARK                            x       y       z     vdW  Elec       q    Type
REMARK                         _______ _______ _______ _____ _____    ______ ____
ROOT
ATOM      1  C   UNL     1       1.836   3.228  21.648  0.00  0.00    +0.000 C 
ATOM      2  C   UNL     1       2.569   3.778  20.477  0.00  0.00    +0.000 A 
ATOM      3  N   UNL     1       3.359   2.936  19.674  0.00  0.00    +0.000 NA
ATOM      4  C   UNL     1       3.868   3.622  18.676  0.00  0.00    +0.000 A 
ATOM      5  N   UNL     1       4.657   3.092  17.673  0.00  0.00    +0.000 N 
ATOM      6  C   UNL     1       4.860   3.719  16.469  0.00  0.00    +0.000 C 
ATOM      7  O   UNL     1       4.322   4.763  16.099  0.00  0.00    +0.000 OA
ATOM      8  N   UNL     1       5.784   3.108  15.645  0.00  0.00    +0.000 N 
ATOM      9  S   UNL     1       3.582   5.304  18.732  0.00  0.00    +0.000 S 
ATOM     10  C   UNL     1       2.561   5.099  20.070  0.00  0.00    +0.000 A 
ATOM     11  H   UNL     1       4.886   2.113  17.776  0.00  0.00    +0.000 HD
ATOM     12  H   UNL     1       5.878   2.102  15.692  0.00  0.00    +0.000 HD
ENDROOT
BRANCH  10  13
ATOM     13  C   UNL     1       1.874   6.209  20.621  0.00  0.00    +0.000 C 
ATOM     14  C   UNL     1       1.347   7.254  20.892  0.00  0.00    +0.000 C 
BRANCH  14  15
ATOM     15  C   UNL     1       0.815   8.563  21.074  0.00  0.00    +0.000 A 
ATOM     16  C   UNL     1       0.187   8.897  22.274  0.00  0.00    +0.000 A 
ATOM     17  C   UNL     1      -0.365  10.162  22.386  0.00  0.00    +0.000 A 
ATOM     18  N   UNL     1      -0.329  11.084  21.401  0.00  0.00    +0.000 NA
ATOM     19  C   UNL     1       0.291  10.717  20.259  0.00  0.00    +0.000 A 
ATOM     20 CL   UNL     1       0.291  11.913  19.030  0.00  0.00    +0.000 Cl
ATOM     21  C   UNL     1       0.876   9.487  20.041  0.00  0.00    +0.000 A 
ENDBRANCH  14  15
ENDBRANCH  10  13
BRANCH   8  22
ATOM     22  C   UNL     1       5.949   3.726  14.333  0.00  0.00    +0.000 C 
BRANCH  22  23
ATOM     23  C   UNL     1       7.136   4.663  14.182  0.00  0.00    +0.000 C 
BRANCH  23  24
ATOM     24  O   UNL     1       7.755   4.930  15.448  0.00  0.00    +0.000 OA
BRANCH  24  25
ATOM     25  C   UNL     1       7.526   6.296  15.807  0.00  0.00    +0.000 C 
BRANCH  25  26
ATOM     26  C   UNL     1       7.267   6.424  17.274  0.00  0.00    +0.000 C 
ATOM     27  C   UNL     1       7.941   7.447  18.155  0.00  0.00    +0.000 C 
ATOM     28  C   UNL     1       6.505   7.635  17.761  0.00  0.00    +0.000 C 
ENDBRANCH  25  26
ENDBRANCH  24  25
ENDBRANCH  23  24
ENDBRANCH  22  23
ENDBRANCH   8  22
TORSDOF 7
ENDMDL
MODEL 8
REMARK VINA RESULT:      -6.9      4.074      6.222
REMARK  Name = 
REMARK  8 active torsions:
REMARK  status: ('A' for Active; 'I' for Inactive)
REMARK    1  A    between atoms: C_1  and  C_2
REMARK    2  A    between atoms: N_8  and  C_9
REMARK    3  A    between atoms: C_9  and  C_10
REMARK    4  A    between atoms: C_10  and  O_11
REMARK    5  A    between atoms: O_11  and  C_12
REMARK    6  A    between atoms: C_12  and  C_13
REMARK    7  A    between atoms: C_17  and  C_18
REMARK    8  A    between atoms: C_19  and  C_20
REMARK                            x       y       z     vdW  Elec       q    Type
REMARK                         _______ _______ _______ _____ _____    ______ ____
ROOT
ATOM      1  C   UNL     1      -0.007   9.411  22.081  0.00  0.00    +0.000 C 
ATOM      2  C   UNL     1       0.755   8.780  20.972  0.00  0.00    +0.000 A 
ATOM      3  N   UNL     1       1.804   7.885  21.249  0.00  0.00    +0.000 NA
ATOM      4  C   UNL     1       2.297   7.415  20.126  0.00  0.00    +0.000 A 
ATOM      5  N   UNL     1       3.310   6.479  20.037  0.00  0.00    +0.000 N 
ATOM      6  C   UNL     1       3.548   5.737  18.907  0.00  0.00    +0.000 C 
ATOM      7  O   UNL     1       2.866   5.746  17.881  0.00  0.00    +0.000 OA
ATOM      8  N   UNL     1       4.682   4.952  18.956  0.00  0.00    +0.000 N 
ATOM      9  S   UNL     1       1.672   8.126  18.705  0.00  0.00    +0.000 S 
ATOM     10  C   UNL     1       0.537   8.990  19.623  0.00  0.00    +0.000 A 
ATOM     11  H   UNL     1       3.716   6.197  20.919  0.00  0.00    +0.000 HD
ATOM     12  H   UNL     1       4.970   4.581  19.851  0.00  0.00    +0.000 HD
ENDROOT
BRANCH  10  13
ATOM     13  C   UNL     1      -0.430   9.802  18.981  0.00  0.00    +0.000 C 
ATOM     14  C   UNL     1      -1.335  10.292  18.359  0.00  0.00    +0.000 C 
BRANCH  14  15
ATOM     15  C   UNL     1      -2.424  10.712  17.543  0.00  0.00    +0.000 A 
ATOM     16  C   UNL     1      -3.437  11.502  18.087  0.00  0.00    +0.000 A 
ATOM     17  C   UNL     1      -4.503  11.840  17.271  0.00  0.00    +0.000 A 
ATOM     18  N   UNL     1      -4.616  11.447  15.985  0.00  0.00    +0.000 NA
ATOM     19  C   UNL     1      -3.611  10.686  15.501  0.00  0.00    +0.000 A 
ATOM     20 CL   UNL     1      -3.810  10.192  13.870  0.00  0.00    +0.000 Cl
ATOM     21  C   UNL     1      -2.503  10.293  16.222  0.00  0.00    +0.000 A 
ENDBRANCH  14  15
ENDBRANCH  10  13
BRANCH   8  22
ATOM     22  C   UNL     1       4.900   4.104  17.788  0.00  0.00    +0.000 C 
BRANCH  22  23
ATOM     23  C   UNL     1       4.030   2.861  17.695  0.00  0.00    +0.000 C 
BRANCH  23  24
ATOM     24  O   UNL     1       3.626   2.407  18.994  0.00  0.00    +0.000 OA
BRANCH  24  25
ATOM     25  C   UNL     1       2.221   2.140  18.985  0.00  0.00    +0.000 C 
BRANCH  25  26
ATOM     26  C   UNL     1       1.626   2.376  20.336  0.00  0.00    +0.000 C 
ATOM     27  C   UNL     1       2.242   3.283  21.373  0.00  0.00    +0.000 C 
ATOM     28  C   UNL     1       1.022   3.733  20.622  0.00  0.00    +0.000 C 
ENDBRANCH  25  26
ENDBRANCH  24  25
ENDBRANCH  23  24
ENDBRANCH  22  23
ENDBRANCH   8  22
TORSDOF 7
ENDMDL
MODEL 9
REMARK VINA RESULT:      -6.8      1.045      1.436
REMARK  Name = 
REMARK  8 active torsions:
REMARK  status: ('A' for Active; 'I' for Inactive)
REMARK    1  A    between atoms: C_1  and  C_2
REMARK    2  A    between atoms: N_8  and  C_9
REMARK    3  A    between atoms: C_9  and  C_10
REMARK    4  A    between atoms: C_10  and  O_11
REMARK    5  A    between atoms: O_11  and  C_12
REMARK    6  A    between atoms: C_12  and  C_13
REMARK    7  A    between atoms: C_17  and  C_18
REMARK    8  A    between atoms: C_19  and  C_20
REMARK                            x       y       z     vdW  Elec       q    Type
REMARK                         _______ _______ _______ _____ _____    ______ ____
ROOT
ATOM      1  C   UNL     1       1.688   3.641  20.618  0.00  0.00    +0.000 C 
ATOM      2  C   UNL     1       2.655   4.274  19.684  0.00  0.00    +0.000 A 
ATOM      3  N   UNL     1       3.500   3.478  18.890  0.00  0.00    +0.000 NA
ATOM      4  C   UNL     1       4.230   4.244  18.110  0.00  0.00    +0.000 A 
ATOM      5  N   UNL     1       5.134   3.784  17.172  0.00  0.00    +0.000 N 
ATOM      6  C   UNL     1       5.594   4.555  16.133  0.00  0.00    +0.000 C 
ATOM      7  O   UNL     1       5.216   5.694  15.858  0.00  0.00    +0.000 OA
ATOM      8  N   UNL     1       6.593   3.975  15.377  0.00  0.00    +0.000 N 
ATOM      9  S   UNL     1       4.078   5.921  18.393  0.00  0.00    +0.000 S 
ATOM     10  C   UNL     1       2.828   5.633  19.501  0.00  0.00    +0.000 A 
ATOM     11  H   UNL     1       5.261   2.782  17.149  0.00  0.00    +0.000 HD
ATOM     12  H   UNL     1       6.594   2.969  15.274  0.00  0.00    +0.000 HD
ENDROOT
BRANCH  10  13
ATOM     13  C   UNL     1       2.150   6.718  20.110  0.00  0.00    +0.000 C 
ATOM     14  C   UNL     1       1.545   7.712  20.411  0.00  0.00    +0.000 C 
BRANCH  14  15
ATOM     15  C   UNL     1       0.856   8.945  20.599  0.00  0.00    +0.000 A 
ATOM     16  C   UNL     1       0.951   9.948  19.635  0.00  0.00    +0.000 A 
ATOM     17  C   UNL     1       0.311  11.150  19.885  0.00  0.00    +0.000 A 
ATOM     18  N   UNL     1      -0.395  11.402  21.008  0.00  0.00    +0.000 NA
ATOM     19  C   UNL     1      -0.461  10.401  21.911  0.00  0.00    +0.000 A 
ATOM     20 CL   UNL     1      -1.349  10.777  23.330  0.00  0.00    +0.000 Cl
ATOM     21  C   UNL     1       0.135   9.166  21.763  0.00  0.00    +0.000 A 
ENDBRANCH  14  15
ENDBRANCH  10  13
BRANCH   8  22
ATOM     22  C   UNL     1       7.033   4.758  14.227  0.00  0.00    +0.000 C 
BRANCH  22  23
ATOM     23  C   UNL     1       6.868   4.097  12.868  0.00  0.00    +0.000 C 
BRANCH  23  24
ATOM     24  O   UNL     1       5.660   3.326  12.805  0.00  0.00    +0.000 OA
BRANCH  24  25
ATOM     25  C   UNL     1       5.664   2.539  11.611  0.00  0.00    +0.000 C 
BRANCH  25  26
ATOM     26  C   UNL     1       4.307   2.521  10.982  0.00  0.00    +0.000 C 
ATOM     27  C   UNL     1       3.156   3.374  11.456  0.00  0.00    +0.000 C 
ATOM     28  C   UNL     1       3.874   3.732  10.187  0.00  0.00    +0.000 C 
ENDBRANCH  25  26
ENDBRANCH  24  25
ENDBRANCH  23  24
ENDBRANCH  22  23
ENDBRANCH   8  22
TORSDOF 7
ENDMDL
