MODEL 1
REMARK VINA RESULT:      -6.1      0.000      0.000
REMARK  Name = 
REMARK  2 active torsions:
REMARK  status: ('A' for Active; 'I' for Inactive)
REMARK    1  A    between atoms: C_2  and  C_3
REMARK    2  A    between atoms: C_2  and  N_9
REMARK                            x       y       z     vdW  Elec       q    Type
REMARK                         _______ _______ _______ _____ _____    ______ ____
ROOT
ATOM      1  S   UNL     1       3.903   7.022  17.430  0.00  0.00    +0.000 S 
ATOM      2  C   UNL     1       3.971   5.390  17.886  0.00  0.00    +0.000 C 
ENDROOT
BRANCH   2   3
ATOM      3  C   UNL     1       2.813   4.735  18.606  0.00  0.00    +0.000 A 
ATOM      4  C   UNL     1       2.422   5.107  19.888  0.00  0.00    +0.000 A 
ATOM      5  C   UNL     1       1.419   4.376  20.517  0.00  0.00    +0.000 A 
ATOM      6  C   UNL     1       0.836   3.299  19.854  0.00  0.00    +0.000 A 
ATOM      7  C   UNL     1       1.275   3.004  18.577  0.00  0.00    +0.000 A 
ATOM      8  N   UNL     1       2.246   3.691  17.943  0.00  0.00    +0.000 NA
ENDBRANCH   2   3
BRANCH   2   9
ATOM      9  N   UNL     1       5.117   4.609  17.659  0.00  0.00    +0.000 N 
ATOM     10  C   UNL     1       6.237   4.500  18.608  0.00  0.00    +0.000 C 
ATOM     11  C   UNL     1       7.530   5.061  18.007  0.00  0.00    +0.000 C 
ATOM     12  O   UNL     1       7.826   4.426  16.751  0.00  0.00    +0.000 OA
ATOM     13  C   UNL     1       6.750   4.631  15.818  0.00  0.00    +0.000 C 
ATOM     14  C   UNL     1       5.433   4.036  16.342  0.00  0.00    +0.000 C 
ENDBRANCH   2   9
TORSDOF 2
ENDMDL
MODEL 2
REMARK VINA RESULT:      -6.1      1.973      2.512
REMARK  Name = 
REMARK  2 active torsions:
REMARK  status: ('A' for Active; 'I' for Inactive)
REMARK    1  A    between atoms: C_2  and  C_3
REMARK    2  A    between atoms: C_2  and  N_9
REMARK                            x       y       z     vdW  Elec       q    Type
REMARK                         _______ _______ _______ _____ _____    ______ ____
ROOT
ATOM      1  S   UNL     1       5.816   3.999  15.535  0.00  0.00    +0.000 S 
ATOM      2  C   UNL     1       5.097   4.517  16.981  0.00  0.00    +0.000 C 
ENDROOT
BRANCH   2   3
ATOM      3  C   UNL     1       3.792   3.922  17.457  0.00  0.00    +0.000 A 
ATOM      4  C   UNL     1       2.658   4.693  17.690  0.00  0.00    +0.000 A 
ATOM      5  C   UNL     1       1.534   4.078  18.233  0.00  0.00    +0.000 A 
ATOM      6  C   UNL     1       1.571   2.718  18.530  0.00  0.00    +0.000 A 
ATOM      7  C   UNL     1       2.734   2.023  18.257  0.00  0.00    +0.000 A 
ATOM      8  N   UNL     1       3.839   2.591  17.733  0.00  0.00    +0.000 NA
ENDBRANCH   2   3
BRANCH   2   9
ATOM      9  N   UNL     1       5.660   5.547  17.754  0.00  0.00    +0.000 N 
ATOM     10  C   UNL     1       5.991   6.882  17.228  0.00  0.00    +0.000 C 
ATOM     11  C   UNL     1       7.498   7.149  17.302  0.00  0.00    +0.000 C 
ATOM     12  O   UNL     1       7.983   6.964  18.643  0.00  0.00    +0.000 OA
ATOM     13  C   UNL     1       7.724   5.622  19.091  0.00  0.00    +0.000 C 
ATOM     14  C   UNL     1       6.219   5.312  19.094  0.00  0.00    +0.000 C 
ENDBRANCH   2   9
TORSDOF 2
ENDMDL
MODEL 3
REMARK VINA RESULT:      -6.0      0.896      1.336
REMARK  Name = 
REMARK  2 active torsions:
REMARK  status: ('A' for Active; 'I' for Inactive)
REMARK    1  A    between atoms: C_2  and  C_3
REMARK    2  A    between atoms: C_2  and  N_9
REMARK                            x       y       z     vdW  Elec       q    Type
REMARK                         _______ _______ _______ _____ _____    ______ ____
ROOT
ATOM      1  S   UNL     1       3.629   6.848  17.712  0.00  0.00    +0.000 S 
ATOM      2  C   UNL     1       3.890   5.223  18.119  0.00  0.00    +0.000 C 
ENDROOT
BRANCH   2   3
ATOM      3  C   UNL     1       2.888   4.461  18.958  0.00  0.00    +0.000 A 
ATOM      4  C   UNL     1       1.927   3.625  18.400  0.00  0.00    +0.000 A 
ATOM      5  C   UNL     1       0.976   3.051  19.238  0.00  0.00    +0.000 A 
ATOM      6  C   UNL     1       1.008   3.327  20.603  0.00  0.00    +0.000 A 
ATOM      7  C   UNL     1       2.004   4.159  21.077  0.00  0.00    +0.000 A 
ATOM      8  N   UNL     1       2.937   4.731  20.290  0.00  0.00    +0.000 NA
ENDBRANCH   2   3
BRANCH   2   9
ATOM      9  N   UNL     1       5.062   4.548  17.737  0.00  0.00    +0.000 N 
ATOM     10  C   UNL     1       6.311   4.569  18.514  0.00  0.00    +0.000 C 
ATOM     11  C   UNL     1       7.444   5.233  17.724  0.00  0.00    +0.000 C 
ATOM     12  O   UNL     1       7.616   4.596  16.446  0.00  0.00    +0.000 OA
ATOM     13  C   UNL     1       6.402   4.675  15.678  0.00  0.00    +0.000 C 
ATOM     14  C   UNL     1       5.239   3.972  16.395  0.00  0.00    +0.000 C 
ENDBRANCH   2   9
TORSDOF 2
ENDMDL
MODEL 4
REMARK VINA RESULT:      -6.0      1.414      2.091
REMARK  Name = 
REMARK  2 active torsions:
REMARK  status: ('A' for Active; 'I' for Inactive)
REMARK    1  A    between atoms: C_2  and  C_3
REMARK    2  A    between atoms: C_2  and  N_9
REMARK                            x       y       z     vdW  Elec       q    Type
REMARK                         _______ _______ _______ _____ _____    ______ ____
ROOT
ATOM      1  S   UNL     1       3.068   7.272  18.054  0.00  0.00    +0.000 S 
ATOM      2  C   UNL     1       3.874   5.839  17.636  0.00  0.00    +0.000 C 
ENDROOT
BRANCH   2   3
ATOM      3  C   UNL     1       3.303   4.489  18.008  0.00  0.00    +0.000 A 
ATOM      4  C   UNL     1       1.977   4.145  17.768  0.00  0.00    +0.000 A 
ATOM      5  C   UNL     1       1.509   2.924  18.245  0.00  0.00    +0.000 A 
ATOM      6  C   UNL     1       2.372   2.083  18.944  0.00  0.00    +0.000 A 
ATOM      7  C   UNL     1       3.678   2.497  19.128  0.00  0.00    +0.000 A 
ATOM      8  N   UNL     1       4.159   3.674  18.681  0.00  0.00    +0.000 NA
ENDBRANCH   2   3
BRANCH   2   9
ATOM      9  N   UNL     1       5.116   5.859  16.979  0.00  0.00    +0.000 N 
ATOM     10  C   UNL     1       5.363   5.229  15.672  0.00  0.00    +0.000 C 
ATOM     11  C   UNL     1       6.392   4.100  15.786  0.00  0.00    +0.000 C 
ATOM     12  O   UNL     1       7.607   4.576  16.392  0.00  0.00    +0.000 OA
ATOM     13  C   UNL     1       7.341   5.100  17.706  0.00  0.00    +0.000 C 
ATOM     14  C   UNL     1       6.356   6.279  17.649  0.00  0.00    +0.000 C 
ENDBRANCH   2   9
TORSDOF 2
ENDMDL
MODEL 5
REMARK VINA RESULT:      -5.8      1.375      1.424
REMARK  Name = 
REMARK  2 active torsions:
REMARK  status: ('A' for Active; 'I' for Inactive)
REMARK    1  A    between atoms: C_2  and  C_3
REMARK    2  A    between atoms: C_2  and  N_9
REMARK                            x       y       z     vdW  Elec       q    Type
REMARK                         _______ _______ _______ _____ _____    ______ ____
ROOT
ATOM      1  S   UNL     1       2.713   7.759  18.107  0.00  0.00    +0.000 S 
ATOM      2  C   UNL     1       3.216   6.145  18.241  0.00  0.00    +0.000 C 
ENDROOT
BRANCH   2   3
ATOM      3  C   UNL     1       2.303   5.092  18.828  0.00  0.00    +0.000 A 
ATOM      4  C   UNL     1       1.948   5.075  20.173  0.00  0.00    +0.000 A 
ATOM      5  C   UNL     1       1.195   4.007  20.650  0.00  0.00    +0.000 A 
ATOM      6  C   UNL     1       0.818   2.989  19.777  0.00  0.00    +0.000 A 
ATOM      7  C   UNL     1       1.203   3.089  18.454  0.00  0.00    +0.000 A 
ATOM      8  N   UNL     1       1.934   4.109  17.963  0.00  0.00    +0.000 NA
ENDBRANCH   2   3
BRANCH   2   9
ATOM      9  N   UNL     1       4.508   5.743  17.859  0.00  0.00    +0.000 N 
ATOM     10  C   UNL     1       5.363   4.858  18.667  0.00  0.00    +0.000 C 
ATOM     11  C   UNL     1       6.636   5.581  19.121  0.00  0.00    +0.000 C 
ATOM     12  O   UNL     1       7.341   6.128  17.992  0.00  0.00    +0.000 OA
ATOM     13  C   UNL     1       6.505   7.058  17.280  0.00  0.00    +0.000 C 
ATOM     14  C   UNL     1       5.235   6.375  16.749  0.00  0.00    +0.000 C 
ENDBRANCH   2   9
TORSDOF 2
ENDMDL
MODEL 6
REMARK VINA RESULT:      -5.8      1.616      2.096
REMARK  Name = 
REMARK  2 active torsions:
REMARK  status: ('A' for Active; 'I' for Inactive)
REMARK    1  A    between atoms: C_2  and  C_3
REMARK    2  A    between atoms: C_2  and  N_9
REMARK                            x       y       z     vdW  Elec       q    Type
REMARK                         _______ _______ _______ _____ _____    ______ ____
ROOT
ATOM      1  S   UNL     1       3.185   7.070  17.981  0.00  0.00    +0.000 S 
ATOM      2  C   UNL     1       4.165   5.711  17.721  0.00  0.00    +0.000 C 
ENDROOT
BRANCH   2   3
ATOM      3  C   UNL     1       3.726   4.337  18.175  0.00  0.00    +0.000 A 
ATOM      4  C   UNL     1       4.257   3.716  19.301  0.00  0.00    +0.000 A 
ATOM      5  C   UNL     1       3.877   2.408  19.581  0.00  0.00    +0.000 A 
ATOM      6  C   UNL     1       2.981   1.757  18.736  0.00  0.00    +0.000 A 
ATOM      7  C   UNL     1       2.492   2.451  17.646  0.00  0.00    +0.000 A 
ATOM      8  N   UNL     1       2.844   3.717  17.347  0.00  0.00    +0.000 NA
ENDBRANCH   2   3
BRANCH   2   9
ATOM      9  N   UNL     1       5.432   5.822  17.123  0.00  0.00    +0.000 N 
ATOM     10  C   UNL     1       5.685   5.604  15.690  0.00  0.00    +0.000 C 
ATOM     11  C   UNL     1       6.616   4.407  15.466  0.00  0.00    +0.000 C 
ATOM     12  O   UNL     1       7.837   4.566  16.210  0.00  0.00    +0.000 OA
ATOM     13  C   UNL     1       7.557   4.684  17.617  0.00  0.00    +0.000 C 
ATOM     14  C   UNL     1       6.671   5.904  17.911  0.00  0.00    +0.000 C 
ENDBRANCH   2   9
TORSDOF 2
ENDMDL
MODEL 7
REMARK VINA RESULT:      -5.8      2.840      5.445
REMARK  Name = 
REMARK  2 active torsions:
REMARK  status: ('A' for Active; 'I' for Inactive)
REMARK    1  A    between atoms: C_2  and  C_3
REMARK    2  A    between atoms: C_2  and  N_9
REMARK                            x       y       z     vdW  Elec       q    Type
REMARK                         _______ _______ _______ _____ _____    ______ ____
ROOT
ATOM      1  S   UNL     1       3.556   3.578  17.060  0.00  0.00    +0.000 S 
ATOM      2  C   UNL     1       4.124   4.355  18.456  0.00  0.00    +0.000 C 
ENDROOT
BRANCH   2   3
ATOM      3  C   UNL     1       5.340   5.253  18.406  0.00  0.00    +0.000 A 
ATOM      4  C   UNL     1       5.509   6.230  17.430  0.00  0.00    +0.000 A 
ATOM      5  C   UNL     1       6.709   6.934  17.394  0.00  0.00    +0.000 A 
ATOM      6  C   UNL     1       7.703   6.646  18.326  0.00  0.00    +0.000 A 
ATOM      7  C   UNL     1       7.449   5.668  19.269  0.00  0.00    +0.000 A 
ATOM      8  N   UNL     1       6.299   4.967  19.328  0.00  0.00    +0.000 NA
ENDBRANCH   2   3
BRANCH   2   9
ATOM      9  N   UNL     1       3.520   4.152  19.709  0.00  0.00    +0.000 N 
ATOM     10  C   UNL     1       3.413   2.839  20.364  0.00  0.00    +0.000 C 
ATOM     11  C   UNL     1       1.947   2.421  20.533  0.00  0.00    +0.000 C 
ATOM     12  O   UNL     1       1.206   3.435  21.234  0.00  0.00    +0.000 OA
ATOM     13  C   UNL     1       1.257   4.682  20.517  0.00  0.00    +0.000 C 
ATOM     14  C   UNL     1       2.702   5.182  20.366  0.00  0.00    +0.000 C 
ENDBRANCH   2   9
TORSDOF 2
ENDMDL
MODEL 8
REMARK VINA RESULT:      -5.8      1.968      2.613
REMARK  Name = 
REMARK  2 active torsions:
REMARK  status: ('A' for Active; 'I' for Inactive)
REMARK    1  A    between atoms: C_2  and  C_3
REMARK    2  A    between atoms: C_2  and  N_9
REMARK                            x       y       z     vdW  Elec       q    Type
REMARK                         _______ _______ _______ _____ _____    ______ ____
ROOT
ATOM      1  S   UNL     1       5.498   4.399  15.356  0.00  0.00    +0.000 S 
ATOM      2  C   UNL     1       4.982   4.707  16.942  0.00  0.00    +0.000 C 
ENDROOT
BRANCH   2   3
ATOM      3  C   UNL     1       3.785   3.989  17.524  0.00  0.00    +0.000 A 
ATOM      4  C   UNL     1       3.785   2.623  17.785  0.00  0.00    +0.000 A 
ATOM      5  C   UNL     1       2.604   2.027  18.215  0.00  0.00    +0.000 A 
ATOM      6  C   UNL     1       1.459   2.805  18.372  0.00  0.00    +0.000 A 
ATOM      7  C   UNL     1       1.549   4.158  18.102  0.00  0.00    +0.000 A 
ATOM      8  N   UNL     1       2.677   4.763  17.682  0.00  0.00    +0.000 NA
ENDBRANCH   2   3
BRANCH   2   9
ATOM      9  N   UNL     1       5.614   5.671  17.747  0.00  0.00    +0.000 N 
ATOM     10  C   UNL     1       5.997   7.011  17.273  0.00  0.00    +0.000 C 
ATOM     11  C   UNL     1       7.517   7.201  17.320  0.00  0.00    +0.000 C 
ATOM     12  O   UNL     1       8.025   6.930  18.639  0.00  0.00    +0.000 OA
ATOM     13  C   UNL     1       7.710   5.582  19.031  0.00  0.00    +0.000 C 
ATOM     14  C   UNL     1       6.192   5.347  19.059  0.00  0.00    +0.000 C 
ENDBRANCH   2   9
TORSDOF 2
ENDMDL
MODEL 9
REMARK VINA RESULT:      -5.8      1.243      1.843
REMARK  Name = 
REMARK  2 active torsions:
REMARK  status: ('A' for Active; 'I' for Inactive)
REMARK    1  A    between atoms: C_2  and  C_3
REMARK    2  A    between atoms: C_2  and  N_9
REMARK                            x       y       z     vdW  Elec       q    Type
REMARK                         _______ _______ _______ _____ _____    ______ ____
ROOT
ATOM      1  S   UNL     1       2.363   8.030  18.229  0.00  0.00    +0.000 S 
ATOM      2  C   UNL     1       3.023   6.472  18.329  0.00  0.00    +0.000 C 
ENDROOT
BRANCH   2   3
ATOM      3  C   UNL     1       2.214   5.317  18.875  0.00  0.00    +0.000 A 
ATOM      4  C   UNL     1       1.882   5.207  20.221  0.00  0.00    +0.000 A 
ATOM      5  C   UNL     1       1.230   4.056  20.654  0.00  0.00    +0.000 A 
ATOM      6  C   UNL     1       0.930   3.051  19.738  0.00  0.00    +0.000 A 
ATOM      7  C   UNL     1       1.285   3.246  18.417  0.00  0.00    +0.000 A 
ATOM      8  N   UNL     1       1.918   4.348  17.968  0.00  0.00    +0.000 NA
ENDBRANCH   2   3
BRANCH   2   9
ATOM      9  N   UNL     1       4.354   6.212  17.958  0.00  0.00    +0.000 N 
ATOM     10  C   UNL     1       4.864   6.348  16.584  0.00  0.00    +0.000 C 
ATOM     11  C   UNL     1       5.334   4.998  16.031  0.00  0.00    +0.000 C 
ATOM     12  O   UNL     1       6.303   4.397  16.908  0.00  0.00    +0.000 OA
ATOM     13  C   UNL     1       5.740   4.195  18.216  0.00  0.00    +0.000 C 
ATOM     14  C   UNL     1       5.302   5.525  18.849  0.00  0.00    +0.000 C 
ENDBRANCH   2   9
TORSDOF 2
ENDMDL
