MODEL 1
REMARK VINA RESULT:      -9.0      0.000      0.000
REMARK  Name = 
REMARK  4 active torsions:
REMARK  status: ('A' for Active; 'I' for Inactive)
REMARK    1  A    between atoms: C_2  and  C_3
REMARK    2  A    between atoms: C_5  and  C_6
REMARK    3  A    between atoms: N_11  and  C_12
REMARK    4  A    between atoms: C_21  and  N_22
REMARK                            x       y       z     vdW  Elec       q    Type
REMARK                         _______ _______ _______ _____ _____    ______ ____
ROOT
ATOM      1  C   UNL     1       2.717   5.432  19.977  0.00  0.00    +0.000 A 
ATOM      2  C   UNL     1       2.161   4.458  20.778  0.00  0.00    +0.000 A 
ATOM      3  C   UNL     1       2.791   3.237  20.771  0.00  0.00    +0.000 A 
ATOM      4  N   UNL     1       3.892   2.968  20.049  0.00  0.00    +0.000 NA
ATOM      5  C   UNL     1       4.358   3.956  19.277  0.00  0.00    +0.000 A 
ATOM      6  N   UNL     1       5.501   3.696  18.529  0.00  0.00    +0.000 N 
ATOM      7  N   UNL     1       3.805   5.179  19.223  0.00  0.00    +0.000 NA
ATOM      8  H   UNL     1       5.862   2.775  18.729  0.00  0.00    +0.000 HD
ENDROOT
BRANCH   1  11
ATOM      9  C   UNL     1       1.199   8.804  20.942  0.00  0.00    +0.000 A 
ATOM     10  C   UNL     1       1.714   7.489  21.010  0.00  0.00    +0.000 A 
ATOM     11  C   UNL     1       2.192   6.809  19.879  0.00  0.00    +0.000 A 
ATOM     12  C   UNL     1       2.153   7.509  18.672  0.00  0.00    +0.000 A 
ATOM     13  C   UNL     1       1.642   8.815  18.598  0.00  0.00    +0.000 A 
ATOM     14  C   UNL     1       1.141   9.508  19.716  0.00  0.00    +0.000 A 
BRANCH  14  15
ATOM     15  N   UNL     1       0.622  10.786  19.582  0.00  0.00    +0.000 N 
ATOM     16  C   UNL     1      -0.798  11.094  19.407  0.00  0.00    +0.000 C 
ATOM     17  C   UNL     1      -0.816  12.149  18.311  0.00  0.00    +0.000 C 
ATOM     18  C   UNL     1       0.448  12.943  18.581  0.00  0.00    +0.000 C 
ATOM     19  C   UNL     1       1.446  11.907  19.101  0.00  0.00    +0.000 C 
ENDBRANCH  14  15
BRANCH   9  21
ATOM     20  N   UNL     1       0.301   9.813  23.163  0.00  0.00    +0.000 NA
ATOM     21  C   UNL     1       0.691   9.345  22.173  0.00  0.00    +0.000 C 
ENDBRANCH   9  21
ENDBRANCH   1  11
BRANCH   6  22
ATOM     22  C   UNL     1       5.874   4.261  17.303  0.00  0.00    +0.000 A 
ATOM     23  C   UNL     1       5.120   3.999  16.157  0.00  0.00    +0.000 A 
ATOM     24  C   UNL     1       5.532   4.494  14.920  0.00  0.00    +0.000 A 
ATOM     25  C   UNL     1       6.684   5.261  14.865  0.00  0.00    +0.000 A 
ATOM     26  N   UNL     1       7.436   5.555  15.942  0.00  0.00    +0.000 NA
ATOM     27  C   UNL     1       7.023   5.035  17.124  0.00  0.00    +0.000 A 
ENDBRANCH   6  22
TORSDOF 4
ENDMDL
MODEL 2
REMARK VINA RESULT:      -8.5      0.633      1.005
REMARK  Name = 
REMARK  4 active torsions:
REMARK  status: ('A' for Active; 'I' for Inactive)
REMARK    1  A    between atoms: C_2  and  C_3
REMARK    2  A    between atoms: C_5  and  C_6
REMARK    3  A    between atoms: N_11  and  C_12
REMARK    4  A    between atoms: C_21  and  N_22
REMARK                            x       y       z     vdW  Elec       q    Type
REMARK                         _______ _______ _______ _____ _____    ______ ____
ROOT
ATOM      1  C   UNL     1       2.404   5.516  20.137  0.00  0.00    +0.000 A 
ATOM      2  C   UNL     1       1.740   4.574  20.892  0.00  0.00    +0.000 A 
ATOM      3  C   UNL     1       2.299   3.319  20.923  0.00  0.00    +0.000 A 
ATOM      4  N   UNL     1       3.430   2.989  20.277  0.00  0.00    +0.000 NA
ATOM      5  C   UNL     1       4.003   3.949  19.544  0.00  0.00    +0.000 A 
ATOM      6  N   UNL     1       5.178   3.626  18.874  0.00  0.00    +0.000 N 
ATOM      7  N   UNL     1       3.525   5.202  19.458  0.00  0.00    +0.000 NA
ATOM      8  H   UNL     1       5.471   2.686  19.094  0.00  0.00    +0.000 HD
ENDROOT
BRANCH   1  11
ATOM      9  C   UNL     1       1.036   8.974  21.017  0.00  0.00    +0.000 A 
ATOM     10  C   UNL     1       1.469   7.631  21.113  0.00  0.00    +0.000 A 
ATOM     11  C   UNL     1       1.966   6.920  20.009  0.00  0.00    +0.000 A 
ATOM     12  C   UNL     1       2.031   7.617  18.802  0.00  0.00    +0.000 A 
ATOM     13  C   UNL     1       1.601   8.950  18.700  0.00  0.00    +0.000 A 
ATOM     14  C   UNL     1       1.084   9.675  19.790  0.00  0.00    +0.000 A 
BRANCH  14  15
ATOM     15  N   UNL     1       0.648  10.981  19.627  0.00  0.00    +0.000 N 
ATOM     16  C   UNL     1      -0.749  11.374  19.436  0.00  0.00    +0.000 C 
ATOM     17  C   UNL     1      -0.694  12.406  18.319  0.00  0.00    +0.000 C 
ATOM     18  C   UNL     1       0.616  13.124  18.583  0.00  0.00    +0.000 C 
ATOM     19  C   UNL     1       1.544  12.037  19.130  0.00  0.00    +0.000 C 
ENDBRANCH  14  15
BRANCH   9  21
ATOM     20  N   UNL     1       0.094  10.012  23.206  0.00  0.00    +0.000 NA
ATOM     21  C   UNL     1       0.495   9.548  22.220  0.00  0.00    +0.000 C 
ENDBRANCH   9  21
ENDBRANCH   1  11
BRANCH   6  22
ATOM     22  C   UNL     1       5.665   4.170  17.679  0.00  0.00    +0.000 A 
ATOM     23  C   UNL     1       6.727   5.076  17.708  0.00  0.00    +0.000 A 
ATOM     24  C   UNL     1       7.165   5.680  16.530  0.00  0.00    +0.000 A 
ATOM     25  C   UNL     1       6.536   5.344  15.341  0.00  0.00    +0.000 A 
ATOM     26  N   UNL     1       5.520   4.465  15.259  0.00  0.00    +0.000 NA
ATOM     27  C   UNL     1       5.101   3.917  16.426  0.00  0.00    +0.000 A 
ENDBRANCH   6  22
TORSDOF 4
ENDMDL
MODEL 3
REMARK VINA RESULT:      -8.0      0.923      1.877
REMARK  Name = 
REMARK  4 active torsions:
REMARK  status: ('A' for Active; 'I' for Inactive)
REMARK    1  A    between atoms: C_2  and  C_3
REMARK    2  A    between atoms: C_5  and  C_6
REMARK    3  A    between atoms: N_11  and  C_12
REMARK    4  A    between atoms: C_21  and  N_22
REMARK                            x       y       z     vdW  Elec       q    Type
REMARK                         _______ _______ _______ _____ _____    ______ ____
ROOT
ATOM      1  C   UNL     1       2.680   5.037  20.220  0.00  0.00    +0.000 A 
ATOM      2  C   UNL     1       2.204   3.972  20.953  0.00  0.00    +0.000 A 
ATOM      3  C   UNL     1       2.914   2.800  20.850  0.00  0.00    +0.000 A 
ATOM      4  N   UNL     1       4.018   2.660  20.098  0.00  0.00    +0.000 NA
ATOM      5  C   UNL     1       4.405   3.730  19.396  0.00  0.00    +0.000 A 
ATOM      6  N   UNL     1       5.550   3.604  18.617  0.00  0.00    +0.000 N 
ATOM      7  N   UNL     1       3.770   4.914  19.438  0.00  0.00    +0.000 NA
ATOM      8  H   UNL     1       5.975   2.697  18.745  0.00  0.00    +0.000 HD
ENDROOT
BRANCH   1  11
ATOM      9  C   UNL     1       1.736   8.594  19.191  0.00  0.00    +0.000 A 
ATOM     10  C   UNL     1       2.309   7.301  19.202  0.00  0.00    +0.000 A 
ATOM     11  C   UNL     1       2.062   6.378  20.230  0.00  0.00    +0.000 A 
ATOM     12  C   UNL     1       1.197   6.795  21.243  0.00  0.00    +0.000 A 
ATOM     13  C   UNL     1       0.626   8.078  21.238  0.00  0.00    +0.000 A 
ATOM     14  C   UNL     1       0.874   9.025  20.226  0.00  0.00    +0.000 A 
BRANCH  14  15
ATOM     15  N   UNL     1       0.306  10.287  20.285  0.00  0.00    +0.000 N 
ATOM     16  C   UNL     1      -0.846  10.719  19.491  0.00  0.00    +0.000 C 
ATOM     17  C   UNL     1      -0.459  12.109  19.006  0.00  0.00    +0.000 C 
ATOM     18  C   UNL     1       0.336  12.668  20.171  0.00  0.00    +0.000 C 
ATOM     19  C   UNL     1       1.069  11.457  20.749  0.00  0.00    +0.000 C 
ENDBRANCH  14  15
BRANCH   9  21
ATOM     20  N   UNL     1       2.464  10.163  17.250  0.00  0.00    +0.000 NA
ATOM     21  C   UNL     1       2.131   9.448  18.103  0.00  0.00    +0.000 C 
ENDBRANCH   9  21
ENDBRANCH   1  11
BRANCH   6  22
ATOM     22  C   UNL     1       5.864   4.280  17.432  0.00  0.00    +0.000 A 
ATOM     23  C   UNL     1       5.122   4.040  16.274  0.00  0.00    +0.000 A 
ATOM     24  C   UNL     1       5.480   4.651  15.073  0.00  0.00    +0.000 A 
ATOM     25  C   UNL     1       6.568   5.509  15.066  0.00  0.00    +0.000 A 
ATOM     26  N   UNL     1       7.305   5.787  16.158  0.00  0.00    +0.000 NA
ATOM     27  C   UNL     1       6.947   5.155  17.303  0.00  0.00    +0.000 A 
ENDBRANCH   6  22
TORSDOF 4
ENDMDL
MODEL 4
REMARK VINA RESULT:      -7.8      1.819      4.051
REMARK  Name = 
REMARK  4 active torsions:
REMARK  status: ('A' for Active; 'I' for Inactive)
REMARK    1  A    between atoms: C_2  and  C_3
REMARK    2  A    between atoms: C_5  and  C_6
REMARK    3  A    between atoms: N_11  and  C_12
REMARK    4  A    between atoms: C_21  and  N_22
REMARK                            x       y       z     vdW  Elec       q    Type
REMARK                         _______ _______ _______ _____ _____    ______ ____
ROOT
ATOM      1  C   UNL     1       3.283   7.135  17.826  0.00  0.00    +0.000 A 
ATOM      2  C   UNL     1       4.322   7.333  16.944  0.00  0.00    +0.000 A 
ATOM      3  C   UNL     1       4.976   6.202  16.516  0.00  0.00    +0.000 A 
ATOM      4  N   UNL     1       4.648   4.958  16.902  0.00  0.00    +0.000 NA
ATOM      5  C   UNL     1       3.645   4.848  17.780  0.00  0.00    +0.000 A 
ATOM      6  N   UNL     1       3.288   3.567  18.185  0.00  0.00    +0.000 N 
ATOM      7  N   UNL     1       2.951   5.900  18.249  0.00  0.00    +0.000 NA
ATOM      8  H   UNL     1       3.826   2.870  17.692  0.00  0.00    +0.000 HD
ENDROOT
BRANCH   1  11
ATOM      9  C   UNL     1       0.966   9.118  20.129  0.00  0.00    +0.000 A 
ATOM     10  C   UNL     1       1.773   8.090  19.591  0.00  0.00    +0.000 A 
ATOM     11  C   UNL     1       2.452   8.229  18.370  0.00  0.00    +0.000 A 
ATOM     12  C   UNL     1       2.307   9.453  17.716  0.00  0.00    +0.000 A 
ATOM     13  C   UNL     1       1.506  10.477  18.246  0.00  0.00    +0.000 A 
ATOM     14  C   UNL     1       0.803  10.352  19.458  0.00  0.00    +0.000 A 
BRANCH  14  15
ATOM     15  N   UNL     1       0.004  11.386  19.921  0.00  0.00    +0.000 N 
ATOM     16  C   UNL     1       0.310  12.217  21.087  0.00  0.00    +0.000 C 
ATOM     17  C   UNL     1      -1.016  12.317  21.828  0.00  0.00    +0.000 C 
ATOM     18  C   UNL     1      -2.034  12.346  20.704  0.00  0.00    +0.000 C 
ATOM     19  C   UNL     1      -1.437  11.440  19.625  0.00  0.00    +0.000 C 
ENDBRANCH  14  15
BRANCH   9  21
ATOM     20  N   UNL     1      -0.281   8.587  22.348  0.00  0.00    +0.000 NA
ATOM     21  C   UNL     1       0.284   8.805  21.357  0.00  0.00    +0.000 C 
ENDBRANCH   9  21
ENDBRANCH   1  11
BRANCH   6  22
ATOM     22  C   UNL     1       2.727   3.175  19.407  0.00  0.00    +0.000 A 
ATOM     23  C   UNL     1       1.346   3.256  19.597  0.00  0.00    +0.000 A 
ATOM     24  C   UNL     1       0.791   2.942  20.837  0.00  0.00    +0.000 A 
ATOM     25  C   UNL     1       1.637   2.533  21.856  0.00  0.00    +0.000 A 
ATOM     26  N   UNL     1       2.971   2.424  21.718  0.00  0.00    +0.000 NA
ATOM     27  C   UNL     1       3.481   2.763  20.508  0.00  0.00    +0.000 A 
ENDBRANCH   6  22
TORSDOF 4
ENDMDL
MODEL 5
REMARK VINA RESULT:      -7.6      1.677      3.908
REMARK  Name = 
REMARK  4 active torsions:
REMARK  status: ('A' for Active; 'I' for Inactive)
REMARK    1  A    between atoms: C_2  and  C_3
REMARK    2  A    between atoms: C_5  and  C_6
REMARK    3  A    between atoms: N_11  and  C_12
REMARK    4  A    between atoms: C_21  and  N_22
REMARK                            x       y       z     vdW  Elec       q    Type
REMARK                         _______ _______ _______ _____ _____    ______ ____
ROOT
ATOM      1  C   UNL     1       3.433   6.938  17.724  0.00  0.00    +0.000 A 
ATOM      2  C   UNL     1       4.494   7.094  16.858  0.00  0.00    +0.000 A 
ATOM      3  C   UNL     1       5.139   5.941  16.479  0.00  0.00    +0.000 A 
ATOM      4  N   UNL     1       4.784   4.715  16.896  0.00  0.00    +0.000 NA
ATOM      5  C   UNL     1       3.761   4.647  17.755  0.00  0.00    +0.000 A 
ATOM      6  N   UNL     1       3.377   3.384  18.191  0.00  0.00    +0.000 N 
ATOM      7  N   UNL     1       3.075   5.722  18.177  0.00  0.00    +0.000 NA
ATOM      8  H   UNL     1       3.914   2.664  17.731  0.00  0.00    +0.000 HD
ENDROOT
BRANCH   1  11
ATOM      9  C   UNL     1       1.146   9.047  19.943  0.00  0.00    +0.000 A 
ATOM     10  C   UNL     1       1.948   7.991  19.453  0.00  0.00    +0.000 A 
ATOM     11  C   UNL     1       2.608   8.060  18.216  0.00  0.00    +0.000 A 
ATOM     12  C   UNL     1       2.450   9.244  17.494  0.00  0.00    +0.000 A 
ATOM     13  C   UNL     1       1.655  10.297  17.976  0.00  0.00    +0.000 A 
ATOM     14  C   UNL     1       0.970  10.240  19.205  0.00  0.00    +0.000 A 
BRANCH  14  15
ATOM     15  N   UNL     1       0.175  11.298  19.619  0.00  0.00    +0.000 N 
ATOM     16  C   UNL     1      -0.988  11.802  18.887  0.00  0.00    +0.000 C 
ATOM     17  C   UNL     1      -0.836  13.315  18.950  0.00  0.00    +0.000 C 
ATOM     18  C   UNL     1      -0.228  13.540  20.322  0.00  0.00    +0.000 C 
ATOM     19  C   UNL     1       0.680  12.329  20.540  0.00  0.00    +0.000 C 
ENDBRANCH  14  15
BRANCH   9  21
ATOM     20  N   UNL     1      -0.080   8.631  22.198  0.00  0.00    +0.000 NA
ATOM     21  C   UNL     1       0.484   8.805  21.197  0.00  0.00    +0.000 C 
ENDBRANCH   9  21
ENDBRANCH   1  11
BRANCH   6  22
ATOM     22  C   UNL     1       2.785   3.038  19.412  0.00  0.00    +0.000 A 
ATOM     23  C   UNL     1       1.402   3.142  19.570  0.00  0.00    +0.000 A 
ATOM     24  C   UNL     1       0.816   2.875  20.807  0.00  0.00    +0.000 A 
ATOM     25  C   UNL     1       1.634   2.488  21.857  0.00  0.00    +0.000 A 
ATOM     26  N   UNL     1       2.969   2.357  21.751  0.00  0.00    +0.000 NA
ATOM     27  C   UNL     1       3.510   2.652  20.543  0.00  0.00    +0.000 A 
ENDBRANCH   6  22
TORSDOF 4
ENDMDL
MODEL 6
REMARK VINA RESULT:      -7.5      1.277      2.334
REMARK  Name = 
REMARK  4 active torsions:
REMARK  status: ('A' for Active; 'I' for Inactive)
REMARK    1  A    between atoms: C_2  and  C_3
REMARK    2  A    between atoms: C_5  and  C_6
REMARK    3  A    between atoms: N_11  and  C_12
REMARK    4  A    between atoms: C_21  and  N_22
REMARK                            x       y       z     vdW  Elec       q    Type
REMARK                         _______ _______ _______ _____ _____    ______ ____
ROOT
ATOM      1  C   UNL     1       2.458   5.077  20.394  0.00  0.00    +0.000 A 
ATOM      2  C   UNL     1       1.913   4.052  21.136  0.00  0.00    +0.000 A 
ATOM      3  C   UNL     1       2.574   2.848  21.083  0.00  0.00    +0.000 A 
ATOM      4  N   UNL     1       3.694   2.643  20.370  0.00  0.00    +0.000 NA
ATOM      5  C   UNL     1       4.148   3.677  19.656  0.00  0.00    +0.000 A 
ATOM      6  N   UNL     1       5.310   3.483  18.917  0.00  0.00    +0.000 N 
ATOM      7  N   UNL     1       3.565   4.888  19.651  0.00  0.00    +0.000 NA
ATOM      8  H   UNL     1       5.691   2.562  19.080  0.00  0.00    +0.000 HD
ENDROOT
BRANCH   1  11
ATOM      9  C   UNL     1       1.682   8.636  19.239  0.00  0.00    +0.000 A 
ATOM     10  C   UNL     1       2.197   7.321  19.298  0.00  0.00    +0.000 A 
ATOM     11  C   UNL     1       1.899   6.444  20.353  0.00  0.00    +0.000 A 
ATOM     12  C   UNL     1       1.043   6.931  21.341  0.00  0.00    +0.000 A 
ATOM     13  C   UNL     1       0.528   8.237  21.287  0.00  0.00    +0.000 A 
ATOM     14  C   UNL     1       0.829   9.138  20.249  0.00  0.00    +0.000 A 
BRANCH  14  15
ATOM     15  N   UNL     1       0.316  10.425  20.260  0.00  0.00    +0.000 N 
ATOM     16  C   UNL     1       0.647  11.445  21.257  0.00  0.00    +0.000 C 
ATOM     17  C   UNL     1      -0.695  12.076  21.599  0.00  0.00    +0.000 C 
ATOM     18  C   UNL     1      -1.435  12.044  20.275  0.00  0.00    +0.000 C 
ATOM     19  C   UNL     1      -0.961  10.754  19.605  0.00  0.00    +0.000 C 
ENDBRANCH  14  15
BRANCH   9  21
ATOM     20  N   UNL     1       2.504  10.105  17.257  0.00  0.00    +0.000 NA
ATOM     21  C   UNL     1       2.126   9.436  18.129  0.00  0.00    +0.000 C 
ENDBRANCH   9  21
ENDBRANCH   1  11
BRANCH   6  22
ATOM     22  C   UNL     1       5.690   4.116  17.727  0.00  0.00    +0.000 A 
ATOM     23  C   UNL     1       6.708   5.071  17.741  0.00  0.00    +0.000 A 
ATOM     24  C   UNL     1       7.036   5.761  16.574  0.00  0.00    +0.000 A 
ATOM     25  C   UNL     1       6.346   5.459  15.411  0.00  0.00    +0.000 A 
ATOM     26  N   UNL     1       5.370   4.536  15.343  0.00  0.00    +0.000 NA
ATOM     27  C   UNL     1       5.056   3.903  16.501  0.00  0.00    +0.000 A 
ENDBRANCH   6  22
TORSDOF 4
ENDMDL
MODEL 7
REMARK VINA RESULT:      -7.5      2.011      7.834
REMARK  Name = 
REMARK  4 active torsions:
REMARK  status: ('A' for Active; 'I' for Inactive)
REMARK    1  A    between atoms: C_2  and  C_3
REMARK    2  A    between atoms: C_5  and  C_6
REMARK    3  A    between atoms: N_11  and  C_12
REMARK    4  A    between atoms: C_21  and  N_22
REMARK                            x       y       z     vdW  Elec       q    Type
REMARK                         _______ _______ _______ _____ _____    ______ ____
ROOT
ATOM      1  C   UNL     1       0.668   9.431  21.301  0.00  0.00    +0.000 A 
ATOM      2  C   UNL     1      -0.050   9.165  22.445  0.00  0.00    +0.000 A 
ATOM      3  C   UNL     1      -0.581  10.254  23.094  0.00  0.00    +0.000 A 
ATOM      4  N   UNL     1      -0.439  11.520  22.667  0.00  0.00    +0.000 NA
ATOM      5  C   UNL     1       0.292  11.701  21.562  0.00  0.00    +0.000 A 
ATOM      6  N   UNL     1       0.443  13.005  21.103  0.00  0.00    +0.000 N 
ATOM      7  N   UNL     1       0.846  10.694  20.866  0.00  0.00    +0.000 NA
ATOM      8  H   UNL     1      -0.094  13.649  21.664  0.00  0.00    +0.000 HD
ENDROOT
BRANCH   1  11
ATOM      9  C   UNL     1       2.046   6.056  20.153  0.00  0.00    +0.000 A 
ATOM     10  C   UNL     1       1.450   7.074  20.933  0.00  0.00    +0.000 A 
ATOM     11  C   UNL     1       1.287   8.385  20.461  0.00  0.00    +0.000 A 
ATOM     12  C   UNL     1       1.727   8.635  19.160  0.00  0.00    +0.000 A 
ATOM     13  C   UNL     1       2.320   7.629  18.380  0.00  0.00    +0.000 A 
ATOM     14  C   UNL     1       2.510   6.312  18.841  0.00  0.00    +0.000 A 
BRANCH  14  15
ATOM     15  N   UNL     1       3.126   5.365  18.039  0.00  0.00    +0.000 N 
ATOM     16  C   UNL     1       2.475   4.159  17.525  0.00  0.00    +0.000 C 
ATOM     17  C   UNL     1       3.509   3.062  17.738  0.00  0.00    +0.000 C 
ATOM     18  C   UNL     1       4.823   3.780  17.497  0.00  0.00    +0.000 C 
ATOM     19  C   UNL     1       4.588   5.194  18.030  0.00  0.00    +0.000 C 
ENDBRANCH  14  15
BRANCH   9  21
ATOM     20  N   UNL     1       2.296   3.756  21.339  0.00  0.00    +0.000 NA
ATOM     21  C   UNL     1       2.200   4.779  20.796  0.00  0.00    +0.000 C 
ENDBRANCH   9  21
ENDBRANCH   1  11
BRANCH   6  22
ATOM     22  C   UNL     1       1.516  13.545  20.383  0.00  0.00    +0.000 A 
ATOM     23  C   UNL     1       1.452  13.622  18.991  0.00  0.00    +0.000 A 
ATOM     24  C   UNL     1       2.549  14.087  18.264  0.00  0.00    +0.000 A 
ATOM     25  C   UNL     1       3.681  14.484  18.957  0.00  0.00    +0.000 A 
ATOM     26  N   UNL     1       3.785  14.445  20.299  0.00  0.00    +0.000 NA
ATOM     27  C   UNL     1       2.712  13.962  20.972  0.00  0.00    +0.000 A 
ENDBRANCH   6  22
TORSDOF 4
ENDMDL
MODEL 8
REMARK VINA RESULT:      -7.5      1.243      2.319
REMARK  Name = 
REMARK  4 active torsions:
REMARK  status: ('A' for Active; 'I' for Inactive)
REMARK    1  A    between atoms: C_2  and  C_3
REMARK    2  A    between atoms: C_5  and  C_6
REMARK    3  A    between atoms: N_11  and  C_12
REMARK    4  A    between atoms: C_21  and  N_22
REMARK                            x       y       z     vdW  Elec       q    Type
REMARK                         _______ _______ _______ _____ _____    ______ ____
ROOT
ATOM      1  C   UNL     1       2.428   5.261  19.960  0.00  0.00    +0.000 A 
ATOM      2  C   UNL     1       1.706   4.106  20.164  0.00  0.00    +0.000 A 
ATOM      3  C   UNL     1       2.395   2.927  20.011  0.00  0.00    +0.000 A 
ATOM      4  N   UNL     1       3.698   2.859  19.692  0.00  0.00    +0.000 NA
ATOM      5  C   UNL     1       4.325   4.021  19.485  0.00  0.00    +0.000 A 
ATOM      6  N   UNL     1       5.676   3.969  19.161  0.00  0.00    +0.000 N 
ATOM      7  N   UNL     1       3.729   5.219  19.613  0.00  0.00    +0.000 NA
ATOM      8  H   UNL     1       6.017   3.019  19.185  0.00  0.00    +0.000 HD
ENDROOT
BRANCH   1  11
ATOM      9  C   UNL     1       1.565   8.918  19.261  0.00  0.00    +0.000 A 
ATOM     10  C   UNL     1       2.090   7.610  19.141  0.00  0.00    +0.000 A 
ATOM     11  C   UNL     1       1.861   6.617  20.106  0.00  0.00    +0.000 A 
ATOM     12  C   UNL     1       1.065   6.980  21.193  0.00  0.00    +0.000 A 
ATOM     13  C   UNL     1       0.542   8.278  21.318  0.00  0.00    +0.000 A 
ATOM     14  C   UNL     1       0.774   9.293  20.371  0.00  0.00    +0.000 A 
BRANCH  14  15
ATOM     15  N   UNL     1       0.256  10.565  20.558  0.00  0.00    +0.000 N 
ATOM     16  C   UNL     1      -0.988  11.054  19.960  0.00  0.00    +0.000 C 
ATOM     17  C   UNL     1      -0.639  12.452  19.471  0.00  0.00    +0.000 C 
ATOM     18  C   UNL     1       0.335  12.948  20.522  0.00  0.00    +0.000 C 
ATOM     19  C   UNL     1       1.112  11.699  20.943  0.00  0.00    +0.000 C 
ENDBRANCH  14  15
BRANCH   9  21
ATOM     20  N   UNL     1       2.261  10.605  17.409  0.00  0.00    +0.000 NA
ATOM     21  C   UNL     1       1.936   9.842  18.223  0.00  0.00    +0.000 C 
ENDBRANCH   9  21
ENDBRANCH   1  11
BRANCH   6  22
ATOM     22  C   UNL     1       6.413   4.877  18.391  0.00  0.00    +0.000 A 
ATOM     23  C   UNL     1       7.190   5.853  19.017  0.00  0.00    +0.000 A 
ATOM     24  C   UNL     1       7.862   6.809  18.256  0.00  0.00    +0.000 A 
ATOM     25  C   UNL     1       7.754   6.750  16.876  0.00  0.00    +0.000 A 
ATOM     26  N   UNL     1       7.032   5.821  16.224  0.00  0.00    +0.000 NA
ATOM     27  C   UNL     1       6.369   4.924  16.995  0.00  0.00    +0.000 A 
ENDBRANCH   6  22
TORSDOF 4
ENDMDL
MODEL 9
REMARK VINA RESULT:      -7.1      2.405      8.214
REMARK  Name = 
REMARK  4 active torsions:
REMARK  status: ('A' for Active; 'I' for Inactive)
REMARK    1  A    between atoms: C_2  and  C_3
REMARK    2  A    between atoms: C_5  and  C_6
REMARK    3  A    between atoms: N_11  and  C_12
REMARK    4  A    between atoms: C_21  and  N_22
REMARK                            x       y       z     vdW  Elec       q    Type
REMARK                         _______ _______ _______ _____ _____    ______ ____
ROOT
ATOM      1  C   UNL     1       0.681  10.079  19.891  0.00  0.00    +0.000 A 
ATOM      2  C   UNL     1       1.118  10.953  20.863  0.00  0.00    +0.000 A 
ATOM      3  C   UNL     1       0.254  11.967  21.197  0.00  0.00    +0.000 A 
ATOM      4  N   UNL     1      -0.959  12.128  20.641  0.00  0.00    +0.000 NA
ATOM      5  C   UNL     1      -1.302  11.256  19.688  0.00  0.00    +0.000 A 
ATOM      6  N   UNL     1      -2.557  11.405  19.108  0.00  0.00    +0.000 N 
ATOM      7  N   UNL     1      -0.519  10.235  19.301  0.00  0.00    +0.000 NA
ATOM      8  H   UNL     1      -3.073  12.151  19.550  0.00  0.00    +0.000 HD
ENDROOT
BRANCH   1  11
ATOM      9  C   UNL     1       2.259   6.601  19.748  0.00  0.00    +0.000 A 
ATOM     10  C   UNL     1       1.512   7.725  20.168  0.00  0.00    +0.000 A 
ATOM     11  C   UNL     1       1.464   8.915  19.425  0.00  0.00    +0.000 A 
ATOM     12  C   UNL     1       2.181   8.929  18.228  0.00  0.00    +0.000 A 
ATOM     13  C   UNL     1       2.925   7.815  17.807  0.00  0.00    +0.000 A 
ATOM     14  C   UNL     1       3.001   6.619  18.545  0.00  0.00    +0.000 A 
BRANCH  14  15
ATOM     15  N   UNL     1       3.774   5.560  18.095  0.00  0.00    +0.000 N 
ATOM     16  C   UNL     1       5.182   5.663  17.707  0.00  0.00    +0.000 C 
ATOM     17  C   UNL     1       5.271   4.851  16.423  0.00  0.00    +0.000 C 
ATOM     18  C   UNL     1       4.284   3.724  16.662  0.00  0.00    +0.000 C 
ATOM     19  C   UNL     1       3.168   4.364  17.489  0.00  0.00    +0.000 C 
ENDBRANCH  14  15
BRANCH   9  21
ATOM     20  N   UNL     1       2.283   4.548  21.344  0.00  0.00    +0.000 NA
ATOM     21  C   UNL     1       2.261   5.476  20.645  0.00  0.00    +0.000 C 
ENDBRANCH   9  21
ENDBRANCH   1  11
BRANCH   6  22
ATOM     22  C   UNL     1      -2.953  11.054  17.811  0.00  0.00    +0.000 A 
ATOM     23  C   UNL     1      -2.163  10.190  17.051  0.00  0.00    +0.000 A 
ATOM     24  C   UNL     1      -2.511   9.900  15.732  0.00  0.00    +0.000 A 
ATOM     25  C   UNL     1      -3.661  10.471  15.211  0.00  0.00    +0.000 A 
ATOM     26  N   UNL     1      -4.464  11.297  15.907  0.00  0.00    +0.000 NA
ATOM     27  C   UNL     1      -4.082  11.580  17.177  0.00  0.00    +0.000 A 
ENDBRANCH   6  22
TORSDOF 4
ENDMDL
