MODEL 1
REMARK VINA RESULT:      -7.4      0.000      0.000
REMARK  Name = 
REMARK  9 active torsions:
REMARK  status: ('A' for Active; 'I' for Inactive)
REMARK    1  A    between atoms: C_2  and  C_3
REMARK    2  A    between atoms: C_3  and  C_4
REMARK    3  A    between atoms: C_4  and  N_5
REMARK    4  A    between atoms: N_5  and  C_6
REMARK    5  A    between atoms: N_5  and  C_15
REMARK    6  A    between atoms: C_6  and  C_7
REMARK    7  A    between atoms: C_7  and  C_8
REMARK    8  A    between atoms: C_8  and  N_9
REMARK    9  A    between atoms: C_15  and  N_16
REMARK                            x       y       z     vdW  Elec       q    Type
REMARK                         _______ _______ _______ _____ _____    ______ ____
ROOT
ATOM      1  N   UNL     1       2.728   4.573  18.628  0.00  0.00    +0.000 NA
ENDROOT
BRANCH   1   2
ATOM      2  C   UNL     1       1.364   4.052  18.380  0.00  0.00    +0.000 C 
BRANCH   2   3
ATOM      3  C   UNL     1       0.945   2.751  19.112  0.00  0.00    +0.000 C 
BRANCH   3   5
ATOM      4  N   UNL     1       1.609   2.914  21.669  0.00  0.00    +0.000 NA
ATOM      5  C   UNL     1       1.346   2.758  20.521  0.00  0.00    +0.000 C 
ENDBRANCH   3   5
ENDBRANCH   2   3
ENDBRANCH   1   2
BRANCH   1   6
ATOM      6  C   UNL     1       3.825   3.639  18.292  0.00  0.00    +0.000 C 
BRANCH   6   7
ATOM      7  C   UNL     1       5.096   3.846  19.154  0.00  0.00    +0.000 C 
BRANCH   7   8
ATOM      8  C   UNL     1       5.772   5.217  19.321  0.00  0.00    +0.000 C 
BRANCH   8   9
ATOM      9  N   UNL     1       7.181   5.154  18.830  0.00  0.00    +0.000 NA
ATOM     10  C   UNL     1       7.959   6.415  18.761  0.00  0.00    +0.000 C 
ATOM     11  C   UNL     1       7.530   7.364  17.630  0.00  0.00    +0.000 C 
ATOM     12  O   UNL     1       7.637   6.701  16.362  0.00  0.00    +0.000 OA
ATOM     13  C   UNL     1       6.847   5.502  16.362  0.00  0.00    +0.000 C 
ATOM     14  C   UNL     1       7.265   4.537  17.490  0.00  0.00    +0.000 C 
ENDBRANCH   8   9
ENDBRANCH   7   8
ENDBRANCH   6   7
ENDBRANCH   1   6
BRANCH   1  15
ATOM     15  C   UNL     1       2.918   5.887  17.949  0.00  0.00    +0.000 C 
BRANCH  15  16
ATOM     16  N   UNL     1       2.354   6.940  18.739  0.00  0.00    +0.000 N 
ATOM     17  C   UNL     1       2.177   6.859  20.096  0.00  0.00    +0.000 C 
ATOM     18  O   UNL     1       2.458   5.963  20.868  0.00  0.00    +0.000 OA
ATOM     19  C   UNL     1       1.571   8.123  20.500  0.00  0.00    +0.000 A 
ATOM     20  C   UNL     1       1.120   8.550  21.729  0.00  0.00    +0.000 A 
ATOM     21  C   UNL     1       0.510   9.809  21.779  0.00  0.00    +0.000 A 
ATOM     22  C   UNL     1       0.362  10.592  20.613  0.00  0.00    +0.000 A 
ATOM     23  C   UNL     1       0.850  10.144  19.385  0.00  0.00    +0.000 A 
ATOM     24  C   UNL     1       1.462   8.912  19.371  0.00  0.00    +0.000 A 
ATOM     25  C   UNL     1       2.053   8.186  18.263  0.00  0.00    +0.000 C 
ATOM     26  O   UNL     1       2.234   8.653  17.156  0.00  0.00    +0.000 OA
ENDBRANCH  15  16
ENDBRANCH   1  15
TORSDOF 9
ENDMDL
MODEL 2
REMARK VINA RESULT:      -7.4      2.216      6.713
REMARK  Name = 
REMARK  9 active torsions:
REMARK  status: ('A' for Active; 'I' for Inactive)
REMARK    1  A    between atoms: C_2  and  C_3
REMARK    2  A    between atoms: C_3  and  C_4
REMARK    3  A    between atoms: C_4  and  N_5
REMARK    4  A    between atoms: N_5  and  C_6
REMARK    5  A    between atoms: N_5  and  C_15
REMARK    6  A    between atoms: C_6  and  C_7
REMARK    7  A    between atoms: C_7  and  C_8
REMARK    8  A    between atoms: C_8  and  N_9
REMARK    9  A    between atoms: C_15  and  N_16
REMARK                            x       y       z     vdW  Elec       q    Type
REMARK                         _______ _______ _______ _____ _____    ______ ____
ROOT
ATOM      1  N   UNL     1       2.229   5.627  19.682  0.00  0.00    +0.000 NA
ENDROOT
BRANCH   1   2
ATOM      2  C   UNL     1       1.165   5.003  20.504  0.00  0.00    +0.000 C 
BRANCH   2   3
ATOM      3  C   UNL     1       1.238   3.472  20.736  0.00  0.00    +0.000 C 
BRANCH   3   5
ATOM      4  N   UNL     1       0.398   2.188  18.580  0.00  0.00    +0.000 NA
ATOM      5  C   UNL     1       0.717   2.716  19.595  0.00  0.00    +0.000 C 
ENDBRANCH   3   5
ENDBRANCH   2   3
ENDBRANCH   1   2
BRANCH   1   6
ATOM      6  C   UNL     1       2.282   7.104  19.744  0.00  0.00    +0.000 C 
BRANCH   6   7
ATOM      7  C   UNL     1       1.565   7.695  20.984  0.00  0.00    +0.000 C 
BRANCH   7   8
ATOM      8  C   UNL     1       0.454   8.753  20.874  0.00  0.00    +0.000 C 
BRANCH   8   9
ATOM      9  N   UNL     1       0.948   9.933  20.105  0.00  0.00    +0.000 NA
ATOM     10  C   UNL     1       0.879  11.270  20.746  0.00  0.00    +0.000 C 
ATOM     11  C   UNL     1      -0.542  11.846  20.860  0.00  0.00    +0.000 C 
ATOM     12  O   UNL     1      -1.142  11.940  19.561  0.00  0.00    +0.000 OA
ATOM     13  C   UNL     1      -1.153  10.652  18.926  0.00  0.00    +0.000 C 
ATOM     14  C   UNL     1       0.265  10.060  18.801  0.00  0.00    +0.000 C 
ENDBRANCH   8   9
ENDBRANCH   7   8
ENDBRANCH   6   7
ENDBRANCH   1   6
BRANCH   1  15
ATOM     15  C   UNL     1       3.556   5.031  20.005  0.00  0.00    +0.000 C 
BRANCH  15  16
ATOM     16  N   UNL     1       4.346   4.906  18.817  0.00  0.00    +0.000 N 
ATOM     17  C   UNL     1       5.711   5.038  18.796  0.00  0.00    +0.000 C 
ATOM     18  O   UNL     1       6.489   5.248  19.707  0.00  0.00    +0.000 OA
ATOM     19  C   UNL     1       6.113   4.853  17.406  0.00  0.00    +0.000 A 
ATOM     20  C   UNL     1       7.351   4.949  16.810  0.00  0.00    +0.000 A 
ATOM     21  C   UNL     1       7.399   4.786  15.421  0.00  0.00    +0.000 A 
ATOM     22  C   UNL     1       6.225   4.543  14.675  0.00  0.00    +0.000 A 
ATOM     23  C   UNL     1       4.988   4.427  15.309  0.00  0.00    +0.000 A 
ATOM     24  C   UNL     1       4.974   4.573  16.677  0.00  0.00    +0.000 A 
ATOM     25  C   UNL     1       3.858   4.513  17.601  0.00  0.00    +0.000 C 
ATOM     26  O   UNL     1       2.736   4.159  17.300  0.00  0.00    +0.000 OA
ENDBRANCH  15  16
ENDBRANCH   1  15
TORSDOF 9
ENDMDL
MODEL 3
REMARK VINA RESULT:      -7.2      2.113      6.574
REMARK  Name = 
REMARK  9 active torsions:
REMARK  status: ('A' for Active; 'I' for Inactive)
REMARK    1  A    between atoms: C_2  and  C_3
REMARK    2  A    between atoms: C_3  and  C_4
REMARK    3  A    between atoms: C_4  and  N_5
REMARK    4  A    between atoms: N_5  and  C_6
REMARK    5  A    between atoms: N_5  and  C_15
REMARK    6  A    between atoms: C_6  and  C_7
REMARK    7  A    between atoms: C_7  and  C_8
REMARK    8  A    between atoms: C_8  and  N_9
REMARK    9  A    between atoms: C_15  and  N_16
REMARK                            x       y       z     vdW  Elec       q    Type
REMARK                         _______ _______ _______ _____ _____    ______ ____
ROOT
ATOM      1  N   UNL     1       4.704   6.642  17.505  0.00  0.00    +0.000 NA
ENDROOT
BRANCH   1   2
ATOM      2  C   UNL     1       6.103   6.982  17.154  0.00  0.00    +0.000 C 
BRANCH   2   3
ATOM      3  C   UNL     1       7.194   5.916  17.431  0.00  0.00    +0.000 C 
BRANCH   3   5
ATOM      4  N   UNL     1       7.822   5.604  19.983  0.00  0.00    +0.000 NA
ATOM      5  C   UNL     1       7.535   5.832  18.853  0.00  0.00    +0.000 C 
ENDBRANCH   3   5
ENDBRANCH   2   3
ENDBRANCH   1   2
BRANCH   1   6
ATOM      6  C   UNL     1       3.686   7.592  17.006  0.00  0.00    +0.000 C 
BRANCH   6   7
ATOM      7  C   UNL     1       2.759   8.143  18.118  0.00  0.00    +0.000 C 
BRANCH   7   8
ATOM      8  C   UNL     1       1.998   9.473  17.981  0.00  0.00    +0.000 C 
BRANCH   8   9
ATOM      9  N   UNL     1       0.661   9.364  18.636  0.00  0.00    +0.000 NA
ATOM     10  C   UNL     1      -0.409  10.302  18.213  0.00  0.00    +0.000 C 
ATOM     11  C   UNL     1      -0.209  11.749  18.692  0.00  0.00    +0.000 C 
ATOM     12  O   UNL     1      -0.121  11.787  20.123  0.00  0.00    +0.000 OA
ATOM     13  C   UNL     1       0.946  10.938  20.576  0.00  0.00    +0.000 C 
ATOM     14  C   UNL     1       0.761   9.481  20.105  0.00  0.00    +0.000 C 
ENDBRANCH   8   9
ENDBRANCH   7   8
ENDBRANCH   6   7
ENDBRANCH   1   6
BRANCH   1  15
ATOM     15  C   UNL     1       4.384   5.248  17.089  0.00  0.00    +0.000 C 
BRANCH  15  16
ATOM     16  N   UNL     1       3.684   4.565  18.135  0.00  0.00    +0.000 N 
ATOM     17  C   UNL     1       2.317   4.505  18.219  0.00  0.00    +0.000 C 
ATOM     18  O   UNL     1       1.468   4.959  17.475  0.00  0.00    +0.000 OA
ATOM     19  C   UNL     1       2.019   3.737  19.423  0.00  0.00    +0.000 A 
ATOM     20  C   UNL     1       0.816   3.433  20.019  0.00  0.00    +0.000 A 
ATOM     21  C   UNL     1       0.867   2.729  21.228  0.00  0.00    +0.000 A 
ATOM     22  C   UNL     1       2.102   2.361  21.803  0.00  0.00    +0.000 A 
ATOM     23  C   UNL     1       3.306   2.661  21.165  0.00  0.00    +0.000 A 
ATOM     24  C   UNL     1       3.223   3.337  19.968  0.00  0.00    +0.000 A 
ATOM     25  C   UNL     1       4.283   3.788  19.087  0.00  0.00    +0.000 C 
ATOM     26  O   UNL     1       5.453   3.488  19.213  0.00  0.00    +0.000 OA
ENDBRANCH  15  16
ENDBRANCH   1  15
TORSDOF 9
ENDMDL
MODEL 4
REMARK VINA RESULT:      -7.2      2.207      6.441
REMARK  Name = 
REMARK  9 active torsions:
REMARK  status: ('A' for Active; 'I' for Inactive)
REMARK    1  A    between atoms: C_2  and  C_3
REMARK    2  A    between atoms: C_3  and  C_4
REMARK    3  A    between atoms: C_4  and  N_5
REMARK    4  A    between atoms: N_5  and  C_6
REMARK    5  A    between atoms: N_5  and  C_15
REMARK    6  A    between atoms: C_6  and  C_7
REMARK    7  A    between atoms: C_7  and  C_8
REMARK    8  A    between atoms: C_8  and  N_9
REMARK    9  A    between atoms: C_15  and  N_16
REMARK                            x       y       z     vdW  Elec       q    Type
REMARK                         _______ _______ _______ _____ _____    ______ ____
ROOT
ATOM      1  N   UNL     1       5.013   5.957  17.227  0.00  0.00    +0.000 NA
ENDROOT
BRANCH   1   2
ATOM      2  C   UNL     1       6.390   6.074  16.692  0.00  0.00    +0.000 C 
BRANCH   2   3
ATOM      3  C   UNL     1       7.450   6.776  17.580  0.00  0.00    +0.000 C 
BRANCH   3   5
ATOM      4  N   UNL     1       7.707   5.508  19.888  0.00  0.00    +0.000 NA
ATOM      5  C   UNL     1       7.678   6.060  18.837  0.00  0.00    +0.000 C 
ENDBRANCH   3   5
ENDBRANCH   2   3
ENDBRANCH   1   2
BRANCH   1   6
ATOM      6  C   UNL     1       4.100   7.058  16.851  0.00  0.00    +0.000 C 
BRANCH   6   7
ATOM      7  C   UNL     1       3.408   7.727  18.065  0.00  0.00    +0.000 C 
BRANCH   7   8
ATOM      8  C   UNL     1       1.961   8.247  18.012  0.00  0.00    +0.000 C 
BRANCH   8   9
ATOM      9  N   UNL     1       1.833   9.480  18.844  0.00  0.00    +0.000 NA
ATOM     10  C   UNL     1       1.273   9.352  20.212  0.00  0.00    +0.000 C 
ATOM     11  C   UNL     1      -0.238   9.076  20.256  0.00  0.00    +0.000 C 
ATOM     12  O   UNL     1      -0.950  10.120  19.578  0.00  0.00    +0.000 OA
ATOM     13  C   UNL     1      -0.483  10.239  18.225  0.00  0.00    +0.000 C 
ATOM     14  C   UNL     1       1.032  10.518  18.162  0.00  0.00    +0.000 C 
ENDBRANCH   8   9
ENDBRANCH   7   8
ENDBRANCH   6   7
ENDBRANCH   1   6
BRANCH   1  15
ATOM     15  C   UNL     1       4.427   4.632  16.876  0.00  0.00    +0.000 C 
BRANCH  15  16
ATOM     16  N   UNL     1       3.692   4.105  17.987  0.00  0.00    +0.000 N 
ATOM     17  C   UNL     1       2.324   4.023  18.021  0.00  0.00    +0.000 C 
ATOM     18  O   UNL     1       1.501   4.331  17.180  0.00  0.00    +0.000 OA
ATOM     19  C   UNL     1       1.986   3.446  19.318  0.00  0.00    +0.000 A 
ATOM     20  C   UNL     1       0.763   3.208  19.903  0.00  0.00    +0.000 A 
ATOM     21  C   UNL     1       0.772   2.704  21.209  0.00  0.00    +0.000 A 
ATOM     22  C   UNL     1       1.986   2.464  21.888  0.00  0.00    +0.000 A 
ATOM     23  C   UNL     1       3.212   2.692  21.262  0.00  0.00    +0.000 A 
ATOM     24  C   UNL     1       3.171   3.168  19.971  0.00  0.00    +0.000 A 
ATOM     25  C   UNL     1       4.262   3.503  19.075  0.00  0.00    +0.000 C 
ATOM     26  O   UNL     1       5.431   3.258  19.296  0.00  0.00    +0.000 OA
ENDBRANCH  15  16
ENDBRANCH   1  15
TORSDOF 9
ENDMDL
MODEL 5
REMARK VINA RESULT:      -7.1      2.179      6.790
REMARK  Name = 
REMARK  9 active torsions:
REMARK  status: ('A' for Active; 'I' for Inactive)
REMARK    1  A    between atoms: C_2  and  C_3
REMARK    2  A    between atoms: C_3  and  C_4
REMARK    3  A    between atoms: C_4  and  N_5
REMARK    4  A    between atoms: N_5  and  C_6
REMARK    5  A    between atoms: N_5  and  C_15
REMARK    6  A    between atoms: C_6  and  C_7
REMARK    7  A    between atoms: C_7  and  C_8
REMARK    8  A    between atoms: C_8  and  N_9
REMARK    9  A    between atoms: C_15  and  N_16
REMARK                            x       y       z     vdW  Elec       q    Type
REMARK                         _______ _______ _______ _____ _____    ______ ____
ROOT
ATOM      1  N   UNL     1       2.116   5.784  19.565  0.00  0.00    +0.000 NA
ENDROOT
BRANCH   1   2
ATOM      2  C   UNL     1       1.544   4.433  19.351  0.00  0.00    +0.000 C 
BRANCH   2   3
ATOM      3  C   UNL     1       0.910   3.718  20.571  0.00  0.00    +0.000 C 
BRANCH   3   5
ATOM      4  N   UNL     1       2.652   2.418  22.080  0.00  0.00    +0.000 NA
ATOM      5  C   UNL     1       1.896   2.950  21.334  0.00  0.00    +0.000 C 
ENDBRANCH   3   5
ENDBRANCH   2   3
ENDBRANCH   1   2
BRANCH   1   6
ATOM      6  C   UNL     1       1.482   6.566  20.649  0.00  0.00    +0.000 C 
BRANCH   6   7
ATOM      7  C   UNL     1       1.647   8.098  20.481  0.00  0.00    +0.000 C 
BRANCH   7   8
ATOM      8  C   UNL     1       0.482   9.084  20.673  0.00  0.00    +0.000 C 
BRANCH   8   9
ATOM      9  N   UNL     1       0.288   9.891  19.432  0.00  0.00    +0.000 NA
ATOM     10  C   UNL     1       1.278  10.952  19.121  0.00  0.00    +0.000 C 
ATOM     11  C   UNL     1       1.189  12.189  20.029  0.00  0.00    +0.000 C 
ATOM     12  O   UNL     1      -0.123  12.764  19.951  0.00  0.00    +0.000 OA
ATOM     13  C   UNL     1      -1.114  11.787  20.306  0.00  0.00    +0.000 C 
ATOM     14  C   UNL     1      -1.040  10.539  19.404  0.00  0.00    +0.000 C 
ENDBRANCH   8   9
ENDBRANCH   7   8
ENDBRANCH   6   7
ENDBRANCH   1   6
BRANCH   1  15
ATOM     15  C   UNL     1       3.591   5.702  19.758  0.00  0.00    +0.000 C 
BRANCH  15  16
ATOM     16  N   UNL     1       4.240   5.425  18.511  0.00  0.00    +0.000 N 
ATOM     17  C   UNL     1       4.328   6.330  17.485  0.00  0.00    +0.000 C 
ATOM     18  O   UNL     1       3.931   7.477  17.418  0.00  0.00    +0.000 OA
ATOM     19  C   UNL     1       5.046   5.652  16.410  0.00  0.00    +0.000 A 
ATOM     20  C   UNL     1       5.350   6.067  15.133  0.00  0.00    +0.000 A 
ATOM     21  C   UNL     1       5.995   5.142  14.303  0.00  0.00    +0.000 A 
ATOM     22  C   UNL     1       6.306   3.845  14.763  0.00  0.00    +0.000 A 
ATOM     23  C   UNL     1       6.008   3.459  16.070  0.00  0.00    +0.000 A 
ATOM     24  C   UNL     1       5.391   4.396  16.869  0.00  0.00    +0.000 A 
ATOM     25  C   UNL     1       4.957   4.291  18.249  0.00  0.00    +0.000 C 
ATOM     26  O   UNL     1       5.223   3.360  18.982  0.00  0.00    +0.000 OA
ENDBRANCH  15  16
ENDBRANCH   1  15
TORSDOF 9
ENDMDL
MODEL 6
REMARK VINA RESULT:      -7.1      2.264      6.707
REMARK  Name = 
REMARK  9 active torsions:
REMARK  status: ('A' for Active; 'I' for Inactive)
REMARK    1  A    between atoms: C_2  and  C_3
REMARK    2  A    between atoms: C_3  and  C_4
REMARK    3  A    between atoms: C_4  and  N_5
REMARK    4  A    between atoms: N_5  and  C_6
REMARK    5  A    between atoms: N_5  and  C_15
REMARK    6  A    between atoms: C_6  and  C_7
REMARK    7  A    between atoms: C_7  and  C_8
REMARK    8  A    between atoms: C_8  and  N_9
REMARK    9  A    between atoms: C_15  and  N_16
REMARK                            x       y       z     vdW  Elec       q    Type
REMARK                         _______ _______ _______ _____ _____    ______ ____
ROOT
ATOM      1  N   UNL     1       4.818   6.317  17.294  0.00  0.00    +0.000 NA
ENDROOT
BRANCH   1   2
ATOM      2  C   UNL     1       6.193   6.410  16.749  0.00  0.00    +0.000 C 
BRANCH   2   3
ATOM      3  C   UNL     1       7.349   6.665  17.751  0.00  0.00    +0.000 C 
BRANCH   3   5
ATOM      4  N   UNL     1       8.103   9.199  17.862  0.00  0.00    +0.000 NA
ATOM      5  C   UNL     1       7.800   8.058  17.730  0.00  0.00    +0.000 C 
ENDBRANCH   3   5
ENDBRANCH   2   3
ENDBRANCH   1   2
BRANCH   1   6
ATOM      6  C   UNL     1       3.954   7.484  17.011  0.00  0.00    +0.000 C 
BRANCH   6   7
ATOM      7  C   UNL     1       2.879   7.733  18.099  0.00  0.00    +0.000 C 
BRANCH   7   8
ATOM      8  C   UNL     1       1.763   8.779  17.939  0.00  0.00    +0.000 C 
BRANCH   8   9
ATOM      9  N   UNL     1       1.807   9.749  19.072  0.00  0.00    +0.000 NA
ATOM     10  C   UNL     1       1.080   9.407  20.320  0.00  0.00    +0.000 C 
ATOM     11  C   UNL     1      -0.451   9.496  20.207  0.00  0.00    +0.000 C 
ATOM     12  O   UNL     1      -0.840  10.818  19.810  0.00  0.00    +0.000 OA
ATOM     13  C   UNL     1      -0.206  11.169  18.569  0.00  0.00    +0.000 C 
ATOM     14  C   UNL     1       1.330  11.087  18.665  0.00  0.00    +0.000 C 
ENDBRANCH   8   9
ENDBRANCH   7   8
ENDBRANCH   6   7
ENDBRANCH   1   6
BRANCH   1  15
ATOM     15  C   UNL     1       4.167   5.050  16.857  0.00  0.00    +0.000 C 
BRANCH  15  16
ATOM     16  N   UNL     1       3.532   4.409  17.970  0.00  0.00    +0.000 N 
ATOM     17  C   UNL     1       2.181   4.190  18.049  0.00  0.00    +0.000 C 
ATOM     18  O   UNL     1       1.300   4.446  17.251  0.00  0.00    +0.000 OA
ATOM     19  C   UNL     1       1.953   3.532  19.331  0.00  0.00    +0.000 A 
ATOM     20  C   UNL     1       0.783   3.151  19.949  0.00  0.00    +0.000 A 
ATOM     21  C   UNL     1       0.893   2.600  21.231  0.00  0.00    +0.000 A 
ATOM     22  C   UNL     1       2.151   2.457  21.855  0.00  0.00    +0.000 A 
ATOM     23  C   UNL     1       3.323   2.830  21.197  0.00  0.00    +0.000 A 
ATOM     24  C   UNL     1       3.185   3.350  19.929  0.00  0.00    +0.000 A 
ATOM     25  C   UNL     1       4.200   3.826  19.010  0.00  0.00    +0.000 C 
ATOM     26  O   UNL     1       5.396   3.690  19.179  0.00  0.00    +0.000 OA
ENDBRANCH  15  16
ENDBRANCH   1  15
TORSDOF 9
ENDMDL
MODEL 7
REMARK VINA RESULT:      -7.1      3.168      5.857
REMARK  Name = 
REMARK  9 active torsions:
REMARK  status: ('A' for Active; 'I' for Inactive)
REMARK    1  A    between atoms: C_2  and  C_3
REMARK    2  A    between atoms: C_3  and  C_4
REMARK    3  A    between atoms: C_4  and  N_5
REMARK    4  A    between atoms: N_5  and  C_6
REMARK    5  A    between atoms: N_5  and  C_15
REMARK    6  A    between atoms: C_6  and  C_7
REMARK    7  A    between atoms: C_7  and  C_8
REMARK    8  A    between atoms: C_8  and  N_9
REMARK    9  A    between atoms: C_15  and  N_16
REMARK                            x       y       z     vdW  Elec       q    Type
REMARK                         _______ _______ _______ _____ _____    ______ ____
ROOT
ATOM      1  N   UNL     1       6.081   6.772  17.298  0.00  0.00    +0.000 NA
ENDROOT
BRANCH   1   2
ATOM      2  C   UNL     1       7.247   5.984  16.837  0.00  0.00    +0.000 C 
BRANCH   2   3
ATOM      3  C   UNL     1       7.718   4.805  17.728  0.00  0.00    +0.000 C 
BRANCH   3   5
ATOM      4  N   UNL     1       7.671   5.439  20.297  0.00  0.00    +0.000 NA
ATOM      5  C   UNL     1       7.779   5.175  19.144  0.00  0.00    +0.000 C 
ENDBRANCH   3   5
ENDBRANCH   2   3
ENDBRANCH   1   2
BRANCH   1   6
ATOM      6  C   UNL     1       6.294   8.235  17.345  0.00  0.00    +0.000 C 
BRANCH   6   7
ATOM      7  C   UNL     1       7.730   8.636  17.765  0.00  0.00    +0.000 C 
BRANCH   7   8
ATOM      8  C   UNL     1       8.190  10.101  17.857  0.00  0.00    +0.000 C 
BRANCH   8   9
ATOM      9  N   UNL     1       9.488  10.183  18.589  0.00  0.00    +0.000 NA
ATOM     10  C   UNL     1       9.466  10.576  20.020  0.00  0.00    +0.000 C 
ATOM     11  C   UNL     1       9.150  12.061  20.264  0.00  0.00    +0.000 C 
ATOM     12  O   UNL     1      10.107  12.887  19.587  0.00  0.00    +0.000 OA
ATOM     13  C   UNL     1      10.119  12.583  18.183  0.00  0.00    +0.000 C 
ATOM     14  C   UNL     1      10.436  11.097  17.920  0.00  0.00    +0.000 C 
ENDBRANCH   8   9
ENDBRANCH   7   8
ENDBRANCH   6   7
ENDBRANCH   1   6
BRANCH   1  15
ATOM     15  C   UNL     1       4.870   6.434  16.497  0.00  0.00    +0.000 C 
BRANCH  15  16
ATOM     16  N   UNL     1       4.041   5.513  17.216  0.00  0.00    +0.000 N 
ATOM     17  C   UNL     1       4.098   4.153  17.051  0.00  0.00    +0.000 C 
ATOM     18  O   UNL     1       4.819   3.482  16.337  0.00  0.00    +0.000 OA
ATOM     19  C   UNL     1       3.094   3.594  17.949  0.00  0.00    +0.000 A 
ATOM     20  C   UNL     1       2.680   2.294  18.136  0.00  0.00    +0.000 A 
ATOM     21  C   UNL     1       1.627   2.087  19.034  0.00  0.00    +0.000 A 
ATOM     22  C   UNL     1       1.018   3.171  19.704  0.00  0.00    +0.000 A 
ATOM     23  C   UNL     1       1.473   4.475  19.513  0.00  0.00    +0.000 A 
ATOM     24  C   UNL     1       2.523   4.646  18.639  0.00  0.00    +0.000 A 
ATOM     25  C   UNL     1       3.201   5.863  18.236  0.00  0.00    +0.000 C 
ATOM     26  O   UNL     1       3.025   6.949  18.751  0.00  0.00    +0.000 OA
ENDBRANCH  15  16
ENDBRANCH   1  15
TORSDOF 9
ENDMDL
MODEL 8
REMARK VINA RESULT:      -7.1      2.141      5.909
REMARK  Name = 
REMARK  9 active torsions:
REMARK  status: ('A' for Active; 'I' for Inactive)
REMARK    1  A    between atoms: C_2  and  C_3
REMARK    2  A    between atoms: C_3  and  C_4
REMARK    3  A    between atoms: C_4  and  N_5
REMARK    4  A    between atoms: N_5  and  C_6
REMARK    5  A    between atoms: N_5  and  C_15
REMARK    6  A    between atoms: C_6  and  C_7
REMARK    7  A    between atoms: C_7  and  C_8
REMARK    8  A    between atoms: C_8  and  N_9
REMARK    9  A    between atoms: C_15  and  N_16
REMARK                            x       y       z     vdW  Elec       q    Type
REMARK                         _______ _______ _______ _____ _____    ______ ____
ROOT
ATOM      1  N   UNL     1       5.679   4.870  16.892  0.00  0.00    +0.000 NA
ENDROOT
BRANCH   1   2
ATOM      2  C   UNL     1       7.148   4.898  17.091  0.00  0.00    +0.000 C 
BRANCH   2   3
ATOM      3  C   UNL     1       7.694   5.681  18.312  0.00  0.00    +0.000 C 
BRANCH   3   5
ATOM      4  N   UNL     1       7.867   8.262  17.755  0.00  0.00    +0.000 NA
ATOM      5  C   UNL     1       7.878   7.104  18.017  0.00  0.00    +0.000 C 
ENDBRANCH   3   5
ENDBRANCH   2   3
ENDBRANCH   1   2
BRANCH   1   6
ATOM      6  C   UNL     1       5.193   5.619  15.713  0.00  0.00    +0.000 C 
BRANCH   6   7
ATOM      7  C   UNL     1       4.769   7.073  16.038  0.00  0.00    +0.000 C 
BRANCH   7   8
ATOM      8  C   UNL     1       4.232   7.492  17.417  0.00  0.00    +0.000 C 
BRANCH   8   9
ATOM      9  N   UNL     1       2.748   7.330  17.456  0.00  0.00    +0.000 NA
ATOM     10  C   UNL     1       1.911   8.545  17.611  0.00  0.00    +0.000 C 
ATOM     11  C   UNL     1       1.953   9.169  19.016  0.00  0.00    +0.000 C 
ATOM     12  O   UNL     1       1.535   8.209  19.995  0.00  0.00    +0.000 OA
ATOM     13  C   UNL     1       2.361   7.036  19.923  0.00  0.00    +0.000 C 
ATOM     14  C   UNL     1       2.329   6.396  18.521  0.00  0.00    +0.000 C 
ENDBRANCH   8   9
ENDBRANCH   7   8
ENDBRANCH   6   7
ENDBRANCH   1   6
BRANCH   1  15
ATOM     15  C   UNL     1       5.180   3.465  16.877  0.00  0.00    +0.000 C 
BRANCH  15  16
ATOM     16  N   UNL     1       4.155   3.292  17.861  0.00  0.00    +0.000 N 
ATOM     17  C   UNL     1       4.391   3.298  19.212  0.00  0.00    +0.000 C 
ATOM     18  O   UNL     1       5.430   3.463  19.822  0.00  0.00    +0.000 OA
ATOM     19  C   UNL     1       3.097   3.080  19.849  0.00  0.00    +0.000 A 
ATOM     20  C   UNL     1       2.765   2.927  21.177  0.00  0.00    +0.000 A 
ATOM     21  C   UNL     1       1.423   2.652  21.467  0.00  0.00    +0.000 A 
ATOM     22  C   UNL     1       0.466   2.530  20.436  0.00  0.00    +0.000 A 
ATOM     23  C   UNL     1       0.827   2.713  19.101  0.00  0.00    +0.000 A 
ATOM     24  C   UNL     1       2.149   3.002  18.848  0.00  0.00    +0.000 A 
ATOM     25  C   UNL     1       2.817   3.234  17.582  0.00  0.00    +0.000 C 
ATOM     26  O   UNL     1       2.246   3.361  16.518  0.00  0.00    +0.000 OA
ENDBRANCH  15  16
ENDBRANCH   1  15
TORSDOF 9
ENDMDL
MODEL 9
REMARK VINA RESULT:      -7.0      2.134      6.443
REMARK  Name = 
REMARK  9 active torsions:
REMARK  status: ('A' for Active; 'I' for Inactive)
REMARK    1  A    between atoms: C_2  and  C_3
REMARK    2  A    between atoms: C_3  and  C_4
REMARK    3  A    between atoms: C_4  and  N_5
REMARK    4  A    between atoms: N_5  and  C_6
REMARK    5  A    between atoms: N_5  and  C_15
REMARK    6  A    between atoms: C_6  and  C_7
REMARK    7  A    between atoms: C_7  and  C_8
REMARK    8  A    between atoms: C_8  and  N_9
REMARK    9  A    between atoms: C_15  and  N_16
REMARK                            x       y       z     vdW  Elec       q    Type
REMARK                         _______ _______ _______ _____ _____    ______ ____
ROOT
ATOM      1  N   UNL     1       2.093   5.527  20.120  0.00  0.00    +0.000 NA
ENDROOT
BRANCH   1   2
ATOM      2  C   UNL     1       1.793   4.166  20.623  0.00  0.00    +0.000 C 
BRANCH   2   3
ATOM      3  C   UNL     1       0.931   3.240  19.727  0.00  0.00    +0.000 C 
BRANCH   3   5
ATOM      4  N   UNL     1       1.749   3.382  17.214  0.00  0.00    +0.000 NA
ATOM      5  C   UNL     1       1.395   3.230  18.338  0.00  0.00    +0.000 C 
ENDBRANCH   3   5
ENDBRANCH   2   3
ENDBRANCH   1   2
BRANCH   1   6
ATOM      6  C   UNL     1       1.345   6.617  20.782  0.00  0.00    +0.000 C 
BRANCH   6   7
ATOM      7  C   UNL     1       1.789   8.032  20.332  0.00  0.00    +0.000 C 
BRANCH   7   8
ATOM      8  C   UNL     1       0.858   9.254  20.398  0.00  0.00    +0.000 C 
BRANCH   8   9
ATOM      9  N   UNL     1       1.137  10.170  19.253  0.00  0.00    +0.000 NA
ATOM     10  C   UNL     1       0.985  11.630  19.466  0.00  0.00    +0.000 C 
ATOM     11  C   UNL     1      -0.473  12.105  19.586  0.00  0.00    +0.000 C 
ATOM     12  O   UNL     1      -1.207  11.746  18.408  0.00  0.00    +0.000 OA
ATOM     13  C   UNL     1      -1.139  10.327  18.196  0.00  0.00    +0.000 C 
ATOM     14  C   UNL     1       0.316   9.833  18.071  0.00  0.00    +0.000 C 
ENDBRANCH   8   9
ENDBRANCH   7   8
ENDBRANCH   6   7
ENDBRANCH   1   6
BRANCH   1  15
ATOM     15  C   UNL     1       3.560   5.786  20.156  0.00  0.00    +0.000 C 
BRANCH  15  16
ATOM     16  N   UNL     1       4.144   5.510  18.877  0.00  0.00    +0.000 N 
ATOM     17  C   UNL     1       4.812   4.350  18.583  0.00  0.00    +0.000 C 
ATOM     18  O   UNL     1       5.018   3.370  19.274  0.00  0.00    +0.000 OA
ATOM     19  C   UNL     1       5.252   4.477  17.198  0.00  0.00    +0.000 A 
ATOM     20  C   UNL     1       6.020   3.640  16.419  0.00  0.00    +0.000 A 
ATOM     21  C   UNL     1       6.336   4.085  15.131  0.00  0.00    +0.000 A 
ATOM     22  C   UNL     1       5.891   5.342  14.665  0.00  0.00    +0.000 A 
ATOM     23  C   UNL     1       5.095   6.160  15.468  0.00  0.00    +0.000 A 
ATOM     24  C   UNL     1       4.783   5.686  16.722  0.00  0.00    +0.000 A 
ATOM     25  C   UNL     1       3.993   6.301  17.772  0.00  0.00    +0.000 C 
ATOM     26  O   UNL     1       3.334   7.311  17.631  0.00  0.00    +0.000 OA
ENDBRANCH  15  16
ENDBRANCH   1  15
TORSDOF 9
ENDMDL
