MODEL 1
REMARK VINA RESULT:      -7.1      0.000      0.000
REMARK  Name = 
REMARK  8 active torsions:
REMARK  status: ('A' for Active; 'I' for Inactive)
REMARK    1  A    between atoms: C_1  and  C_2
REMARK    2  A    between atoms: C_2  and  C_3
REMARK    3  A    between atoms: C_3  and  O_4
REMARK    4  A    between atoms: O_4  and  C_5
REMARK    5  A    between atoms: C_11  and  N_12
REMARK    6  A    between atoms: C_13  and  C_15
REMARK    7  A    between atoms: C_15  and  C_16
REMARK    8  A    between atoms: C_16  and  C_17
REMARK                            x       y       z     vdW  Elec       q    Type
REMARK                         _______ _______ _______ _____ _____    ______ ____
ROOT
ATOM      1  C   UNL     1       1.969   6.847  20.188  0.00  0.00    +0.000 A 
ATOM      2  O   UNL     1       2.162   7.826  19.184  0.00  0.00    +0.000 OA
ATOM      3  C   UNL     1       2.905   7.608  18.067  0.00  0.00    +0.000 A 
ATOM      4  O   UNL     1       3.073   8.485  17.229  0.00  0.00    +0.000 OA
ATOM      5  C   UNL     1       3.463   6.249  17.904  0.00  0.00    +0.000 A 
ATOM      6  C   UNL     1       4.196   5.972  16.738  0.00  0.00    +0.000 A 
ATOM      7  C   UNL     1       4.700   4.694  16.498  0.00  0.00    +0.000 A 
ATOM      8  C   UNL     1       4.437   3.686  17.427  0.00  0.00    +0.000 A 
ATOM      9  C   UNL     1       3.732   3.969  18.607  0.00  0.00    +0.000 A 
ATOM     10  C   UNL     1       3.240   5.259  18.868  0.00  0.00    +0.000 A 
ATOM     11  C   UNL     1       2.493   5.615  20.080  0.00  0.00    +0.000 A 
ATOM     12 CL   UNL     1       2.290   4.447  21.341  0.00  0.00    +0.000 Cl
ENDROOT
BRANCH   7  13
ATOM     13  N   UNL     1       5.440   4.364  15.345  0.00  0.00    +0.000 N 
ATOM     14  C   UNL     1       6.649   4.926  14.974  0.00  0.00    +0.000 C 
ATOM     15  O   UNL     1       7.325   5.694  15.654  0.00  0.00    +0.000 OA
ATOM     16  H   UNL     1       5.114   3.575  14.801  0.00  0.00    +0.000 HD
BRANCH  14  17
ATOM     17  C   UNL     1       7.145   4.478  13.614  0.00  0.00    +0.000 C 
BRANCH  17  18
ATOM     18  C   UNL     1       6.117   3.666  12.832  0.00  0.00    +0.000 C 
ATOM     19  C   UNL     1       6.738   2.848  11.709  0.00  0.00    +0.000 C 
ENDBRANCH  17  18
ENDBRANCH  14  17
ENDBRANCH   7  13
BRANCH   1  20
ATOM     20  O   UNL     1       1.233   7.203  21.308  0.00  0.00    +0.000 OA
BRANCH  20  21
ATOM     21  C   UNL     1       1.105   8.621  21.446  0.00  0.00    +0.000 C 
BRANCH  21  23
ATOM     22  C   UNL     1      -0.325   9.739  23.187  0.00  0.00    +0.000 C 
ATOM     23  C   UNL     1      -0.315   8.930  21.903  0.00  0.00    +0.000 C 
ENDBRANCH  21  23
ENDBRANCH  20  21
ENDBRANCH   1  20
TORSDOF 6
ENDMDL
MODEL 2
REMARK VINA RESULT:      -7.0      2.750      3.942
REMARK  Name = 
REMARK  8 active torsions:
REMARK  status: ('A' for Active; 'I' for Inactive)
REMARK    1  A    between atoms: C_1  and  C_2
REMARK    2  A    between atoms: C_2  and  C_3
REMARK    3  A    between atoms: C_3  and  O_4
REMARK    4  A    between atoms: O_4  and  C_5
REMARK    5  A    between atoms: C_11  and  N_12
REMARK    6  A    between atoms: C_13  and  C_15
REMARK    7  A    between atoms: C_15  and  C_16
REMARK    8  A    between atoms: C_16  and  C_17
REMARK                            x       y       z     vdW  Elec       q    Type
REMARK                         _______ _______ _______ _____ _____    ______ ____
ROOT
ATOM      1  C   UNL     1       3.387   5.383  18.892  0.00  0.00    +0.000 A 
ATOM      2  O   UNL     1       3.536   3.976  18.901  0.00  0.00    +0.000 OA
ATOM      3  C   UNL     1       4.108   3.283  17.880  0.00  0.00    +0.000 A 
ATOM      4  O   UNL     1       4.199   2.063  17.908  0.00  0.00    +0.000 OA
ATOM      5  C   UNL     1       4.646   4.086  16.761  0.00  0.00    +0.000 A 
ATOM      6  C   UNL     1       5.288   3.408  15.712  0.00  0.00    +0.000 A 
ATOM      7  C   UNL     1       5.866   4.112  14.656  0.00  0.00    +0.000 A 
ATOM      8  C   UNL     1       5.819   5.506  14.676  0.00  0.00    +0.000 A 
ATOM      9  C   UNL     1       5.150   6.183  15.708  0.00  0.00    +0.000 A 
ATOM     10  C   UNL     1       4.545   5.482  16.764  0.00  0.00    +0.000 A 
ATOM     11  C   UNL     1       3.837   6.133  17.872  0.00  0.00    +0.000 A 
ATOM     12 CL   UNL     1       3.600   7.848  17.855  0.00  0.00    +0.000 Cl
ENDROOT
BRANCH   7  13
ATOM     13  N   UNL     1       6.521   3.479  13.580  0.00  0.00    +0.000 N 
ATOM     14  C   UNL     1       5.937   3.119  12.379  0.00  0.00    +0.000 C 
ATOM     15  O   UNL     1       4.802   3.412  12.013  0.00  0.00    +0.000 OA
ATOM     16  H   UNL     1       7.526   3.380  13.650  0.00  0.00    +0.000 HD
BRANCH  14  17
ATOM     17  C   UNL     1       6.851   2.330  11.463  0.00  0.00    +0.000 C 
BRANCH  17  18
ATOM     18  C   UNL     1       6.145   1.185  10.743  0.00  0.00    +0.000 C 
ATOM     19  C   UNL     1       6.322  -0.154  11.445  0.00  0.00    +0.000 C 
ENDBRANCH  17  18
ENDBRANCH  14  17
ENDBRANCH   7  13
BRANCH   1  20
ATOM     20  O   UNL     1       2.740   5.974  19.967  0.00  0.00    +0.000 OA
BRANCH  20  21
ATOM     21  C   UNL     1       2.219   5.008  20.885  0.00  0.00    +0.000 C 
BRANCH  21  23
ATOM     22  C   UNL     1       0.830   3.003  20.270  0.00  0.00    +0.000 C 
ATOM     23  C   UNL     1       0.878   4.518  20.352  0.00  0.00    +0.000 C 
ENDBRANCH  21  23
ENDBRANCH  20  21
ENDBRANCH   1  20
TORSDOF 6
ENDMDL
MODEL 3
REMARK VINA RESULT:      -6.9      3.807      5.255
REMARK  Name = 
REMARK  8 active torsions:
REMARK  status: ('A' for Active; 'I' for Inactive)
REMARK    1  A    between atoms: C_1  and  C_2
REMARK    2  A    between atoms: C_2  and  C_3
REMARK    3  A    between atoms: C_3  and  O_4
REMARK    4  A    between atoms: O_4  and  C_5
REMARK    5  A    between atoms: C_11  and  N_12
REMARK    6  A    between atoms: C_13  and  C_15
REMARK    7  A    between atoms: C_15  and  C_16
REMARK    8  A    between atoms: C_16  and  C_17
REMARK                            x       y       z     vdW  Elec       q    Type
REMARK                         _______ _______ _______ _____ _____    ______ ____
ROOT
ATOM      1  C   UNL     1       2.245   3.682  17.759  0.00  0.00    +0.000 A 
ATOM      2  O   UNL     1       1.745   4.982  18.009  0.00  0.00    +0.000 OA
ATOM      3  C   UNL     1       2.529   6.094  18.000  0.00  0.00    +0.000 A 
ATOM      4  O   UNL     1       2.071   7.201  18.244  0.00  0.00    +0.000 OA
ATOM      5  C   UNL     1       3.950   5.893  17.642  0.00  0.00    +0.000 A 
ATOM      6  C   UNL     1       4.780   7.024  17.575  0.00  0.00    +0.000 A 
ATOM      7  C   UNL     1       6.114   6.908  17.188  0.00  0.00    +0.000 A 
ATOM      8  C   UNL     1       6.603   5.648  16.840  0.00  0.00    +0.000 A 
ATOM      9  C   UNL     1       5.784   4.513  16.938  0.00  0.00    +0.000 A 
ATOM     10  C   UNL     1       4.444   4.616  17.348  0.00  0.00    +0.000 A 
ATOM     11  C   UNL     1       3.538   3.468  17.465  0.00  0.00    +0.000 A 
ATOM     12 CL   UNL     1       4.141   1.865  17.214  0.00  0.00    +0.000 Cl
ENDROOT
BRANCH   7  13
ATOM     13  N   UNL     1       6.988   8.011  17.104  0.00  0.00    +0.000 N 
ATOM     14  C   UNL     1       8.043   8.271  17.960  0.00  0.00    +0.000 C 
ATOM     15  O   UNL     1       8.463   7.519  18.835  0.00  0.00    +0.000 OA
ATOM     16  H   UNL     1       6.902   8.602  16.287  0.00  0.00    +0.000 HD
BRANCH  14  17
ATOM     17  C   UNL     1       8.723   9.603  17.711  0.00  0.00    +0.000 C 
BRANCH  17  18
ATOM     18  C   UNL     1       9.271  10.249  18.980  0.00  0.00    +0.000 C 
ATOM     19  C   UNL     1       9.821  11.648  18.742  0.00  0.00    +0.000 C 
ENDBRANCH  17  18
ENDBRANCH  14  17
ENDBRANCH   7  13
BRANCH   1  20
ATOM     20  O   UNL     1       1.359   2.619  17.847  0.00  0.00    +0.000 OA
BRANCH  20  21
ATOM     21  C   UNL     1       0.657   2.599  19.094  0.00  0.00    +0.000 C 
BRANCH  21  23
ATOM     22  C   UNL     1       1.381   3.044  21.461  0.00  0.00    +0.000 C 
ATOM     23  C   UNL     1       1.651   2.251  20.195  0.00  0.00    +0.000 C 
ENDBRANCH  21  23
ENDBRANCH  20  21
ENDBRANCH   1  20
TORSDOF 6
ENDMDL
MODEL 4
REMARK VINA RESULT:      -6.6      2.889      8.467
REMARK  Name = 
REMARK  8 active torsions:
REMARK  status: ('A' for Active; 'I' for Inactive)
REMARK    1  A    between atoms: C_1  and  C_2
REMARK    2  A    between atoms: C_2  and  C_3
REMARK    3  A    between atoms: C_3  and  O_4
REMARK    4  A    between atoms: O_4  and  C_5
REMARK    5  A    between atoms: C_11  and  N_12
REMARK    6  A    between atoms: C_13  and  C_15
REMARK    7  A    between atoms: C_15  and  C_16
REMARK    8  A    between atoms: C_16  and  C_17
REMARK                            x       y       z     vdW  Elec       q    Type
REMARK                         _______ _______ _______ _____ _____    ______ ____
ROOT
ATOM      1  C   UNL     1       4.661   4.917  17.736  0.00  0.00    +0.000 A 
ATOM      2  O   UNL     1       4.128   4.222  18.846  0.00  0.00    +0.000 OA
ATOM      3  C   UNL     1       3.264   4.786  19.732  0.00  0.00    +0.000 A 
ATOM      4  O   UNL     1       2.840   4.165  20.697  0.00  0.00    +0.000 OA
ATOM      5  C   UNL     1       2.839   6.173  19.442  0.00  0.00    +0.000 A 
ATOM      6  C   UNL     1       1.909   6.772  20.307  0.00  0.00    +0.000 A 
ATOM      7  C   UNL     1       1.426   8.056  20.056  0.00  0.00    +0.000 A 
ATOM      8  C   UNL     1       1.862   8.723  18.911  0.00  0.00    +0.000 A 
ATOM      9  C   UNL     1       2.815   8.137  18.063  0.00  0.00    +0.000 A 
ATOM     10  C   UNL     1       3.325   6.854  18.319  0.00  0.00    +0.000 A 
ATOM     11  C   UNL     1       4.317   6.188  17.469  0.00  0.00    +0.000 A 
ATOM     12 CL   UNL     1       5.020   7.039  16.135  0.00  0.00    +0.000 Cl
ENDROOT
BRANCH   7  13
ATOM     13  N   UNL     1       0.492   8.702  20.892  0.00  0.00    +0.000 N 
ATOM     14  C   UNL     1       0.773   9.286  22.114  0.00  0.00    +0.000 C 
ATOM     15  O   UNL     1       1.892   9.452  22.593  0.00  0.00    +0.000 OA
ATOM     16  H   UNL     1      -0.437   8.844  20.517  0.00  0.00    +0.000 HD
BRANCH  14  17
ATOM     17  C   UNL     1      -0.452   9.783  22.855  0.00  0.00    +0.000 C 
BRANCH  17  18
ATOM     18  C   UNL     1      -0.708  11.276  22.670  0.00  0.00    +0.000 C 
ATOM     19  C   UNL     1      -2.117  11.689  23.069  0.00  0.00    +0.000 C 
ENDBRANCH  17  18
ENDBRANCH  14  17
ENDBRANCH   7  13
BRANCH   1  20
ATOM     20  O   UNL     1       5.575   4.252  16.932  0.00  0.00    +0.000 OA
BRANCH  20  21
ATOM     21  C   UNL     1       5.065   4.009  15.617  0.00  0.00    +0.000 C 
BRANCH  21  23
ATOM     22  C   UNL     1       5.805   3.669  13.237  0.00  0.00    +0.000 C 
ATOM     23  C   UNL     1       6.222   4.105  14.631  0.00  0.00    +0.000 C 
ENDBRANCH  21  23
ENDBRANCH  20  21
ENDBRANCH   1  20
TORSDOF 6
ENDMDL
MODEL 5
REMARK VINA RESULT:      -6.4      3.410      8.084
REMARK  Name = 
REMARK  8 active torsions:
REMARK  status: ('A' for Active; 'I' for Inactive)
REMARK    1  A    between atoms: C_1  and  C_2
REMARK    2  A    between atoms: C_2  and  C_3
REMARK    3  A    between atoms: C_3  and  O_4
REMARK    4  A    between atoms: O_4  and  C_5
REMARK    5  A    between atoms: C_11  and  N_12
REMARK    6  A    between atoms: C_13  and  C_15
REMARK    7  A    between atoms: C_15  and  C_16
REMARK    8  A    between atoms: C_16  and  C_17
REMARK                            x       y       z     vdW  Elec       q    Type
REMARK                         _______ _______ _______ _____ _____    ______ ____
ROOT
ATOM      1  C   UNL     1       4.251   5.033  17.885  0.00  0.00    +0.000 A 
ATOM      2  O   UNL     1       3.756   4.448  19.074  0.00  0.00    +0.000 OA
ATOM      3  C   UNL     1       2.958   5.111  19.952  0.00  0.00    +0.000 A 
ATOM      4  O   UNL     1       2.567   4.583  20.985  0.00  0.00    +0.000 OA
ATOM      5  C   UNL     1       2.559   6.483  19.571  0.00  0.00    +0.000 A 
ATOM      6  C   UNL     1       1.695   7.181  20.430  0.00  0.00    +0.000 A 
ATOM      7  C   UNL     1       1.237   8.456  20.100  0.00  0.00    +0.000 A 
ATOM      8  C   UNL     1       1.632   9.014  18.884  0.00  0.00    +0.000 A 
ATOM      9  C   UNL     1       2.521   8.331  18.040  0.00  0.00    +0.000 A 
ATOM     10  C   UNL     1       3.005   7.055  18.374  0.00  0.00    +0.000 A 
ATOM     11  C   UNL     1       3.931   6.290  17.532  0.00  0.00    +0.000 A 
ATOM     12 CL   UNL     1       4.587   7.007  16.100  0.00  0.00    +0.000 Cl
ENDROOT
BRANCH   7  13
ATOM     13  N   UNL     1       0.369   9.198  20.926  0.00  0.00    +0.000 N 
ATOM     14  C   UNL     1       0.651   9.630  22.210  0.00  0.00    +0.000 C 
ATOM     15  O   UNL     1       1.739   9.553  22.773  0.00  0.00    +0.000 OA
ATOM     16  H   UNL     1      -0.488   9.535  20.506  0.00  0.00    +0.000 HD
BRANCH  14  17
ATOM     17  C   UNL     1      -0.523  10.287  22.910  0.00  0.00    +0.000 C 
BRANCH  17  18
ATOM     18  C   UNL     1      -1.191  11.377  22.078  0.00  0.00    +0.000 C 
ATOM     19  C   UNL     1      -0.372  12.659  22.014  0.00  0.00    +0.000 C 
ENDBRANCH  17  18
ENDBRANCH  14  17
ENDBRANCH   7  13
BRANCH   1  20
ATOM     20  O   UNL     1       5.100   4.275  17.093  0.00  0.00    +0.000 OA
BRANCH  20  21
ATOM     21  C   UNL     1       6.459   4.716  17.177  0.00  0.00    +0.000 C 
BRANCH  21  23
ATOM     22  C   UNL     1       7.782   6.148  18.766  0.00  0.00    +0.000 C 
ATOM     23  C   UNL     1       6.771   5.023  18.636  0.00  0.00    +0.000 C 
ENDBRANCH  21  23
ENDBRANCH  20  21
ENDBRANCH   1  20
TORSDOF 6
ENDMDL
MODEL 6
REMARK VINA RESULT:      -6.3      3.168      8.358
REMARK  Name = 
REMARK  8 active torsions:
REMARK  status: ('A' for Active; 'I' for Inactive)
REMARK    1  A    between atoms: C_1  and  C_2
REMARK    2  A    between atoms: C_2  and  C_3
REMARK    3  A    between atoms: C_3  and  O_4
REMARK    4  A    between atoms: O_4  and  C_5
REMARK    5  A    between atoms: C_11  and  N_12
REMARK    6  A    between atoms: C_13  and  C_15
REMARK    7  A    between atoms: C_15  and  C_16
REMARK    8  A    between atoms: C_16  and  C_17
REMARK                            x       y       z     vdW  Elec       q    Type
REMARK                         _______ _______ _______ _____ _____    ______ ____
ROOT
ATOM      1  C   UNL     1       4.089   5.228  18.007  0.00  0.00    +0.000 A 
ATOM      2  O   UNL     1       3.482   4.823  19.219  0.00  0.00    +0.000 OA
ATOM      3  C   UNL     1       2.691   5.641  19.964  0.00  0.00    +0.000 A 
ATOM      4  O   UNL     1       2.200   5.267  21.021  0.00  0.00    +0.000 OA
ATOM      5  C   UNL     1       2.428   6.985  19.407  0.00  0.00    +0.000 A 
ATOM      6  C   UNL     1       1.575   7.841  20.124  0.00  0.00    +0.000 A 
ATOM      7  C   UNL     1       1.243   9.100  19.625  0.00  0.00    +0.000 A 
ATOM      8  C   UNL     1       1.751   9.482  18.383  0.00  0.00    +0.000 A 
ATOM      9  C   UNL     1       2.628   8.641  17.681  0.00  0.00    +0.000 A 
ATOM     10  C   UNL     1       2.987   7.380  18.186  0.00  0.00    +0.000 A 
ATOM     11  C   UNL     1       3.894   6.456  17.497  0.00  0.00    +0.000 A 
ATOM     12 CL   UNL     1       4.687   6.951  16.040  0.00  0.00    +0.000 Cl
ENDROOT
BRANCH   7  13
ATOM     13  N   UNL     1       0.392   9.995  20.304  0.00  0.00    +0.000 N 
ATOM     14  C   UNL     1      -0.798  10.505  19.817  0.00  0.00    +0.000 C 
ATOM     15  O   UNL     1      -1.361  10.156  18.783  0.00  0.00    +0.000 OA
ATOM     16  H   UNL     1       0.617  10.196  21.271  0.00  0.00    +0.000 HD
BRANCH  14  17
ATOM     17  C   UNL     1      -1.430  11.553  20.710  0.00  0.00    +0.000 C 
BRANCH  17  18
ATOM     18  C   UNL     1      -0.501  12.048  21.814  0.00  0.00    +0.000 C 
ATOM     19  C   UNL     1      -1.252  12.591  23.022  0.00  0.00    +0.000 C 
ENDBRANCH  17  18
ENDBRANCH  14  17
ENDBRANCH   7  13
BRANCH   1  20
ATOM     20  O   UNL     1       4.918   4.323  17.363  0.00  0.00    +0.000 OA
BRANCH  20  21
ATOM     21  C   UNL     1       6.293   4.498  17.716  0.00  0.00    +0.000 C 
BRANCH  21  23
ATOM     22  C   UNL     1       6.291   3.892  15.275  0.00  0.00    +0.000 C 
ATOM     23  C   UNL     1       7.134   4.339  16.456  0.00  0.00    +0.000 C 
ENDBRANCH  21  23
ENDBRANCH  20  21
ENDBRANCH   1  20
TORSDOF 6
ENDMDL
MODEL 7
REMARK VINA RESULT:      -6.3      2.109      2.943
REMARK  Name = 
REMARK  8 active torsions:
REMARK  status: ('A' for Active; 'I' for Inactive)
REMARK    1  A    between atoms: C_1  and  C_2
REMARK    2  A    between atoms: C_2  and  C_3
REMARK    3  A    between atoms: C_3  and  O_4
REMARK    4  A    between atoms: O_4  and  C_5
REMARK    5  A    between atoms: C_11  and  N_12
REMARK    6  A    between atoms: C_13  and  C_15
REMARK    7  A    between atoms: C_15  and  C_16
REMARK    8  A    between atoms: C_16  and  C_17
REMARK                            x       y       z     vdW  Elec       q    Type
REMARK                         _______ _______ _______ _____ _____    ______ ____
ROOT
ATOM      1  C   UNL     1       0.727   8.226  20.633  0.00  0.00    +0.000 A 
ATOM      2  O   UNL     1       1.041   6.968  21.200  0.00  0.00    +0.000 OA
ATOM      3  C   UNL     1       1.899   6.086  20.621  0.00  0.00    +0.000 A 
ATOM      4  O   UNL     1       2.131   4.995  21.125  0.00  0.00    +0.000 OA
ATOM      5  C   UNL     1       2.561   6.533  19.377  0.00  0.00    +0.000 A 
ATOM      6  C   UNL     1       3.491   5.668  18.776  0.00  0.00    +0.000 A 
ATOM      7  C   UNL     1       4.190   6.055  17.634  0.00  0.00    +0.000 A 
ATOM      8  C   UNL     1       3.970   7.331  17.114  0.00  0.00    +0.000 A 
ATOM      9  C   UNL     1       3.018   8.183  17.694  0.00  0.00    +0.000 A 
ATOM     10  C   UNL     1       2.292   7.794  18.832  0.00  0.00    +0.000 A 
ATOM     11  C   UNL     1       1.289   8.642  19.486  0.00  0.00    +0.000 A 
ATOM     12 CL   UNL     1       0.853  10.162  18.781  0.00  0.00    +0.000 Cl
ENDROOT
BRANCH   7  13
ATOM     13  N   UNL     1       5.133   5.225  16.994  0.00  0.00    +0.000 N 
ATOM     14  C   UNL     1       6.386   5.616  16.556  0.00  0.00    +0.000 C 
ATOM     15  O   UNL     1       6.920   6.700  16.775  0.00  0.00    +0.000 OA
ATOM     16  H   UNL     1       4.919   4.237  16.950  0.00  0.00    +0.000 HD
BRANCH  14  17
ATOM     17  C   UNL     1       7.128   4.546  15.780  0.00  0.00    +0.000 C 
BRANCH  17  18
ATOM     18  C   UNL     1       7.014   4.708  14.267  0.00  0.00    +0.000 C 
ATOM     19  C   UNL     1       5.870   3.901  13.670  0.00  0.00    +0.000 C 
ENDBRANCH  17  18
ENDBRANCH  14  17
ENDBRANCH   7  13
BRANCH   1  20
ATOM     20  O   UNL     1      -0.203   9.019  21.289  0.00  0.00    +0.000 OA
BRANCH  20  21
ATOM     21  C   UNL     1       0.337   9.626  22.467  0.00  0.00    +0.000 C 
BRANCH  21  23
ATOM     22  C   UNL     1      -1.319  11.489  22.804  0.00  0.00    +0.000 C 
ATOM     23  C   UNL     1      -0.822  10.146  23.309  0.00  0.00    +0.000 C 
ENDBRANCH  21  23
ENDBRANCH  20  21
ENDBRANCH   1  20
TORSDOF 6
ENDMDL
MODEL 8
REMARK VINA RESULT:      -6.3      2.634      3.845
REMARK  Name = 
REMARK  8 active torsions:
REMARK  status: ('A' for Active; 'I' for Inactive)
REMARK    1  A    between atoms: C_1  and  C_2
REMARK    2  A    between atoms: C_2  and  C_3
REMARK    3  A    between atoms: C_3  and  O_4
REMARK    4  A    between atoms: O_4  and  C_5
REMARK    5  A    between atoms: C_11  and  N_12
REMARK    6  A    between atoms: C_13  and  C_15
REMARK    7  A    between atoms: C_15  and  C_16
REMARK    8  A    between atoms: C_16  and  C_17
REMARK                            x       y       z     vdW  Elec       q    Type
REMARK                         _______ _______ _______ _____ _____    ______ ____
ROOT
ATOM      1  C   UNL     1       0.557  10.640  20.559  0.00  0.00    +0.000 A 
ATOM      2  O   UNL     1       0.954  10.883  19.223  0.00  0.00    +0.000 OA
ATOM      3  C   UNL     1       1.594   9.958  18.458  0.00  0.00    +0.000 A 
ATOM      4  O   UNL     1       1.946  10.208  17.313  0.00  0.00    +0.000 OA
ATOM      5  C   UNL     1       1.803   8.629  19.071  0.00  0.00    +0.000 A 
ATOM      6  C   UNL     1       2.416   7.632  18.294  0.00  0.00    +0.000 A 
ATOM      7  C   UNL     1       2.589   6.343  18.795  0.00  0.00    +0.000 A 
ATOM      8  C   UNL     1       2.115   6.052  20.075  0.00  0.00    +0.000 A 
ATOM      9  C   UNL     1       1.531   7.056  20.864  0.00  0.00    +0.000 A 
ATOM     10  C   UNL     1       1.372   8.364  20.376  0.00  0.00    +0.000 A 
ATOM     11  C   UNL     1       0.765   9.452  21.151  0.00  0.00    +0.000 A 
ATOM     12 CL   UNL     1       0.319   9.190  22.803  0.00  0.00    +0.000 Cl
ENDROOT
BRANCH   7  13
ATOM     13  N   UNL     1       3.198   5.308  18.056  0.00  0.00    +0.000 N 
ATOM     14  C   UNL     1       4.523   4.921  18.151  0.00  0.00    +0.000 C 
ATOM     15  O   UNL     1       5.333   5.323  18.981  0.00  0.00    +0.000 OA
ATOM     16  H   UNL     1       2.590   4.730  17.490  0.00  0.00    +0.000 HD
BRANCH  14  17
ATOM     17  C   UNL     1       4.931   3.872  17.135  0.00  0.00    +0.000 C 
BRANCH  17  18
ATOM     18  C   UNL     1       6.072   4.321  16.227  0.00  0.00    +0.000 C 
ATOM     19  C   UNL     1       5.613   5.253  15.115  0.00  0.00    +0.000 C 
ENDBRANCH  17  18
ENDBRANCH  14  17
ENDBRANCH   7  13
BRANCH   1  20
ATOM     20  O   UNL     1      -0.041  11.678  21.256  0.00  0.00    +0.000 OA
BRANCH  20  21
ATOM     21  C   UNL     1      -1.343  11.991  20.752  0.00  0.00    +0.000 C 
BRANCH  21  23
ATOM     22  C   UNL     1      -2.128  11.797  23.134  0.00  0.00    +0.000 C 
ATOM     23  C   UNL     1      -2.145  12.642  21.873  0.00  0.00    +0.000 C 
ENDBRANCH  21  23
ENDBRANCH  20  21
ENDBRANCH   1  20
TORSDOF 6
ENDMDL
MODEL 9
REMARK VINA RESULT:      -6.2      3.632      8.460
REMARK  Name = 
REMARK  8 active torsions:
REMARK  status: ('A' for Active; 'I' for Inactive)
REMARK    1  A    between atoms: C_1  and  C_2
REMARK    2  A    between atoms: C_2  and  C_3
REMARK    3  A    between atoms: C_3  and  O_4
REMARK    4  A    between atoms: O_4  and  C_5
REMARK    5  A    between atoms: C_11  and  N_12
REMARK    6  A    between atoms: C_13  and  C_15
REMARK    7  A    between atoms: C_15  and  C_16
REMARK    8  A    between atoms: C_16  and  C_17
REMARK                            x       y       z     vdW  Elec       q    Type
REMARK                         _______ _______ _______ _____ _____    ______ ____
ROOT
ATOM      1  C   UNL     1       3.181   6.297  18.606  0.00  0.00    +0.000 A 
ATOM      2  O   UNL     1       3.148   7.403  17.724  0.00  0.00    +0.000 OA
ATOM      3  C   UNL     1       2.391   8.510  17.949  0.00  0.00    +0.000 A 
ATOM      4  O   UNL     1       2.366   9.440  17.154  0.00  0.00    +0.000 OA
ATOM      5  C   UNL     1       1.636   8.543  19.221  0.00  0.00    +0.000 A 
ATOM      6  C   UNL     1       0.882   9.692  19.511  0.00  0.00    +0.000 A 
ATOM      7  C   UNL     1       0.195   9.808  20.718  0.00  0.00    +0.000 A 
ATOM      8  C   UNL     1       0.294   8.772  21.647  0.00  0.00    +0.000 A 
ATOM      9  C   UNL     1       1.021   7.610  21.345  0.00  0.00    +0.000 A 
ATOM     10  C   UNL     1       1.699   7.474  20.122  0.00  0.00    +0.000 A 
ATOM     11  C   UNL     1       2.478   6.288  19.751  0.00  0.00    +0.000 A 
ATOM     12 CL   UNL     1       2.491   4.904  20.792  0.00  0.00    +0.000 Cl
ENDROOT
BRANCH   7  13
ATOM     13  N   UNL     1      -0.575  10.940  21.057  0.00  0.00    +0.000 N 
ATOM     14  C   UNL     1      -0.078  12.141  21.530  0.00  0.00    +0.000 C 
ATOM     15  O   UNL     1       1.107  12.453  21.598  0.00  0.00    +0.000 OA
ATOM     16  H   UNL     1      -1.562  10.906  20.834  0.00  0.00    +0.000 HD
BRANCH  14  17
ATOM     17  C   UNL     1      -1.150  13.130  21.942  0.00  0.00    +0.000 C 
BRANCH  17  18
ATOM     18  C   UNL     1      -2.554  12.534  21.950  0.00  0.00    +0.000 C 
ATOM     19  C   UNL     1      -3.074  12.262  23.355  0.00  0.00    +0.000 C 
ENDBRANCH  17  18
ENDBRANCH  14  17
ENDBRANCH   7  13
BRANCH   1  20
ATOM     20  O   UNL     1       3.950   5.202  18.244  0.00  0.00    +0.000 OA
BRANCH  20  21
ATOM     21  C   UNL     1       5.303   5.561  17.951  0.00  0.00    +0.000 C 
BRANCH  21  23
ATOM     22  C   UNL     1       7.568   5.828  19.012  0.00  0.00    +0.000 C 
ATOM     23  C   UNL     1       6.122   5.420  19.228  0.00  0.00    +0.000 C 
ENDBRANCH  21  23
ENDBRANCH  20  21
ENDBRANCH   1  20
TORSDOF 6
ENDMDL
