MODEL 1
REMARK VINA RESULT:      -7.4      0.000      0.000
REMARK  Name = 
REMARK  9 active torsions:
REMARK  status: ('A' for Active; 'I' for Inactive)
REMARK    1  A    between atoms: C_1  and  C_2
REMARK    2  A    between atoms: C_2  and  C_3
REMARK    3  A    between atoms: C_2  and  C_4
REMARK    4  A    between atoms: C_2  and  C_5
REMARK    5  A    between atoms: C_5  and  C_7
REMARK    6  A    between atoms: C_7  and  S_8
REMARK    7  A    between atoms: S_8  and  C_9
REMARK    8  A    between atoms: N_17  and  C_18
REMARK    9  A    between atoms: C_18  and  C_19
REMARK                            x       y       z     vdW  Elec       q    Type
REMARK                         _______ _______ _______ _____ _____    ______ ____
ROOT
ATOM      1  C   UNL     1       7.523   7.303  18.044  0.00  0.00    +0.000 A 
ATOM      2  N   UNL     1       8.292   6.764  19.012  0.00  0.00    +0.000 NA
ATOM      3  C   UNL     1       7.966   5.531  19.454  0.00  0.00    +0.000 A 
ATOM      4  N   UNL     1       6.959   4.732  19.044  0.00  0.00    +0.000 NA
ATOM      5  C   UNL     1       6.228   5.309  18.072  0.00  0.00    +0.000 A 
ATOM      6  C   UNL     1       6.443   6.574  17.535  0.00  0.00    +0.000 A 
ATOM      7  C   UNL     1       5.402   6.735  16.602  0.00  0.00    +0.000 A 
ATOM      8  N   UNL     1       4.581   5.685  16.536  0.00  0.00    +0.000 NA
ATOM      9  N   UNL     1       5.116   4.810  17.431  0.00  0.00    +0.000 N 
ENDROOT
BRANCH   1  10
ATOM     10  S   UNL     1       7.812   8.964  17.506  0.00  0.00    +0.000 S 
BRANCH  10  11
ATOM     11  C   UNL     1       8.908   9.556  18.839  0.00  0.00    +0.000 C 
BRANCH  11  12
ATOM     12  C   UNL     1       9.127  11.063  18.716  0.00  0.00    +0.000 C 
ATOM     13  O   UNL     1       8.795  11.654  17.684  0.00  0.00    +0.000 OA
BRANCH  12  15
ATOM     14  C   UNL     1      11.328  11.657  19.782  0.00  0.00    +0.000 C 
ATOM     15  C   UNL     1       9.798  11.817  19.887  0.00  0.00    +0.000 C 
ATOM     16  C   UNL     1       9.342  11.226  21.228  0.00  0.00    +0.000 C 
ATOM     17  C   UNL     1       9.463  13.313  19.824  0.00  0.00    +0.000 C 
ENDBRANCH  12  15
ENDBRANCH  11  12
ENDBRANCH  10  11
ENDBRANCH   1  10
BRANCH   9  18
ATOM     18  C   UNL     1       4.371   3.598  17.757  0.00  0.00    +0.000 C 
BRANCH  18  19
ATOM     19  C   UNL     1       3.163   3.833  18.633  0.00  0.00    +0.000 A 
ATOM     20  C   UNL     1       1.954   3.177  18.362  0.00  0.00    +0.000 A 
ATOM     21  C   UNL     1       0.877   3.278  19.247  0.00  0.00    +0.000 A 
ATOM     22  C   UNL     1       0.995   4.038  20.409  0.00  0.00    +0.000 A 
ATOM     23  C   UNL     1       2.178   4.726  20.672  0.00  0.00    +0.000 A 
ATOM     24  C   UNL     1       3.252   4.638  19.781  0.00  0.00    +0.000 A 
ENDBRANCH  18  19
ENDBRANCH   9  18
TORSDOF 6
ENDMDL
MODEL 2
REMARK VINA RESULT:      -7.3      0.746      1.277
REMARK  Name = 
REMARK  9 active torsions:
REMARK  status: ('A' for Active; 'I' for Inactive)
REMARK    1  A    between atoms: C_1  and  C_2
REMARK    2  A    between atoms: C_2  and  C_3
REMARK    3  A    between atoms: C_2  and  C_4
REMARK    4  A    between atoms: C_2  and  C_5
REMARK    5  A    between atoms: C_5  and  C_7
REMARK    6  A    between atoms: C_7  and  S_8
REMARK    7  A    between atoms: S_8  and  C_9
REMARK    8  A    between atoms: N_17  and  C_18
REMARK    9  A    between atoms: C_18  and  C_19
REMARK                            x       y       z     vdW  Elec       q    Type
REMARK                         _______ _______ _______ _____ _____    ______ ____
ROOT
ATOM      1  C   UNL     1       7.614   7.293  18.094  0.00  0.00    +0.000 A 
ATOM      2  N   UNL     1       8.328   6.697  19.071  0.00  0.00    +0.000 NA
ATOM      3  C   UNL     1       7.931   5.472  19.477  0.00  0.00    +0.000 A 
ATOM      4  N   UNL     1       6.901   4.731  19.019  0.00  0.00    +0.000 NA
ATOM      5  C   UNL     1       6.227   5.362  18.039  0.00  0.00    +0.000 A 
ATOM      6  C   UNL     1       6.518   6.626  17.537  0.00  0.00    +0.000 A 
ATOM      7  C   UNL     1       5.514   6.856  16.578  0.00  0.00    +0.000 A 
ATOM      8  N   UNL     1       4.648   5.847  16.464  0.00  0.00    +0.000 NA
ATOM      9  N   UNL     1       5.113   4.929  17.355  0.00  0.00    +0.000 N 
ENDROOT
BRANCH   1  10
ATOM     10  S   UNL     1       7.996   8.949  17.603  0.00  0.00    +0.000 S 
BRANCH  10  11
ATOM     11  C   UNL     1       8.939   9.516  19.058  0.00  0.00    +0.000 C 
BRANCH  11  12
ATOM     12  C   UNL     1       9.641  10.838  18.753  0.00  0.00    +0.000 C 
ATOM     13  O   UNL     1      10.044  11.076  17.611  0.00  0.00    +0.000 OA
BRANCH  12  15
ATOM     14  C   UNL     1       9.169  11.323  21.178  0.00  0.00    +0.000 C 
ATOM     15  C   UNL     1       9.863  11.846  19.904  0.00  0.00    +0.000 C 
ATOM     16  C   UNL     1       9.247  13.205  19.543  0.00  0.00    +0.000 C 
ATOM     17  C   UNL     1      11.360  12.003  20.200  0.00  0.00    +0.000 C 
ENDBRANCH  12  15
ENDBRANCH  11  12
ENDBRANCH  10  11
ENDBRANCH   1  10
BRANCH   9  18
ATOM     18  C   UNL     1       4.304   3.748  17.631  0.00  0.00    +0.000 C 
BRANCH  18  19
ATOM     19  C   UNL     1       3.517   3.826  18.919  0.00  0.00    +0.000 A 
ATOM     20  C   UNL     1       2.631   4.889  19.144  0.00  0.00    +0.000 A 
ATOM     21  C   UNL     1       1.797   4.893  20.265  0.00  0.00    +0.000 A 
ATOM     22  C   UNL     1       1.840   3.839  21.174  0.00  0.00    +0.000 A 
ATOM     23  C   UNL     1       2.743   2.794  20.983  0.00  0.00    +0.000 A 
ATOM     24  C   UNL     1       3.588   2.794  19.869  0.00  0.00    +0.000 A 
ENDBRANCH  18  19
ENDBRANCH   9  18
TORSDOF 6
ENDMDL
MODEL 3
REMARK VINA RESULT:      -7.2      0.762      1.251
REMARK  Name = 
REMARK  9 active torsions:
REMARK  status: ('A' for Active; 'I' for Inactive)
REMARK    1  A    between atoms: C_1  and  C_2
REMARK    2  A    between atoms: C_2  and  C_3
REMARK    3  A    between atoms: C_2  and  C_4
REMARK    4  A    between atoms: C_2  and  C_5
REMARK    5  A    between atoms: C_5  and  C_7
REMARK    6  A    between atoms: C_7  and  S_8
REMARK    7  A    between atoms: S_8  and  C_9
REMARK    8  A    between atoms: N_17  and  C_18
REMARK    9  A    between atoms: C_18  and  C_19
REMARK                            x       y       z     vdW  Elec       q    Type
REMARK                         _______ _______ _______ _____ _____    ______ ____
ROOT
ATOM      1  C   UNL     1       7.594   7.285  18.049  0.00  0.00    +0.000 A 
ATOM      2  N   UNL     1       8.272   6.696  19.056  0.00  0.00    +0.000 NA
ATOM      3  C   UNL     1       7.889   5.454  19.423  0.00  0.00    +0.000 A 
ATOM      4  N   UNL     1       6.907   4.692  18.901  0.00  0.00    +0.000 NA
ATOM      5  C   UNL     1       6.268   5.317  17.895  0.00  0.00    +0.000 A 
ATOM      6  C   UNL     1       6.549   6.596  17.426  0.00  0.00    +0.000 A 
ATOM      7  C   UNL     1       5.592   6.812  16.417  0.00  0.00    +0.000 A 
ATOM      8  N   UNL     1       4.762   5.781  16.244  0.00  0.00    +0.000 NA
ATOM      9  N   UNL     1       5.205   4.864  17.146  0.00  0.00    +0.000 N 
ENDROOT
BRANCH   1  10
ATOM     10  S   UNL     1       7.955   8.958  17.600  0.00  0.00    +0.000 S 
BRANCH  10  11
ATOM     11  C   UNL     1       8.938   9.483  19.044  0.00  0.00    +0.000 C 
BRANCH  11  12
ATOM     12  C   UNL     1       9.640  10.808  18.754  0.00  0.00    +0.000 C 
ATOM     13  O   UNL     1      10.050  11.056  17.616  0.00  0.00    +0.000 OA
BRANCH  12  15
ATOM     14  C   UNL     1       9.189  11.254  21.190  0.00  0.00    +0.000 C 
ATOM     15  C   UNL     1       9.855  11.807  19.914  0.00  0.00    +0.000 C 
ATOM     16  C   UNL     1       9.204  13.156  19.578  0.00  0.00    +0.000 C 
ATOM     17  C   UNL     1      11.351  11.994  20.193  0.00  0.00    +0.000 C 
ENDBRANCH  12  15
ENDBRANCH  11  12
ENDBRANCH  10  11
ENDBRANCH   1  10
BRANCH   9  18
ATOM     18  C   UNL     1       4.416   3.656  17.364  0.00  0.00    +0.000 C 
BRANCH  18  19
ATOM     19  C   UNL     1       3.527   3.712  18.584  0.00  0.00    +0.000 A 
ATOM     20  C   UNL     1       3.726   2.820  19.647  0.00  0.00    +0.000 A 
ATOM     21  C   UNL     1       3.003   2.958  20.835  0.00  0.00    +0.000 A 
ATOM     22  C   UNL     1       2.072   3.984  20.973  0.00  0.00    +0.000 A 
ATOM     23  C   UNL     1       1.836   4.856  19.911  0.00  0.00    +0.000 A 
ATOM     24  C   UNL     1       2.548   4.712  18.716  0.00  0.00    +0.000 A 
ENDBRANCH  18  19
ENDBRANCH   9  18
TORSDOF 6
ENDMDL
MODEL 4
REMARK VINA RESULT:      -7.2      4.677      7.784
REMARK  Name = 
REMARK  9 active torsions:
REMARK  status: ('A' for Active; 'I' for Inactive)
REMARK    1  A    between atoms: C_1  and  C_2
REMARK    2  A    between atoms: C_2  and  C_3
REMARK    3  A    between atoms: C_2  and  C_4
REMARK    4  A    between atoms: C_2  and  C_5
REMARK    5  A    between atoms: C_5  and  C_7
REMARK    6  A    between atoms: C_7  and  S_8
REMARK    7  A    between atoms: S_8  and  C_9
REMARK    8  A    between atoms: N_17  and  C_18
REMARK    9  A    between atoms: C_18  and  C_19
REMARK                            x       y       z     vdW  Elec       q    Type
REMARK                         _______ _______ _______ _____ _____    ______ ____
ROOT
ATOM      1  C   UNL     1       4.178   5.933  19.019  0.00  0.00    +0.000 A 
ATOM      2  N   UNL     1       4.737   5.039  19.861  0.00  0.00    +0.000 NA
ATOM      3  C   UNL     1       5.852   4.402  19.443  0.00  0.00    +0.000 A 
ATOM      4  N   UNL     1       6.513   4.546  18.276  0.00  0.00    +0.000 NA
ATOM      5  C   UNL     1       5.923   5.455  17.476  0.00  0.00    +0.000 A 
ATOM      6  C   UNL     1       4.768   6.171  17.774  0.00  0.00    +0.000 A 
ATOM      7  C   UNL     1       4.532   6.940  16.620  0.00  0.00    +0.000 A 
ATOM      8  N   UNL     1       5.437   6.746  15.658  0.00  0.00    +0.000 NA
ATOM      9  N   UNL     1       6.295   5.845  16.209  0.00  0.00    +0.000 N 
ENDROOT
BRANCH   1  10
ATOM     10  S   UNL     1       2.646   6.710  19.445  0.00  0.00    +0.000 S 
BRANCH  10  11
ATOM     11  C   UNL     1       1.713   5.276  20.078  0.00  0.00    +0.000 C 
BRANCH  11  12
ATOM     12  C   UNL     1       1.605   4.197  19.003  0.00  0.00    +0.000 C 
ATOM     13  O   UNL     1       1.428   4.514  17.823  0.00  0.00    +0.000 OA
BRANCH  12  15
ATOM     14  C   UNL     1       0.502   1.943  18.810  0.00  0.00    +0.000 C 
ATOM     15  C   UNL     1       1.688   2.713  19.425  0.00  0.00    +0.000 C 
ATOM     16  C   UNL     1       1.601   2.591  20.953  0.00  0.00    +0.000 C 
ATOM     17  C   UNL     1       2.990   2.081  18.916  0.00  0.00    +0.000 C 
ENDBRANCH  12  15
ENDBRANCH  11  12
ENDBRANCH  10  11
ENDBRANCH   1  10
BRANCH   9  18
ATOM     18  C   UNL     1       7.332   5.259  15.368  0.00  0.00    +0.000 C 
BRANCH  18  19
ATOM     19  C   UNL     1       6.819   4.676  14.071  0.00  0.00    +0.000 A 
ATOM     20  C   UNL     1       7.592   4.754  12.904  0.00  0.00    +0.000 A 
ATOM     21  C   UNL     1       7.188   4.095  11.740  0.00  0.00    +0.000 A 
ATOM     22  C   UNL     1       6.009   3.354  11.727  0.00  0.00    +0.000 A 
ATOM     23  C   UNL     1       5.211   3.299  12.869  0.00  0.00    +0.000 A 
ATOM     24  C   UNL     1       5.605   3.969  14.032  0.00  0.00    +0.000 A 
ENDBRANCH  18  19
ENDBRANCH   9  18
TORSDOF 6
ENDMDL
MODEL 5
REMARK VINA RESULT:      -7.1      4.670      7.766
REMARK  Name = 
REMARK  9 active torsions:
REMARK  status: ('A' for Active; 'I' for Inactive)
REMARK    1  A    between atoms: C_1  and  C_2
REMARK    2  A    between atoms: C_2  and  C_3
REMARK    3  A    between atoms: C_2  and  C_4
REMARK    4  A    between atoms: C_2  and  C_5
REMARK    5  A    between atoms: C_5  and  C_7
REMARK    6  A    between atoms: C_7  and  S_8
REMARK    7  A    between atoms: S_8  and  C_9
REMARK    8  A    between atoms: N_17  and  C_18
REMARK    9  A    between atoms: C_18  and  C_19
REMARK                            x       y       z     vdW  Elec       q    Type
REMARK                         _______ _______ _______ _____ _____    ______ ____
ROOT
ATOM      1  C   UNL     1       4.133   5.947  18.909  0.00  0.00    +0.000 A 
ATOM      2  N   UNL     1       4.690   5.108  19.807  0.00  0.00    +0.000 NA
ATOM      3  C   UNL     1       5.853   4.512  19.466  0.00  0.00    +0.000 A 
ATOM      4  N   UNL     1       6.564   4.651  18.328  0.00  0.00    +0.000 NA
ATOM      5  C   UNL     1       5.973   5.504  17.470  0.00  0.00    +0.000 A 
ATOM      6  C   UNL     1       4.773   6.173  17.686  0.00  0.00    +0.000 A 
ATOM      7  C   UNL     1       4.560   6.893  16.496  0.00  0.00    +0.000 A 
ATOM      8  N   UNL     1       5.520   6.711  15.587  0.00  0.00    +0.000 NA
ATOM      9  N   UNL     1       6.390   5.871  16.210  0.00  0.00    +0.000 N 
ENDROOT
BRANCH   1  10
ATOM     10  S   UNL     1       2.547   6.663  19.233  0.00  0.00    +0.000 S 
BRANCH  10  11
ATOM     11  C   UNL     1       1.615   5.182  19.749  0.00  0.00    +0.000 C 
BRANCH  11  12
ATOM     12  C   UNL     1       1.574   4.160  18.615  0.00  0.00    +0.000 C 
ATOM     13  O   UNL     1       1.268   4.513  17.473  0.00  0.00    +0.000 OA
BRANCH  12  15
ATOM     14  C   UNL     1       2.364   2.566  20.396  0.00  0.00    +0.000 C 
ATOM     15  C   UNL     1       1.888   2.680  18.934  0.00  0.00    +0.000 C 
ATOM     16  C   UNL     1       3.012   2.169  18.022  0.00  0.00    +0.000 C 
ATOM     17  C   UNL     1       0.633   1.815  18.766  0.00  0.00    +0.000 C 
ENDBRANCH  12  15
ENDBRANCH  11  12
ENDBRANCH  10  11
ENDBRANCH   1  10
BRANCH   9  18
ATOM     18  C   UNL     1       7.494   5.308  15.440  0.00  0.00    +0.000 C 
BRANCH  18  19
ATOM     19  C   UNL     1       7.071   4.645  14.150  0.00  0.00    +0.000 A 
ATOM     20  C   UNL     1       5.965   3.784  14.125  0.00  0.00    +0.000 A 
ATOM     21  C   UNL     1       5.483   3.281  12.913  0.00  0.00    +0.000 A 
ATOM     22  C   UNL     1       6.102   3.630  11.715  0.00  0.00    +0.000 A 
ATOM     23  C   UNL     1       7.226   4.454  11.728  0.00  0.00    +0.000 A 
ATOM     24  C   UNL     1       7.718   4.948  12.940  0.00  0.00    +0.000 A 
ENDBRANCH  18  19
ENDBRANCH   9  18
TORSDOF 6
ENDMDL
MODEL 6
REMARK VINA RESULT:      -7.1      6.618      8.957
REMARK  Name = 
REMARK  9 active torsions:
REMARK  status: ('A' for Active; 'I' for Inactive)
REMARK    1  A    between atoms: C_1  and  C_2
REMARK    2  A    between atoms: C_2  and  C_3
REMARK    3  A    between atoms: C_2  and  C_4
REMARK    4  A    between atoms: C_2  and  C_5
REMARK    5  A    between atoms: C_5  and  C_7
REMARK    6  A    between atoms: C_7  and  S_8
REMARK    7  A    between atoms: S_8  and  C_9
REMARK    8  A    between atoms: N_17  and  C_18
REMARK    9  A    between atoms: C_18  and  C_19
REMARK                            x       y       z     vdW  Elec       q    Type
REMARK                         _______ _______ _______ _____ _____    ______ ____
ROOT
ATOM      1  C   UNL     1      -0.027  10.334  19.479  0.00  0.00    +0.000 A 
ATOM      2  N   UNL     1      -0.472  10.151  20.740  0.00  0.00    +0.000 NA
ATOM      3  C   UNL     1       0.071   9.140  21.452  0.00  0.00    +0.000 A 
ATOM      4  N   UNL     1       1.032   8.272  21.077  0.00  0.00    +0.000 NA
ATOM      5  C   UNL     1       1.450   8.502  19.818  0.00  0.00    +0.000 A 
ATOM      6  C   UNL     1       0.969   9.495  18.971  0.00  0.00    +0.000 A 
ATOM      7  C   UNL     1       1.676   9.296  17.770  0.00  0.00    +0.000 A 
ATOM      8  N   UNL     1       2.530   8.272  17.820  0.00  0.00    +0.000 NA
ATOM      9  N   UNL     1       2.393   7.809  19.092  0.00  0.00    +0.000 N 
ENDROOT
BRANCH   1  10
ATOM     10  S   UNL     1      -0.782  11.555  18.444  0.00  0.00    +0.000 S 
BRANCH  10  11
ATOM     11  C   UNL     1      -2.436  11.657  19.205  0.00  0.00    +0.000 C 
BRANCH  11  12
ATOM     12  C   UNL     1      -3.470  10.962  18.322  0.00  0.00    +0.000 C 
ATOM     13  O   UNL     1      -3.139  10.005  17.616  0.00  0.00    +0.000 OA
BRANCH  12  15
ATOM     14  C   UNL     1      -5.067  12.592  19.385  0.00  0.00    +0.000 C 
ATOM     15  C   UNL     1      -4.919  11.501  18.305  0.00  0.00    +0.000 C 
ATOM     16  C   UNL     1      -5.908  10.371  18.624  0.00  0.00    +0.000 C 
ATOM     17  C   UNL     1      -5.246  12.124  16.943  0.00  0.00    +0.000 C 
ENDBRANCH  12  15
ENDBRANCH  11  12
ENDBRANCH  10  11
ENDBRANCH   1  10
BRANCH   9  18
ATOM     18  C   UNL     1       3.059   6.564  19.460  0.00  0.00    +0.000 C 
BRANCH  18  19
ATOM     19  C   UNL     1       2.188   5.337  19.333  0.00  0.00    +0.000 A 
ATOM     20  C   UNL     1       2.047   4.694  18.095  0.00  0.00    +0.000 A 
ATOM     21  C   UNL     1       1.360   3.480  17.999  0.00  0.00    +0.000 A 
ATOM     22  C   UNL     1       0.805   2.898  19.136  0.00  0.00    +0.000 A 
ATOM     23  C   UNL     1       0.904   3.546  20.367  0.00  0.00    +0.000 A 
ATOM     24  C   UNL     1       1.579   4.766  20.463  0.00  0.00    +0.000 A 
ENDBRANCH  18  19
ENDBRANCH   9  18
TORSDOF 6
ENDMDL
MODEL 7
REMARK VINA RESULT:      -7.0      6.654      8.308
REMARK  Name = 
REMARK  9 active torsions:
REMARK  status: ('A' for Active; 'I' for Inactive)
REMARK    1  A    between atoms: C_1  and  C_2
REMARK    2  A    between atoms: C_2  and  C_3
REMARK    3  A    between atoms: C_2  and  C_4
REMARK    4  A    between atoms: C_2  and  C_5
REMARK    5  A    between atoms: C_5  and  C_7
REMARK    6  A    between atoms: C_7  and  S_8
REMARK    7  A    between atoms: S_8  and  C_9
REMARK    8  A    between atoms: N_17  and  C_18
REMARK    9  A    between atoms: C_18  and  C_19
REMARK                            x       y       z     vdW  Elec       q    Type
REMARK                         _______ _______ _______ _____ _____    ______ ____
ROOT
ATOM      1  C   UNL     1       0.090  10.208  19.774  0.00  0.00    +0.000 A 
ATOM      2  N   UNL     1      -0.244   9.999  21.064  0.00  0.00    +0.000 NA
ATOM      3  C   UNL     1       0.351   8.969  21.704  0.00  0.00    +0.000 A 
ATOM      4  N   UNL     1       1.269   8.104  21.226  0.00  0.00    +0.000 NA
ATOM      5  C   UNL     1       1.576   8.360  19.941  0.00  0.00    +0.000 A 
ATOM      6  C   UNL     1       1.031   9.374  19.161  0.00  0.00    +0.000 A 
ATOM      7  C   UNL     1       1.627   9.198  17.899  0.00  0.00    +0.000 A 
ATOM      8  N   UNL     1       2.475   8.168  17.851  0.00  0.00    +0.000 NA
ATOM      9  N   UNL     1       2.446   7.677  19.120  0.00  0.00    +0.000 N 
ENDROOT
BRANCH   1  10
ATOM     10  S   UNL     1      -0.743  11.456  18.835  0.00  0.00    +0.000 S 
BRANCH  10  11
ATOM     11  C   UNL     1      -1.165  12.638  20.159  0.00  0.00    +0.000 C 
BRANCH  11  12
ATOM     12  C   UNL     1      -2.658  12.572  20.472  0.00  0.00    +0.000 C 
ATOM     13  O   UNL     1      -3.460  12.227  19.599  0.00  0.00    +0.000 OA
BRANCH  12  15
ATOM     14  C   UNL     1      -2.780  14.454  22.139  0.00  0.00    +0.000 C 
ATOM     15  C   UNL     1      -3.143  12.977  21.883  0.00  0.00    +0.000 C 
ATOM     16  C   UNL     1      -2.447  12.119  22.949  0.00  0.00    +0.000 C 
ATOM     17  C   UNL     1      -4.665  12.828  21.992  0.00  0.00    +0.000 C 
ENDBRANCH  12  15
ENDBRANCH  11  12
ENDBRANCH  10  11
ENDBRANCH   1  10
BRANCH   9  18
ATOM     18  C   UNL     1       3.132   6.420  19.401  0.00  0.00    +0.000 C 
BRANCH  18  19
ATOM     19  C   UNL     1       2.233   5.207  19.369  0.00  0.00    +0.000 A 
ATOM     20  C   UNL     1       1.958   4.560  18.156  0.00  0.00    +0.000 A 
ATOM     21  C   UNL     1       1.246   3.358  18.138  0.00  0.00    +0.000 A 
ATOM     22  C   UNL     1       0.799   2.790  19.328  0.00  0.00    +0.000 A 
ATOM     23  C   UNL     1       1.033   3.440  20.539  0.00  0.00    +0.000 A 
ATOM     24  C   UNL     1       1.733   4.651  20.559  0.00  0.00    +0.000 A 
ENDBRANCH  18  19
ENDBRANCH   9  18
TORSDOF 6
ENDMDL
MODEL 8
REMARK VINA RESULT:      -7.0      6.095      8.930
REMARK  Name = 
REMARK  9 active torsions:
REMARK  status: ('A' for Active; 'I' for Inactive)
REMARK    1  A    between atoms: C_1  and  C_2
REMARK    2  A    between atoms: C_2  and  C_3
REMARK    3  A    between atoms: C_2  and  C_4
REMARK    4  A    between atoms: C_2  and  C_5
REMARK    5  A    between atoms: C_5  and  C_7
REMARK    6  A    between atoms: C_7  and  S_8
REMARK    7  A    between atoms: S_8  and  C_9
REMARK    8  A    between atoms: N_17  and  C_18
REMARK    9  A    between atoms: C_18  and  C_19
REMARK                            x       y       z     vdW  Elec       q    Type
REMARK                         _______ _______ _______ _____ _____    ______ ____
ROOT
ATOM      1  C   UNL     1       2.071   7.460  19.748  0.00  0.00    +0.000 A 
ATOM      2  N   UNL     1       2.680   7.585  18.551  0.00  0.00    +0.000 NA
ATOM      3  C   UNL     1       2.418   8.696  17.830  0.00  0.00    +0.000 A 
ATOM      4  N   UNL     1       1.622   9.736  18.153  0.00  0.00    +0.000 NA
ATOM      5  C   UNL     1       1.046   9.570  19.359  0.00  0.00    +0.000 A 
ATOM      6  C   UNL     1       1.217   8.472  20.196  0.00  0.00    +0.000 A 
ATOM      7  C   UNL     1       0.382   8.744  21.296  0.00  0.00    +0.000 A 
ATOM      8  N   UNL     1      -0.276   9.901  21.190  0.00  0.00    +0.000 NA
ATOM      9  N   UNL     1       0.160  10.404  20.003  0.00  0.00    +0.000 N 
ENDROOT
BRANCH   1  10
ATOM     10  S   UNL     1       2.266   5.974  20.690  0.00  0.00    +0.000 S 
BRANCH  10  11
ATOM     11  C   UNL     1       3.493   5.094  19.666  0.00  0.00    +0.000 C 
BRANCH  11  12
ATOM     12  C   UNL     1       3.141   3.611  19.575  0.00  0.00    +0.000 C 
ATOM     13  O   UNL     1       3.726   2.790  20.289  0.00  0.00    +0.000 OA
BRANCH  12  15
ATOM     14  C   UNL     1       0.825   2.661  19.315  0.00  0.00    +0.000 C 
ATOM     15  C   UNL     1       2.071   3.159  18.555  0.00  0.00    +0.000 C 
ATOM     16  C   UNL     1       2.608   2.003  17.700  0.00  0.00    +0.000 C 
ATOM     17  C   UNL     1       1.653   4.332  17.660  0.00  0.00    +0.000 C 
ENDBRANCH  12  15
ENDBRANCH  11  12
ENDBRANCH  10  11
ENDBRANCH   1  10
BRANCH   9  18
ATOM     18  C   UNL     1      -0.487  11.597  19.468  0.00  0.00    +0.000 C 
BRANCH  18  19
ATOM     19  C   UNL     1      -1.820  11.334  18.808  0.00  0.00    +0.000 A 
ATOM     20  C   UNL     1      -1.964  10.273  17.901  0.00  0.00    +0.000 A 
ATOM     21  C   UNL     1      -3.224   9.936  17.398  0.00  0.00    +0.000 A 
ATOM     22  C   UNL     1      -4.350  10.655  17.791  0.00  0.00    +0.000 A 
ATOM     23  C   UNL     1      -4.217  11.735  18.662  0.00  0.00    +0.000 A 
ATOM     24  C   UNL     1      -2.956  12.083  19.157  0.00  0.00    +0.000 A 
ENDBRANCH  18  19
ENDBRANCH   9  18
TORSDOF 6
ENDMDL
MODEL 9
REMARK VINA RESULT:      -6.9      4.798      7.982
REMARK  Name = 
REMARK  9 active torsions:
REMARK  status: ('A' for Active; 'I' for Inactive)
REMARK    1  A    between atoms: C_1  and  C_2
REMARK    2  A    between atoms: C_2  and  C_3
REMARK    3  A    between atoms: C_2  and  C_4
REMARK    4  A    between atoms: C_2  and  C_5
REMARK    5  A    between atoms: C_5  and  C_7
REMARK    6  A    between atoms: C_7  and  S_8
REMARK    7  A    between atoms: S_8  and  C_9
REMARK    8  A    between atoms: N_17  and  C_18
REMARK    9  A    between atoms: C_18  and  C_19
REMARK                            x       y       z     vdW  Elec       q    Type
REMARK                         _______ _______ _______ _____ _____    ______ ____
ROOT
ATOM      1  C   UNL     1       3.167   6.225  19.358  0.00  0.00    +0.000 A 
ATOM      2  N   UNL     1       2.616   7.238  18.659  0.00  0.00    +0.000 NA
ATOM      3  C   UNL     1       3.239   7.627  17.526  0.00  0.00    +0.000 A 
ATOM      4  N   UNL     1       4.359   7.121  16.970  0.00  0.00    +0.000 NA
ATOM      5  C   UNL     1       4.865   6.107  17.697  0.00  0.00    +0.000 A 
ATOM      6  C   UNL     1       4.335   5.617  18.886  0.00  0.00    +0.000 A 
ATOM      7  C   UNL     1       5.236   4.608  19.275  0.00  0.00    +0.000 A 
ATOM      8  N   UNL     1       6.258   4.455  18.431  0.00  0.00    +0.000 NA
ATOM      9  N   UNL     1       6.003   5.370  17.457  0.00  0.00    +0.000 N 
ENDROOT
BRANCH   1  10
ATOM     10  S   UNL     1       2.480   5.748  20.918  0.00  0.00    +0.000 S 
BRANCH  10  11
ATOM     11  C   UNL     1       1.250   4.515  20.373  0.00  0.00    +0.000 C 
BRANCH  11  12
ATOM     12  C   UNL     1       1.941   3.203  20.007  0.00  0.00    +0.000 C 
ATOM     13  O   UNL     1       2.623   2.607  20.846  0.00  0.00    +0.000 OA
BRANCH  12  15
ATOM     14  C   UNL     1       0.567   1.734  18.494  0.00  0.00    +0.000 C 
ATOM     15  C   UNL     1       1.797   2.661  18.566  0.00  0.00    +0.000 C 
ATOM     16  C   UNL     1       3.039   1.844  18.182  0.00  0.00    +0.000 C 
ATOM     17  C   UNL     1       1.592   3.814  17.576  0.00  0.00    +0.000 C 
ENDBRANCH  12  15
ENDBRANCH  11  12
ENDBRANCH  10  11
ENDBRANCH   1  10
BRANCH   9  18
ATOM     18  C   UNL     1       7.018   5.610  16.437  0.00  0.00    +0.000 C 
BRANCH  18  19
ATOM     19  C   UNL     1       6.681   5.030  15.083  0.00  0.00    +0.000 A 
ATOM     20  C   UNL     1       7.551   5.211  13.998  0.00  0.00    +0.000 A 
ATOM     21  C   UNL     1       7.317   4.559  12.784  0.00  0.00    +0.000 A 
ATOM     22  C   UNL     1       6.212   3.725  12.638  0.00  0.00    +0.000 A 
ATOM     23  C   UNL     1       5.317   3.566  13.696  0.00  0.00    +0.000 A 
ATOM     24  C   UNL     1       5.541   4.227  14.908  0.00  0.00    +0.000 A 
ENDBRANCH  18  19
ENDBRANCH   9  18
TORSDOF 6
ENDMDL
