MODEL 1
REMARK VINA RESULT:      -9.3      0.000      0.000
REMARK  Name = 
REMARK  9 active torsions:
REMARK  status: ('A' for Active; 'I' for Inactive)
REMARK    1  A    between atoms: C_1  and  O_2
REMARK    2  A    between atoms: O_2  and  C_3
REMARK    3  A    between atoms: C_6  and  C_7
REMARK    4  A    between atoms: C_7  and  C_8
REMARK    5  A    between atoms: N_10  and  C_11
REMARK    6  A    between atoms: C_12  and  C_13
REMARK    7  A    between atoms: N_15  and  C_16
REMARK    8  A    between atoms: C_31  and  O_32
REMARK    9  A    between atoms: O_32  and  C_33
REMARK                            x       y       z     vdW  Elec       q    Type
REMARK                         _______ _______ _______ _____ _____    ______ ____
ROOT
ATOM      1  C   UNL     1       7.834   6.360  17.748  0.00  0.00    +0.000 A 
ATOM      2  C   UNL     1       7.839   5.034  18.182  0.00  0.00    +0.000 A 
ATOM      3  O   UNL     1       7.978   4.230  17.077  0.00  0.00    +0.000 OA
ATOM      4  C   UNL     1       7.217   4.894  16.156  0.00  0.00    +0.000 A 
ATOM      5  C   UNL     1       6.656   4.267  15.050  0.00  0.00    +0.000 A 
ATOM      6  C   UNL     1       5.457   4.823  14.620  0.00  0.00    +0.000 A 
ATOM      7  C   UNL     1       4.971   6.006  15.193  0.00  0.00    +0.000 A 
ATOM      8  C   UNL     1       5.713   6.742  16.154  0.00  0.00    +0.000 A 
ATOM      9  C   UNL     1       6.887   6.158  16.672  0.00  0.00    +0.000 A 
ENDROOT
BRANCH   1  12
ATOM     10  C   UNL     1       8.395   8.660  18.186  0.00  0.00    +0.000 C 
ATOM     11  O   UNL     1       8.108   9.016  17.042  0.00  0.00    +0.000 OA
ATOM     12  N   UNL     1       8.184   7.354  18.675  0.00  0.00    +0.000 N 
ATOM     13  H   UNL     1       8.651   7.051  19.521  0.00  0.00    +0.000 HD
BRANCH  10  14
ATOM     14  C   UNL     1       8.922   9.706  19.168  0.00  0.00    +0.000 C 
BRANCH  14  18
ATOM     15  C   UNL     1      10.559  13.371  17.436  0.00  0.00    +0.000 A 
ATOM     16  C   UNL     1      11.372  12.228  17.577  0.00  0.00    +0.000 A 
ATOM     17  C   UNL     1      10.870  11.044  18.141  0.00  0.00    +0.000 A 
ATOM     18  C   UNL     1       9.556  10.968  18.603  0.00  0.00    +0.000 A 
ATOM     19  C   UNL     1       8.747  12.106  18.437  0.00  0.00    +0.000 A 
ATOM     20  C   UNL     1       9.229  13.306  17.869  0.00  0.00    +0.000 A 
BRANCH  15  22
ATOM     21  C   UNL     1      11.893  15.332  17.707  0.00  0.00    +0.000 C 
ATOM     22  O   UNL     1      11.025  14.544  16.902  0.00  0.00    +0.000 OA
ENDBRANCH  15  22
BRANCH  20  23
ATOM     23  O   UNL     1       8.267  14.276  17.820  0.00  0.00    +0.000 OA
ATOM     24  C   UNL     1       8.160  15.224  18.876  0.00  0.00    +0.000 C 
ENDBRANCH  20  23
ENDBRANCH  14  18
ENDBRANCH  10  14
ENDBRANCH   1  12
BRANCH   2  25
ATOM     25  C   UNL     1       6.888   4.660  19.237  0.00  0.00    +0.000 C 
ATOM     26  O   UNL     1       7.006   5.072  20.389  0.00  0.00    +0.000 OA
ATOM     27  N   UNL     1       5.789   3.989  18.764  0.00  0.00    +0.000 N 
ATOM     28  H   UNL     1       5.879   3.605  17.833  0.00  0.00    +0.000 HD
BRANCH  27  29
ATOM     29  C   UNL     1       4.599   3.783  19.468  0.00  0.00    +0.000 A 
ATOM     30  C   UNL     1       4.292   2.588  20.128  0.00  0.00    +0.000 A 
ATOM     31  C   UNL     1       3.054   2.435  20.754  0.00  0.00    +0.000 A 
ATOM     32  C   UNL     1       2.142   3.485  20.726  0.00  0.00    +0.000 A 
ATOM     33  F   UNL     1       0.945   3.339  21.301  0.00  0.00    +0.000 F 
ATOM     34  C   UNL     1       2.463   4.693  20.111  0.00  0.00    +0.000 A 
ATOM     35  C   UNL     1       3.703   4.850  19.500  0.00  0.00    +0.000 A 
ENDBRANCH  27  29
ENDBRANCH   2  25
TORSDOF 7
ENDMDL
MODEL 2
REMARK VINA RESULT:      -8.5      0.842      1.186
REMARK  Name = 
REMARK  9 active torsions:
REMARK  status: ('A' for Active; 'I' for Inactive)
REMARK    1  A    between atoms: C_1  and  O_2
REMARK    2  A    between atoms: O_2  and  C_3
REMARK    3  A    between atoms: C_6  and  C_7
REMARK    4  A    between atoms: C_7  and  C_8
REMARK    5  A    between atoms: N_10  and  C_11
REMARK    6  A    between atoms: C_12  and  C_13
REMARK    7  A    between atoms: N_15  and  C_16
REMARK    8  A    between atoms: C_31  and  O_32
REMARK    9  A    between atoms: O_32  and  C_33
REMARK                            x       y       z     vdW  Elec       q    Type
REMARK                         _______ _______ _______ _____ _____    ______ ____
ROOT
ATOM      1  C   UNL     1       7.873   6.573  17.854  0.00  0.00    +0.000 A 
ATOM      2  C   UNL     1       7.854   5.215  18.174  0.00  0.00    +0.000 A 
ATOM      3  O   UNL     1       7.936   4.504  17.002  0.00  0.00    +0.000 OA
ATOM      4  C   UNL     1       7.168   5.264  16.166  0.00  0.00    +0.000 A 
ATOM      5  C   UNL     1       6.556   4.748  15.029  0.00  0.00    +0.000 A 
ATOM      6  C   UNL     1       5.362   5.369  14.685  0.00  0.00    +0.000 A 
ATOM      7  C   UNL     1       4.927   6.511  15.372  0.00  0.00    +0.000 A 
ATOM      8  C   UNL     1       5.718   7.143  16.366  0.00  0.00    +0.000 A 
ATOM      9  C   UNL     1       6.889   6.488  16.796  0.00  0.00    +0.000 A 
ENDROOT
BRANCH   1  12
ATOM     10  C   UNL     1       8.463   8.823  18.475  0.00  0.00    +0.000 C 
ATOM     11  O   UNL     1       8.109   9.286  17.389  0.00  0.00    +0.000 OA
ATOM     12  N   UNL     1       8.279   7.476  18.849  0.00  0.00    +0.000 N 
ATOM     13  H   UNL     1       8.795   7.095  19.634  0.00  0.00    +0.000 HD
BRANCH  10  14
ATOM     14  C   UNL     1       9.048   9.773  19.520  0.00  0.00    +0.000 C 
BRANCH  14  18
ATOM     15  C   UNL     1      10.968  13.466  18.182  0.00  0.00    +0.000 A 
ATOM     16  C   UNL     1      11.105  12.282  17.430  0.00  0.00    +0.000 A 
ATOM     17  C   UNL     1      10.507  11.082  17.847  0.00  0.00    +0.000 A 
ATOM     18  C   UNL     1       9.776  11.017  19.034  0.00  0.00    +0.000 A 
ATOM     19  C   UNL     1       9.626  12.209  19.764  0.00  0.00    +0.000 A 
ATOM     20  C   UNL     1      10.215  13.427  19.363  0.00  0.00    +0.000 A 
BRANCH  15  22
ATOM     21  C   UNL     1      10.894  15.415  16.807  0.00  0.00    +0.000 C 
ATOM     22  O   UNL     1      11.551  14.648  17.808  0.00  0.00    +0.000 OA
ENDBRANCH  15  22
BRANCH  20  23
ATOM     23  O   UNL     1       9.941  14.445  20.234  0.00  0.00    +0.000 OA
ATOM     24  C   UNL     1       8.878  15.349  19.957  0.00  0.00    +0.000 C 
ENDBRANCH  20  23
ENDBRANCH  14  18
ENDBRANCH  10  14
ENDBRANCH   1  12
BRANCH   2  25
ATOM     25  C   UNL     1       6.924   4.778  19.225  0.00  0.00    +0.000 C 
ATOM     26  O   UNL     1       7.080   5.099  20.400  0.00  0.00    +0.000 OA
ATOM     27  N   UNL     1       5.800   4.164  18.734  0.00  0.00    +0.000 N 
ATOM     28  H   UNL     1       5.858   3.851  17.774  0.00  0.00    +0.000 HD
BRANCH  27  29
ATOM     29  C   UNL     1       4.626   3.925  19.453  0.00  0.00    +0.000 A 
ATOM     30  C   UNL     1       3.668   4.911  19.714  0.00  0.00    +0.000 A 
ATOM     31  C   UNL     1       2.552   4.611  20.496  0.00  0.00    +0.000 A 
ATOM     32  C   UNL     1       2.399   3.323  20.997  0.00  0.00    +0.000 A 
ATOM     33  F   UNL     1       1.347   3.032  21.768  0.00  0.00    +0.000 F 
ATOM     34  C   UNL     1       3.326   2.327  20.701  0.00  0.00    +0.000 A 
ATOM     35  C   UNL     1       4.431   2.622  19.908  0.00  0.00    +0.000 A 
ENDBRANCH  27  29
ENDBRANCH   2  25
TORSDOF 7
ENDMDL
MODEL 3
REMARK VINA RESULT:      -8.5      0.991      1.367
REMARK  Name = 
REMARK  9 active torsions:
REMARK  status: ('A' for Active; 'I' for Inactive)
REMARK    1  A    between atoms: C_1  and  O_2
REMARK    2  A    between atoms: O_2  and  C_3
REMARK    3  A    between atoms: C_6  and  C_7
REMARK    4  A    between atoms: C_7  and  C_8
REMARK    5  A    between atoms: N_10  and  C_11
REMARK    6  A    between atoms: C_12  and  C_13
REMARK    7  A    between atoms: N_15  and  C_16
REMARK    8  A    between atoms: C_31  and  O_32
REMARK    9  A    between atoms: O_32  and  C_33
REMARK                            x       y       z     vdW  Elec       q    Type
REMARK                         _______ _______ _______ _____ _____    ______ ____
ROOT
ATOM      1  C   UNL     1       7.837   6.290  17.763  0.00  0.00    +0.000 A 
ATOM      2  C   UNL     1       7.802   4.961  18.187  0.00  0.00    +0.000 A 
ATOM      3  O   UNL     1       7.938   4.161  17.079  0.00  0.00    +0.000 OA
ATOM      4  C   UNL     1       7.210   4.850  16.151  0.00  0.00    +0.000 A 
ATOM      5  C   UNL     1       6.651   4.245  15.032  0.00  0.00    +0.000 A 
ATOM      6  C   UNL     1       5.474   4.834  14.586  0.00  0.00    +0.000 A 
ATOM      7  C   UNL     1       5.008   6.025  15.160  0.00  0.00    +0.000 A 
ATOM      8  C   UNL     1       5.752   6.735  16.137  0.00  0.00    +0.000 A 
ATOM      9  C   UNL     1       6.902   6.119  16.670  0.00  0.00    +0.000 A 
ENDROOT
BRANCH   1  12
ATOM     10  C   UNL     1       8.417   8.579  18.230  0.00  0.00    +0.000 C 
ATOM     11  O   UNL     1       8.131   8.953  17.091  0.00  0.00    +0.000 OA
ATOM     12  N   UNL     1       8.197   7.269  18.702  0.00  0.00    +0.000 N 
ATOM     13  H   UNL     1       8.663   6.951  19.543  0.00  0.00    +0.000 HD
BRANCH  10  14
ATOM     14  C   UNL     1       8.954   9.608  19.224  0.00  0.00    +0.000 C 
BRANCH  14  18
ATOM     15  C   UNL     1       9.495  13.789  18.067  0.00  0.00    +0.000 A 
ATOM     16  C   UNL     1       8.549  12.984  17.400  0.00  0.00    +0.000 A 
ATOM     17  C   UNL     1       8.368  11.636  17.747  0.00  0.00    +0.000 A 
ATOM     18  C   UNL     1       9.134  11.041  18.749  0.00  0.00    +0.000 A 
ATOM     19  C   UNL     1      10.059  11.859  19.424  0.00  0.00    +0.000 A 
ATOM     20  C   UNL     1      10.256  13.217  19.095  0.00  0.00    +0.000 A 
BRANCH  15  22
ATOM     21  C   UNL     1       8.634  16.012  17.964  0.00  0.00    +0.000 C 
ATOM     22  O   UNL     1       9.705  15.104  17.741  0.00  0.00    +0.000 OA
ENDBRANCH  15  22
BRANCH  20  23
ATOM     23  O   UNL     1      11.211  13.804  19.877  0.00  0.00    +0.000 OA
ATOM     24  C   UNL     1      10.826  14.687  20.924  0.00  0.00    +0.000 C 
ENDBRANCH  20  23
ENDBRANCH  14  18
ENDBRANCH  10  14
ENDBRANCH   1  12
BRANCH   2  25
ATOM     25  C   UNL     1       6.825   4.604  19.225  0.00  0.00    +0.000 C 
ATOM     26  O   UNL     1       6.897   5.059  20.364  0.00  0.00    +0.000 OA
ATOM     27  N   UNL     1       5.755   3.895  18.742  0.00  0.00    +0.000 N 
ATOM     28  H   UNL     1       5.883   3.481  17.828  0.00  0.00    +0.000 HD
BRANCH  27  29
ATOM     29  C   UNL     1       4.547   3.689  19.414  0.00  0.00    +0.000 A 
ATOM     30  C   UNL     1       4.299   2.579  20.229  0.00  0.00    +0.000 A 
ATOM     31  C   UNL     1       3.044   2.410  20.816  0.00  0.00    +0.000 A 
ATOM     32  C   UNL     1       2.054   3.361  20.591  0.00  0.00    +0.000 A 
ATOM     33  F   UNL     1       0.841   3.195  21.127  0.00  0.00    +0.000 F 
ATOM     34  C   UNL     1       2.312   4.490  19.818  0.00  0.00    +0.000 A 
ATOM     35  C   UNL     1       3.568   4.667  19.247  0.00  0.00    +0.000 A 
ENDBRANCH  27  29
ENDBRANCH   2  25
TORSDOF 7
ENDMDL
MODEL 4
REMARK VINA RESULT:      -8.3      0.818      1.689
REMARK  Name = 
REMARK  9 active torsions:
REMARK  status: ('A' for Active; 'I' for Inactive)
REMARK    1  A    between atoms: C_1  and  O_2
REMARK    2  A    between atoms: O_2  and  C_3
REMARK    3  A    between atoms: C_6  and  C_7
REMARK    4  A    between atoms: C_7  and  C_8
REMARK    5  A    between atoms: N_10  and  C_11
REMARK    6  A    between atoms: C_12  and  C_13
REMARK    7  A    between atoms: N_15  and  C_16
REMARK    8  A    between atoms: C_31  and  O_32
REMARK    9  A    between atoms: O_32  and  C_33
REMARK                            x       y       z     vdW  Elec       q    Type
REMARK                         _______ _______ _______ _____ _____    ______ ____
ROOT
ATOM      1  C   UNL     1       7.810   6.520  17.828  0.00  0.00    +0.000 A 
ATOM      2  C   UNL     1       7.777   5.169  18.175  0.00  0.00    +0.000 A 
ATOM      3  O   UNL     1       7.840   4.435  17.016  0.00  0.00    +0.000 OA
ATOM      4  C   UNL     1       7.073   5.188  16.172  0.00  0.00    +0.000 A 
ATOM      5  C   UNL     1       6.444   4.657  15.052  0.00  0.00    +0.000 A 
ATOM      6  C   UNL     1       5.254   5.287  14.707  0.00  0.00    +0.000 A 
ATOM      7  C   UNL     1       4.840   6.447  15.375  0.00  0.00    +0.000 A 
ATOM      8  C   UNL     1       5.648   7.089  16.350  0.00  0.00    +0.000 A 
ATOM      9  C   UNL     1       6.815   6.427  16.781  0.00  0.00    +0.000 A 
ENDROOT
BRANCH   1  12
ATOM     10  C   UNL     1       8.588   8.733  18.372  0.00  0.00    +0.000 C 
ATOM     11  O   UNL     1       8.364   9.161  17.238  0.00  0.00    +0.000 OA
ATOM     12  N   UNL     1       8.237   7.437  18.802  0.00  0.00    +0.000 N 
ATOM     13  H   UNL     1       8.652   7.055  19.643  0.00  0.00    +0.000 HD
BRANCH  10  14
ATOM     14  C   UNL     1       9.194   9.681  19.406  0.00  0.00    +0.000 C 
BRANCH  14  18
ATOM     15  C   UNL     1       9.654  13.901  18.360  0.00  0.00    +0.000 A 
ATOM     16  C   UNL     1       8.894  13.528  19.487  0.00  0.00    +0.000 A 
ATOM     17  C   UNL     1       8.724  12.178  19.835  0.00  0.00    +0.000 A 
ATOM     18  C   UNL     1       9.281  11.160  19.061  0.00  0.00    +0.000 A 
ATOM     19  C   UNL     1      10.056  11.544  17.952  0.00  0.00    +0.000 A 
ATOM     20  C   UNL     1      10.245  12.894  17.586  0.00  0.00    +0.000 A 
BRANCH  15  22
ATOM     21  C   UNL     1      10.733  15.993  18.753  0.00  0.00    +0.000 C 
ATOM     22  O   UNL     1       9.827  15.209  17.988  0.00  0.00    +0.000 OA
ENDBRANCH  15  22
BRANCH  20  23
ATOM     23  O   UNL     1      11.024  13.022  16.470  0.00  0.00    +0.000 OA
ATOM     24  C   UNL     1      12.333  13.570  16.578  0.00  0.00    +0.000 C 
ENDBRANCH  20  23
ENDBRANCH  14  18
ENDBRANCH  10  14
ENDBRANCH   1  12
BRANCH   2  25
ATOM     25  C   UNL     1       6.853   4.764  19.242  0.00  0.00    +0.000 C 
ATOM     26  O   UNL     1       6.980   5.167  20.396  0.00  0.00    +0.000 OA
ATOM     27  N   UNL     1       5.760   4.074  18.781  0.00  0.00    +0.000 N 
ATOM     28  H   UNL     1       5.843   3.702  17.844  0.00  0.00    +0.000 HD
BRANCH  27  29
ATOM     29  C   UNL     1       4.587   3.835  19.502  0.00  0.00    +0.000 A 
ATOM     30  C   UNL     1       3.631   4.822  19.767  0.00  0.00    +0.000 A 
ATOM     31  C   UNL     1       2.517   4.522  20.552  0.00  0.00    +0.000 A 
ATOM     32  C   UNL     1       2.363   3.233  21.051  0.00  0.00    +0.000 A 
ATOM     33  F   UNL     1       1.312   2.942  21.824  0.00  0.00    +0.000 F 
ATOM     34  C   UNL     1       3.288   2.236  20.750  0.00  0.00    +0.000 A 
ATOM     35  C   UNL     1       4.391   2.532  19.956  0.00  0.00    +0.000 A 
ENDBRANCH  27  29
ENDBRANCH   2  25
TORSDOF 7
ENDMDL
MODEL 5
REMARK VINA RESULT:      -8.2      0.967      1.621
REMARK  Name = 
REMARK  9 active torsions:
REMARK  status: ('A' for Active; 'I' for Inactive)
REMARK    1  A    between atoms: C_1  and  O_2
REMARK    2  A    between atoms: O_2  and  C_3
REMARK    3  A    between atoms: C_6  and  C_7
REMARK    4  A    between atoms: C_7  and  C_8
REMARK    5  A    between atoms: N_10  and  C_11
REMARK    6  A    between atoms: C_12  and  C_13
REMARK    7  A    between atoms: N_15  and  C_16
REMARK    8  A    between atoms: C_31  and  O_32
REMARK    9  A    between atoms: O_32  and  C_33
REMARK                            x       y       z     vdW  Elec       q    Type
REMARK                         _______ _______ _______ _____ _____    ______ ____
ROOT
ATOM      1  C   UNL     1       7.799   6.158  17.717  0.00  0.00    +0.000 A 
ATOM      2  C   UNL     1       7.633   4.847  18.166  0.00  0.00    +0.000 A 
ATOM      3  O   UNL     1       7.762   4.011  17.083  0.00  0.00    +0.000 OA
ATOM      4  C   UNL     1       7.141   4.734  16.103  0.00  0.00    +0.000 A 
ATOM      5  C   UNL     1       6.595   4.147  14.968  0.00  0.00    +0.000 A 
ATOM      6  C   UNL     1       5.494   4.818  14.447  0.00  0.00    +0.000 A 
ATOM      7  C   UNL     1       5.098   6.056  14.970  0.00  0.00    +0.000 A 
ATOM      8  C   UNL     1       5.845   6.729  15.972  0.00  0.00    +0.000 A 
ATOM      9  C   UNL     1       6.912   6.035  16.579  0.00  0.00    +0.000 A 
ENDROOT
BRANCH   1  12
ATOM     10  C   UNL     1       8.405   8.439  18.186  0.00  0.00    +0.000 C 
ATOM     11  O   UNL     1       8.095   8.823  17.056  0.00  0.00    +0.000 OA
ATOM     12  N   UNL     1       8.187   7.127  18.654  0.00  0.00    +0.000 N 
ATOM     13  H   UNL     1       8.671   6.800  19.482  0.00  0.00    +0.000 HD
BRANCH  10  14
ATOM     14  C   UNL     1       8.973   9.458  19.174  0.00  0.00    +0.000 C 
BRANCH  14  18
ATOM     15  C   UNL     1       9.259  13.692  18.124  0.00  0.00    +0.000 A 
ATOM     16  C   UNL     1       8.367  12.847  17.432  0.00  0.00    +0.000 A 
ATOM     17  C   UNL     1       8.267  11.482  17.745  0.00  0.00    +0.000 A 
ATOM     18  C   UNL     1       9.066  10.911  18.736  0.00  0.00    +0.000 A 
ATOM     19  C   UNL     1       9.936  11.767  19.435  0.00  0.00    +0.000 A 
ATOM     20  C   UNL     1      10.050  13.142  19.140  0.00  0.00    +0.000 A 
BRANCH  15  22
ATOM     21  C   UNL     1      10.457  15.407  16.976  0.00  0.00    +0.000 C 
ATOM     22  O   UNL     1       9.388  15.025  17.831  0.00  0.00    +0.000 OA
ENDBRANCH  15  22
BRANCH  20  23
ATOM     23  O   UNL     1      10.965  13.767  19.942  0.00  0.00    +0.000 OA
ATOM     24  C   UNL     1      12.331  13.824  19.549  0.00  0.00    +0.000 C 
ENDBRANCH  20  23
ENDBRANCH  14  18
ENDBRANCH  10  14
ENDBRANCH   1  12
BRANCH   2  25
ATOM     25  C   UNL     1       6.577   4.595  19.156  0.00  0.00    +0.000 C 
ATOM     26  O   UNL     1       6.474   5.272  20.176  0.00  0.00    +0.000 OA
ATOM     27  N   UNL     1       5.639   3.690  18.730  0.00  0.00    +0.000 N 
ATOM     28  H   UNL     1       5.909   3.120  17.940  0.00  0.00    +0.000 HD
BRANCH  27  29
ATOM     29  C   UNL     1       4.384   3.487  19.311  0.00  0.00    +0.000 A 
ATOM     30  C   UNL     1       3.219   4.126  18.871  0.00  0.00    +0.000 A 
ATOM     31  C   UNL     1       2.014   3.922  19.545  0.00  0.00    +0.000 A 
ATOM     32  C   UNL     1       1.984   3.070  20.644  0.00  0.00    +0.000 A 
ATOM     33  F   UNL     1       0.841   2.888  21.312  0.00  0.00    +0.000 F 
ATOM     34  C   UNL     1       3.132   2.397  21.056  0.00  0.00    +0.000 A 
ATOM     35  C   UNL     1       4.329   2.588  20.375  0.00  0.00    +0.000 A 
ENDBRANCH  27  29
ENDBRANCH   2  25
TORSDOF 7
ENDMDL
MODEL 6
REMARK VINA RESULT:      -8.1      6.791     11.371
REMARK  Name = 
REMARK  9 active torsions:
REMARK  status: ('A' for Active; 'I' for Inactive)
REMARK    1  A    between atoms: C_1  and  O_2
REMARK    2  A    between atoms: O_2  and  C_3
REMARK    3  A    between atoms: C_6  and  C_7
REMARK    4  A    between atoms: C_7  and  C_8
REMARK    5  A    between atoms: N_10  and  C_11
REMARK    6  A    between atoms: C_12  and  C_13
REMARK    7  A    between atoms: N_15  and  C_16
REMARK    8  A    between atoms: C_31  and  O_32
REMARK    9  A    between atoms: O_32  and  C_33
REMARK                            x       y       z     vdW  Elec       q    Type
REMARK                         _______ _______ _______ _____ _____    ______ ____
ROOT
ATOM      1  C   UNL     1       0.651  10.651  19.572  0.00  0.00    +0.000 A 
ATOM      2  C   UNL     1       1.425  11.676  20.118  0.00  0.00    +0.000 A 
ATOM      3  O   UNL     1       0.953  11.932  21.383  0.00  0.00    +0.000 OA
ATOM      4  C   UNL     1      -0.394  11.790  21.207  0.00  0.00    +0.000 A 
ATOM      5  C   UNL     1      -1.329  12.393  22.041  0.00  0.00    +0.000 A 
ATOM      6  C   UNL     1      -2.528  12.721  21.419  0.00  0.00    +0.000 A 
ATOM      7  C   UNL     1      -2.780  12.324  20.098  0.00  0.00    +0.000 A 
ATOM      8  C   UNL     1      -1.887  11.493  19.374  0.00  0.00    +0.000 A 
ATOM      9  C   UNL     1      -0.628  11.219  19.946  0.00  0.00    +0.000 A 
ENDROOT
BRANCH   1  12
ATOM     10  C   UNL     1       1.830   8.675  18.865  0.00  0.00    +0.000 C 
ATOM     11  O   UNL     1       1.749   8.149  19.977  0.00  0.00    +0.000 OA
ATOM     12  N   UNL     1       1.206   9.894  18.529  0.00  0.00    +0.000 N 
ATOM     13  H   UNL     1       1.497  10.397  17.699  0.00  0.00    +0.000 HD
BRANCH  10  14
ATOM     14  C   UNL     1       2.565   7.927  17.754  0.00  0.00    +0.000 C 
BRANCH  14  18
ATOM     15  C   UNL     1       3.826   3.843  18.673  0.00  0.00    +0.000 A 
ATOM     16  C   UNL     1       4.714   4.921  18.867  0.00  0.00    +0.000 A 
ATOM     17  C   UNL     1       4.334   6.238  18.567  0.00  0.00    +0.000 A 
ATOM     18  C   UNL     1       3.072   6.523  18.045  0.00  0.00    +0.000 A 
ATOM     19  C   UNL     1       2.186   5.443  17.877  0.00  0.00    +0.000 A 
ATOM     20  C   UNL     1       2.545   4.111  18.175  0.00  0.00    +0.000 A 
BRANCH  15  22
ATOM     21  C   UNL     1       4.345   2.184  20.308  0.00  0.00    +0.000 C 
ATOM     22  O   UNL     1       4.173   2.545  18.943  0.00  0.00    +0.000 OA
ENDBRANCH  15  22
BRANCH  20  23
ATOM     23  O   UNL     1       1.527   3.234  17.922  0.00  0.00    +0.000 OA
ATOM     24  C   UNL     1       0.718   2.759  18.992  0.00  0.00    +0.000 C 
ENDBRANCH  20  23
ENDBRANCH  14  18
ENDBRANCH  10  14
ENDBRANCH   1  12
BRANCH   2  25
ATOM     25  C   UNL     1       1.789  12.794  19.239  0.00  0.00    +0.000 C 
ATOM     26  O   UNL     1       2.161  12.612  18.082  0.00  0.00    +0.000 OA
ATOM     27  N   UNL     1       1.487  14.023  19.769  0.00  0.00    +0.000 N 
ATOM     28  H   UNL     1       1.309  14.036  20.764  0.00  0.00    +0.000 HD
BRANCH  27  29
ATOM     29  C   UNL     1       1.434  15.224  19.056  0.00  0.00    +0.000 A 
ATOM     30  C   UNL     1       0.250  15.935  18.833  0.00  0.00    +0.000 A 
ATOM     31  C   UNL     1       0.268  17.094  18.055  0.00  0.00    +0.000 A 
ATOM     32  C   UNL     1       1.473  17.536  17.520  0.00  0.00    +0.000 A 
ATOM     33  F   UNL     1       1.497  18.631  16.753  0.00  0.00    +0.000 F 
ATOM     34  C   UNL     1       2.661  16.857  17.780  0.00  0.00    +0.000 A 
ATOM     35  C   UNL     1       2.645  15.711  18.568  0.00  0.00    +0.000 A 
ENDBRANCH  27  29
ENDBRANCH   2  25
TORSDOF 7
ENDMDL
MODEL 7
REMARK VINA RESULT:      -8.0      7.131     10.699
REMARK  Name = 
REMARK  9 active torsions:
REMARK  status: ('A' for Active; 'I' for Inactive)
REMARK    1  A    between atoms: C_1  and  O_2
REMARK    2  A    between atoms: O_2  and  C_3
REMARK    3  A    between atoms: C_6  and  C_7
REMARK    4  A    between atoms: C_7  and  C_8
REMARK    5  A    between atoms: N_10  and  C_11
REMARK    6  A    between atoms: C_12  and  C_13
REMARK    7  A    between atoms: N_15  and  C_16
REMARK    8  A    between atoms: C_31  and  O_32
REMARK    9  A    between atoms: O_32  and  C_33
REMARK                            x       y       z     vdW  Elec       q    Type
REMARK                         _______ _______ _______ _____ _____    ______ ____
ROOT
ATOM      1  C   UNL     1       0.858  10.168  19.287  0.00  0.00    +0.000 A 
ATOM      2  C   UNL     1       0.143  11.269  18.813  0.00  0.00    +0.000 A 
ATOM      3  O   UNL     1       0.267  12.280  19.735  0.00  0.00    +0.000 OA
ATOM      4  C   UNL     1       0.217  11.587  20.911  0.00  0.00    +0.000 A 
ATOM      5  C   UNL     1      -0.168  12.171  22.112  0.00  0.00    +0.000 A 
ATOM      6  C   UNL     1      -0.792  11.302  23.001  0.00  0.00    +0.000 A 
ATOM      7  C   UNL     1      -0.869   9.930  22.723  0.00  0.00    +0.000 A 
ATOM      8  C   UNL     1      -0.237   9.350  21.592  0.00  0.00    +0.000 A 
ATOM      9  C   UNL     1       0.324  10.215  20.632  0.00  0.00    +0.000 A 
ENDROOT
BRANCH   1  12
ATOM     10  C   UNL     1       2.038   8.120  18.830  0.00  0.00    +0.000 C 
ATOM     11  O   UNL     1       2.178   7.857  20.026  0.00  0.00    +0.000 OA
ATOM     12  N   UNL     1       1.285   9.212  18.352  0.00  0.00    +0.000 N 
ATOM     13  H   UNL     1       1.400   9.523  17.395  0.00  0.00    +0.000 HD
BRANCH  10  14
ATOM     14  C   UNL     1       2.630   7.162  17.796  0.00  0.00    +0.000 C 
BRANCH  14  18
ATOM     15  C   UNL     1       4.205   3.275  19.028  0.00  0.00    +0.000 A 
ATOM     16  C   UNL     1       2.817   3.459  18.864  0.00  0.00    +0.000 A 
ATOM     17  C   UNL     1       2.289   4.702  18.481  0.00  0.00    +0.000 A 
ATOM     18  C   UNL     1       3.119   5.803  18.272  0.00  0.00    +0.000 A 
ATOM     19  C   UNL     1       4.503   5.603  18.416  0.00  0.00    +0.000 A 
ATOM     20  C   UNL     1       5.058   4.362  18.797  0.00  0.00    +0.000 A 
BRANCH  15  22
ATOM     21  C   UNL     1       4.749   1.777  20.804  0.00  0.00    +0.000 C 
ATOM     22  O   UNL     1       4.749   2.078  19.415  0.00  0.00    +0.000 OA
ENDBRANCH  15  22
BRANCH  20  23
ATOM     23  O   UNL     1       6.421   4.410  18.882  0.00  0.00    +0.000 OA
ATOM     24  C   UNL     1       7.058   5.557  19.433  0.00  0.00    +0.000 C 
ENDBRANCH  20  23
ENDBRANCH  14  18
ENDBRANCH  10  14
ENDBRANCH   1  12
BRANCH   2  25
ATOM     25  C   UNL     1      -1.161  11.014  18.186  0.00  0.00    +0.000 C 
ATOM     26  O   UNL     1      -1.420   9.940  17.649  0.00  0.00    +0.000 OA
ATOM     27  N   UNL     1      -2.084  11.997  18.436  0.00  0.00    +0.000 N 
ATOM     28  H   UNL     1      -1.709  12.873  18.774  0.00  0.00    +0.000 HD
BRANCH  27  29
ATOM     29  C   UNL     1      -3.463  11.884  18.236  0.00  0.00    +0.000 A 
ATOM     30  C   UNL     1      -4.038  11.534  17.010  0.00  0.00    +0.000 A 
ATOM     31  C   UNL     1      -5.427  11.506  16.872  0.00  0.00    +0.000 A 
ATOM     32  C   UNL     1      -6.226  11.816  17.967  0.00  0.00    +0.000 A 
ATOM     33  F   UNL     1      -7.556  11.817  17.839  0.00  0.00    +0.000 F 
ATOM     34  C   UNL     1      -5.657  12.119  19.202  0.00  0.00    +0.000 A 
ATOM     35  C   UNL     1      -4.273  12.131  19.343  0.00  0.00    +0.000 A 
ENDBRANCH  27  29
ENDBRANCH   2  25
TORSDOF 7
ENDMDL
MODEL 8
REMARK VINA RESULT:      -8.0      6.921     11.136
REMARK  Name = 
REMARK  9 active torsions:
REMARK  status: ('A' for Active; 'I' for Inactive)
REMARK    1  A    between atoms: C_1  and  O_2
REMARK    2  A    between atoms: O_2  and  C_3
REMARK    3  A    between atoms: C_6  and  C_7
REMARK    4  A    between atoms: C_7  and  C_8
REMARK    5  A    between atoms: N_10  and  C_11
REMARK    6  A    between atoms: C_12  and  C_13
REMARK    7  A    between atoms: N_15  and  C_16
REMARK    8  A    between atoms: C_31  and  O_32
REMARK    9  A    between atoms: O_32  and  C_33
REMARK                            x       y       z     vdW  Elec       q    Type
REMARK                         _______ _______ _______ _____ _____    ______ ____
ROOT
ATOM      1  C   UNL     1      -0.990  10.398  19.171  0.00  0.00    +0.000 A 
ATOM      2  C   UNL     1      -1.016  11.734  19.572  0.00  0.00    +0.000 A 
ATOM      3  O   UNL     1      -2.326  12.084  19.793  0.00  0.00    +0.000 OA
ATOM      4  C   UNL     1      -2.962  11.412  18.787  0.00  0.00    +0.000 A 
ATOM      5  C   UNL     1      -4.201  11.799  18.290  0.00  0.00    +0.000 A 
ATOM      6  C   UNL     1      -4.402  11.501  16.947  0.00  0.00    +0.000 A 
ATOM      7  C   UNL     1      -3.463  10.743  16.236  0.00  0.00    +0.000 A 
ATOM      8  C   UNL     1      -2.329  10.161  16.861  0.00  0.00    +0.000 A 
ATOM      9  C   UNL     1      -2.054  10.518  18.196  0.00  0.00    +0.000 A 
ENDROOT
BRANCH   1  12
ATOM     10  C   UNL     1       0.340   8.920  20.528  0.00  0.00    +0.000 C 
ATOM     11  O   UNL     1      -0.587   8.694  21.307  0.00  0.00    +0.000 OA
ATOM     12  N   UNL     1       0.204   9.683  19.349  0.00  0.00    +0.000 N 
ATOM     13  H   UNL     1       1.028  10.039  18.881  0.00  0.00    +0.000 HD
BRANCH  10  14
ATOM     14  C   UNL     1       1.695   8.265  20.793  0.00  0.00    +0.000 C 
BRANCH  14  18
ATOM     15  C   UNL     1       3.077   4.949  18.301  0.00  0.00    +0.000 A 
ATOM     16  C   UNL     1       3.175   6.276  17.835  0.00  0.00    +0.000 A 
ATOM     17  C   UNL     1       2.726   7.355  18.613  0.00  0.00    +0.000 A 
ATOM     18  C   UNL     1       2.147   7.147  19.866  0.00  0.00    +0.000 A 
ATOM     19  C   UNL     1       2.076   5.822  20.330  0.00  0.00    +0.000 A 
ATOM     20  C   UNL     1       2.524   4.722  19.567  0.00  0.00    +0.000 A 
BRANCH  15  22
ATOM     21  C   UNL     1       4.757   3.975  16.913  0.00  0.00    +0.000 C 
ATOM     22  O   UNL     1       3.494   3.875  17.558  0.00  0.00    +0.000 OA
ENDBRANCH  15  22
BRANCH  20  23
ATOM     23  O   UNL     1       2.344   3.534  20.219  0.00  0.00    +0.000 OA
ATOM     24  C   UNL     1       2.032   3.526  21.607  0.00  0.00    +0.000 C 
ENDBRANCH  20  23
ENDBRANCH  14  18
ENDBRANCH  10  14
ENDBRANCH   1  12
BRANCH   2  25
ATOM     25  C   UNL     1      -0.122  12.670  18.875  0.00  0.00    +0.000 C 
ATOM     26  O   UNL     1      -0.496  13.313  17.897  0.00  0.00    +0.000 OA
ATOM     27  N   UNL     1       1.060  12.885  19.536  0.00  0.00    +0.000 N 
ATOM     28  H   UNL     1       1.292  12.205  20.248  0.00  0.00    +0.000 HD
BRANCH  27  29
ATOM     29  C   UNL     1       1.953  13.930  19.284  0.00  0.00    +0.000 A 
ATOM     30  C   UNL     1       1.862  15.185  19.895  0.00  0.00    +0.000 A 
ATOM     31  C   UNL     1       2.753  16.200  19.542  0.00  0.00    +0.000 A 
ATOM     32  C   UNL     1       3.734  15.944  18.590  0.00  0.00    +0.000 A 
ATOM     33  F   UNL     1       4.575  16.916  18.226  0.00  0.00    +0.000 F 
ATOM     34  C   UNL     1       3.856  14.682  18.014  0.00  0.00    +0.000 A 
ATOM     35  C   UNL     1       2.979  13.666  18.378  0.00  0.00    +0.000 A 
ENDBRANCH  27  29
ENDBRANCH   2  25
TORSDOF 7
ENDMDL
MODEL 9
REMARK VINA RESULT:      -7.9      6.930     11.121
REMARK  Name = 
REMARK  9 active torsions:
REMARK  status: ('A' for Active; 'I' for Inactive)
REMARK    1  A    between atoms: C_1  and  O_2
REMARK    2  A    between atoms: O_2  and  C_3
REMARK    3  A    between atoms: C_6  and  C_7
REMARK    4  A    between atoms: C_7  and  C_8
REMARK    5  A    between atoms: N_10  and  C_11
REMARK    6  A    between atoms: C_12  and  C_13
REMARK    7  A    between atoms: N_15  and  C_16
REMARK    8  A    between atoms: C_31  and  O_32
REMARK    9  A    between atoms: O_32  and  C_33
REMARK                            x       y       z     vdW  Elec       q    Type
REMARK                         _______ _______ _______ _____ _____    ______ ____
ROOT
ATOM      1  C   UNL     1      -1.022  10.378  19.032  0.00  0.00    +0.000 A 
ATOM      2  C   UNL     1      -1.091  11.711  19.436  0.00  0.00    +0.000 A 
ATOM      3  O   UNL     1      -2.415  12.031  19.612  0.00  0.00    +0.000 OA
ATOM      4  C   UNL     1      -3.001  11.349  18.583  0.00  0.00    +0.000 A 
ATOM      5  C   UNL     1      -4.230  11.711  18.045  0.00  0.00    +0.000 A 
ATOM      6  C   UNL     1      -4.377  11.414  16.695  0.00  0.00    +0.000 A 
ATOM      7  C   UNL     1      -3.397  10.680  16.013  0.00  0.00    +0.000 A 
ATOM      8  C   UNL     1      -2.273  10.121  16.676  0.00  0.00    +0.000 A 
ATOM      9  C   UNL     1      -2.053  10.478  18.021  0.00  0.00    +0.000 A 
ENDROOT
BRANCH   1  12
ATOM     10  C   UNL     1       0.337   9.016  20.480  0.00  0.00    +0.000 C 
ATOM     11  O   UNL     1      -0.580   8.841  21.284  0.00  0.00    +0.000 OA
ATOM     12  N   UNL     1       0.181   9.688  19.250  0.00  0.00    +0.000 N 
ATOM     13  H   UNL     1       0.997  10.016  18.747  0.00  0.00    +0.000 HD
BRANCH  10  14
ATOM     14  C   UNL     1       1.701   8.394  20.777  0.00  0.00    +0.000 C 
BRANCH  14  18
ATOM     15  C   UNL     1       2.483   4.445  19.073  0.00  0.00    +0.000 A 
ATOM     16  C   UNL     1       1.732   4.570  20.260  0.00  0.00    +0.000 A 
ATOM     17  C   UNL     1       1.480   5.828  20.831  0.00  0.00    +0.000 A 
ATOM     18  C   UNL     1       1.983   6.994  20.255  0.00  0.00    +0.000 A 
ATOM     19  C   UNL     1       2.710   6.860  19.059  0.00  0.00    +0.000 A 
ATOM     20  C   UNL     1       2.974   5.607  18.465  0.00  0.00    +0.000 A 
BRANCH  15  22
ATOM     21  C   UNL     1       3.904   2.531  18.966  0.00  0.00    +0.000 C 
ATOM     22  O   UNL     1       2.757   3.231  18.500  0.00  0.00    +0.000 OA
ENDBRANCH  15  22
BRANCH  20  23
ATOM     23  O   UNL     1       3.706   5.724  17.316  0.00  0.00    +0.000 OA
ATOM     24  C   UNL     1       4.744   6.693  17.232  0.00  0.00    +0.000 C 
ENDBRANCH  20  23
ENDBRANCH  14  18
ENDBRANCH  10  14
ENDBRANCH   1  12
BRANCH   2  25
ATOM     25  C   UNL     1      -0.195  12.669  18.775  0.00  0.00    +0.000 C 
ATOM     26  O   UNL     1      -0.565  13.345  17.818  0.00  0.00    +0.000 OA
ATOM     27  N   UNL     1       0.986  12.860  19.446  0.00  0.00    +0.000 N 
ATOM     28  H   UNL     1       1.215  12.157  20.135  0.00  0.00    +0.000 HD
BRANCH  27  29
ATOM     29  C   UNL     1       1.880  13.913  19.231  0.00  0.00    +0.000 A 
ATOM     30  C   UNL     1       1.738  15.176  19.817  0.00  0.00    +0.000 A 
ATOM     31  C   UNL     1       2.637  16.196  19.502  0.00  0.00    +0.000 A 
ATOM     32  C   UNL     1       3.677  15.939  18.616  0.00  0.00    +0.000 A 
ATOM     33  F   UNL     1       4.527  16.916  18.288  0.00  0.00    +0.000 F 
ATOM     34  C   UNL     1       3.848  14.670  18.067  0.00  0.00    +0.000 A 
ATOM     35  C   UNL     1       2.962  13.649  18.393  0.00  0.00    +0.000 A 
ENDBRANCH  27  29
ENDBRANCH   2  25
TORSDOF 7
ENDMDL
