MODEL 1
REMARK VINA RESULT:      -8.0      0.000      0.000
REMARK  Name = 
REMARK  11 active torsions:
REMARK  status: ('A' for Active; 'I' for Inactive)
REMARK    1  A    between atoms: C_1  and  C_2
REMARK    2  A    between atoms: C_7  and  C_8
REMARK    3  A    between atoms: N_10  and  C_11
REMARK    4  A    between atoms: C_11  and  C_12
REMARK    5  A    between atoms: C_15  and  C_16
REMARK    6  A    between atoms: C_16  and  N_17
REMARK    7  A    between atoms: C_18  and  O_20
REMARK    8  A    between atoms: O_20  and  C_21
REMARK    9  A    between atoms: C_21  and  C_22
REMARK   10  A    between atoms: C_21  and  C_23
REMARK   11  A    between atoms: C_21  and  C_24
REMARK                            x       y       z     vdW  Elec       q    Type
REMARK                         _______ _______ _______ _____ _____    ______ ____
ROOT
ATOM      1  C   UNL     1       0.663  10.975  18.607  0.00  0.00    +0.000 C 
ENDROOT
BRANCH   1   2
ATOM      2  C   UNL     1       1.198   9.607  18.952  0.00  0.00    +0.000 A 
ATOM      3  C   UNL     1       1.893   8.852  18.001  0.00  0.00    +0.000 A 
ATOM      4  C   UNL     1       2.396   7.591  18.328  0.00  0.00    +0.000 A 
ATOM      5  C   UNL     1       2.199   7.051  19.606  0.00  0.00    +0.000 A 
ATOM      6  C   UNL     1       1.500   7.804  20.559  0.00  0.00    +0.000 A 
ATOM      7  C   UNL     1       0.997   9.065  20.232  0.00  0.00    +0.000 A 
BRANCH   5   8
ATOM      8  C   UNL     1       2.699   5.674  19.930  0.00  0.00    +0.000 C 
BRANCH   8   9
ATOM      9  N   UNL     1       4.131   5.548  19.835  0.00  0.00    +0.000 N 
ATOM     10  C   UNL     1       4.652   4.655  18.946  0.00  0.00    +0.000 C 
ATOM     11  O   UNL     1       3.966   3.995  18.180  0.00  0.00    +0.000 OA
ATOM     12  H   UNL     1       4.752   6.051  20.449  0.00  0.00    +0.000 HD
BRANCH  10  13
ATOM     13  O   UNL     1       6.004   4.603  19.037  0.00  0.00    +0.000 OA
BRANCH  13  14
ATOM     14  C   UNL     1       6.793   5.443  18.149  0.00  0.00    +0.000 C 
ATOM     15  C   UNL     1       7.891   6.188  18.923  0.00  0.00    +0.000 C 
ATOM     16  C   UNL     1       7.476   4.496  17.149  0.00  0.00    +0.000 C 
ATOM     17  C   UNL     1       5.900   6.403  17.347  0.00  0.00    +0.000 C 
ENDBRANCH  13  14
ENDBRANCH  10  13
ENDBRANCH   8   9
ENDBRANCH   5   8
ENDBRANCH   1   2
BRANCH   1  20
ATOM     18  C   UNL     1      -1.115  12.453  19.424  0.00  0.00    +0.000 C 
ATOM     19  O   UNL     1      -0.414  13.450  19.298  0.00  0.00    +0.000 OA
ATOM     20  N   UNL     1      -0.663  11.193  19.122  0.00  0.00    +0.000 N 
ATOM     21  H   UNL     1      -1.306  10.423  19.273  0.00  0.00    +0.000 HD
BRANCH  18  28
ATOM     22  C   UNL     1      -7.047  12.509  17.603  0.00  0.00    +0.000 C 
ATOM     23  C   UNL     1      -6.298  11.410  18.354  0.00  0.00    +0.000 C 
ATOM     24  C   UNL     1      -6.037  11.798  19.822  0.00  0.00    +0.000 C 
ATOM     25  N   UNL     1      -4.675  12.221  20.066  0.00  0.00    +0.000 N 
ATOM     26  C   UNL     1      -4.177  12.729  21.226  0.00  0.00    +0.000 A 
ATOM     27  N   UNL     1      -2.880  12.922  21.139  0.00  0.00    +0.000 NA
ATOM     28  C   UNL     1      -2.519  12.484  19.860  0.00  0.00    +0.000 A 
ATOM     29  C   UNL     1      -3.649  12.057  19.171  0.00  0.00    +0.000 A 
ATOM     30  C   UNL     1      -3.836  11.498  17.862  0.00  0.00    +0.000 C 
ATOM     31  O   UNL     1      -2.995  11.386  16.980  0.00  0.00    +0.000 OA
ATOM     32  N   UNL     1      -5.104  11.033  17.612  0.00  0.00    +0.000 N 
ATOM     33  H   UNL     1      -5.197  10.678  16.666  0.00  0.00    +0.000 HD
ENDBRANCH  18  28
ENDBRANCH   1  20
TORSDOF 7
ENDMDL
MODEL 2
REMARK VINA RESULT:      -7.9      1.556      2.606
REMARK  Name = 
REMARK  11 active torsions:
REMARK  status: ('A' for Active; 'I' for Inactive)
REMARK    1  A    between atoms: C_1  and  C_2
REMARK    2  A    between atoms: C_7  and  C_8
REMARK    3  A    between atoms: N_10  and  C_11
REMARK    4  A    between atoms: C_11  and  C_12
REMARK    5  A    between atoms: C_15  and  C_16
REMARK    6  A    between atoms: C_16  and  N_17
REMARK    7  A    between atoms: C_18  and  O_20
REMARK    8  A    between atoms: O_20  and  C_21
REMARK    9  A    between atoms: C_21  and  C_22
REMARK   10  A    between atoms: C_21  and  C_23
REMARK   11  A    between atoms: C_21  and  C_24
REMARK                            x       y       z     vdW  Elec       q    Type
REMARK                         _______ _______ _______ _____ _____    ______ ____
ROOT
ATOM      1  C   UNL     1       0.867   9.934  19.964  0.00  0.00    +0.000 C 
ENDROOT
BRANCH   1   2
ATOM      2  C   UNL     1       1.424   8.539  19.839  0.00  0.00    +0.000 A 
ATOM      3  C   UNL     1       1.273   7.614  20.878  0.00  0.00    +0.000 A 
ATOM      4  C   UNL     1       1.781   6.319  20.754  0.00  0.00    +0.000 A 
ATOM      5  C   UNL     1       2.465   5.927  19.596  0.00  0.00    +0.000 A 
ATOM      6  C   UNL     1       2.620   6.852  18.555  0.00  0.00    +0.000 A 
ATOM      7  C   UNL     1       2.113   8.147  18.680  0.00  0.00    +0.000 A 
BRANCH   5   8
ATOM      8  C   UNL     1       3.051   4.550  19.494  0.00  0.00    +0.000 C 
BRANCH   8   9
ATOM      9  N   UNL     1       3.454   4.196  18.157  0.00  0.00    +0.000 N 
ATOM     10  C   UNL     1       4.771   3.941  17.916  0.00  0.00    +0.000 C 
ATOM     11  O   UNL     1       5.625   3.940  18.792  0.00  0.00    +0.000 OA
ATOM     12  H   UNL     1       2.803   4.194  17.388  0.00  0.00    +0.000 HD
BRANCH  10  13
ATOM     13  O   UNL     1       4.993   3.702  16.600  0.00  0.00    +0.000 OA
BRANCH  13  14
ATOM     14  C   UNL     1       5.798   4.653  15.847  0.00  0.00    +0.000 C 
ATOM     15  C   UNL     1       5.263   6.083  16.012  0.00  0.00    +0.000 C 
ATOM     16  C   UNL     1       7.210   4.601  16.454  0.00  0.00    +0.000 C 
ATOM     17  C   UNL     1       5.911   4.244  14.370  0.00  0.00    +0.000 C 
ENDBRANCH  13  14
ENDBRANCH  10  13
ENDBRANCH   8   9
ENDBRANCH   5   8
ENDBRANCH   1   2
BRANCH   1  20
ATOM     18  C   UNL     1      -0.708  11.242  18.614  0.00  0.00    +0.000 C 
ATOM     19  O   UNL     1       0.044  12.209  18.581  0.00  0.00    +0.000 OA
ATOM     20  N   UNL     1      -0.392  10.086  19.284  0.00  0.00    +0.000 N 
ATOM     21  H   UNL     1      -1.083   9.343  19.273  0.00  0.00    +0.000 HD
BRANCH  18  28
ATOM     22  C   UNL     1      -6.881  11.454  19.224  0.00  0.00    +0.000 C 
ATOM     23  C   UNL     1      -5.963  12.456  18.525  0.00  0.00    +0.000 C 
ATOM     24  C   UNL     1      -5.434  11.907  17.186  0.00  0.00    +0.000 C 
ATOM     25  N   UNL     1      -4.065  11.445  17.260  0.00  0.00    +0.000 N 
ATOM     26  C   UNL     1      -3.368  10.808  16.282  0.00  0.00    +0.000 A 
ATOM     27  N   UNL     1      -2.120  10.610  16.642  0.00  0.00    +0.000 NA
ATOM     28  C   UNL     1      -2.001  11.180  17.914  0.00  0.00    +0.000 A 
ATOM     29  C   UNL     1      -3.228  11.693  18.319  0.00  0.00    +0.000 A 
ATOM     30  C   UNL     1      -3.648  12.394  19.499  0.00  0.00    +0.000 C 
ATOM     31  O   UNL     1      -2.993  12.590  20.514  0.00  0.00    +0.000 OA
ATOM     32  N   UNL     1      -4.925  12.897  19.445  0.00  0.00    +0.000 N 
ATOM     33  H   UNL     1      -5.189  13.354  20.311  0.00  0.00    +0.000 HD
ENDBRANCH  18  28
ENDBRANCH   1  20
TORSDOF 7
ENDMDL
MODEL 3
REMARK VINA RESULT:      -7.9      1.260      2.207
REMARK  Name = 
REMARK  11 active torsions:
REMARK  status: ('A' for Active; 'I' for Inactive)
REMARK    1  A    between atoms: C_1  and  C_2
REMARK    2  A    between atoms: C_7  and  C_8
REMARK    3  A    between atoms: N_10  and  C_11
REMARK    4  A    between atoms: C_11  and  C_12
REMARK    5  A    between atoms: C_15  and  C_16
REMARK    6  A    between atoms: C_16  and  N_17
REMARK    7  A    between atoms: C_18  and  O_20
REMARK    8  A    between atoms: O_20  and  C_21
REMARK    9  A    between atoms: C_21  and  C_22
REMARK   10  A    between atoms: C_21  and  C_23
REMARK   11  A    between atoms: C_21  and  C_24
REMARK                            x       y       z     vdW  Elec       q    Type
REMARK                         _______ _______ _______ _____ _____    ______ ____
ROOT
ATOM      1  C   UNL     1       0.639  10.796  19.136  0.00  0.00    +0.000 C 
ENDROOT
BRANCH   1   2
ATOM      2  C   UNL     1       1.260   9.424  19.228  0.00  0.00    +0.000 A 
ATOM      3  C   UNL     1       1.876   8.843  18.114  0.00  0.00    +0.000 A 
ATOM      4  C   UNL     1       2.458   7.578  18.205  0.00  0.00    +0.000 A 
ATOM      5  C   UNL     1       2.423   6.860  19.408  0.00  0.00    +0.000 A 
ATOM      6  C   UNL     1       1.804   7.438  20.524  0.00  0.00    +0.000 A 
ATOM      7  C   UNL     1       1.220   8.703  20.432  0.00  0.00    +0.000 A 
BRANCH   5   8
ATOM      8  C   UNL     1       3.008   5.480  19.481  0.00  0.00    +0.000 C 
BRANCH   8   9
ATOM      9  N   UNL     1       4.341   5.393  18.941  0.00  0.00    +0.000 N 
ATOM     10  C   UNL     1       4.551   4.624  17.836  0.00  0.00    +0.000 C 
ATOM     11  O   UNL     1       3.652   4.048  17.240  0.00  0.00    +0.000 OA
ATOM     12  H   UNL     1       5.128   5.831  19.394  0.00  0.00    +0.000 HD
BRANCH  10  13
ATOM     13  O   UNL     1       5.866   4.587  17.505  0.00  0.00    +0.000 OA
BRANCH  13  14
ATOM     14  C   UNL     1       6.372   5.571  16.560  0.00  0.00    +0.000 C 
ATOM     15  C   UNL     1       7.101   4.891  15.391  0.00  0.00    +0.000 C 
ATOM     16  C   UNL     1       5.143   6.300  15.993  0.00  0.00    +0.000 C 
ATOM     17  C   UNL     1       7.253   6.617  17.260  0.00  0.00    +0.000 C 
ENDBRANCH  13  14
ENDBRANCH  10  13
ENDBRANCH   8   9
ENDBRANCH   5   8
ENDBRANCH   1   2
BRANCH   1  20
ATOM     18  C   UNL     1      -1.374  11.858  18.222  0.00  0.00    +0.000 C 
ATOM     19  O   UNL     1      -0.817  12.944  18.121  0.00  0.00    +0.000 OA
ATOM     20  N   UNL     1      -0.739  10.749  18.725  0.00  0.00    +0.000 N 
ATOM     21  H   UNL     1      -1.283   9.895  18.788  0.00  0.00    +0.000 HD
BRANCH  18  28
ATOM     22  C   UNL     1      -7.226  10.854  20.027  0.00  0.00    +0.000 C 
ATOM     23  C   UNL     1      -6.662  12.054  19.268  0.00  0.00    +0.000 C 
ATOM     24  C   UNL     1      -6.335  11.701  17.804  0.00  0.00    +0.000 C 
ATOM     25  N   UNL     1      -4.922  11.504  17.567  0.00  0.00    +0.000 N 
ATOM     26  C   UNL     1      -4.343  11.074  16.414  0.00  0.00    +0.000 A 
ATOM     27  N   UNL     1      -3.033  11.094  16.506  0.00  0.00    +0.000 NA
ATOM     28  C   UNL     1      -2.753  11.595  17.782  0.00  0.00    +0.000 A 
ATOM     29  C   UNL     1      -3.939  11.839  18.464  0.00  0.00    +0.000 A 
ATOM     30  C   UNL     1      -4.220  12.372  19.767  0.00  0.00    +0.000 C 
ATOM     31  O   UNL     1      -3.412  12.625  20.651  0.00  0.00    +0.000 OA
ATOM     32  N   UNL     1      -5.548  12.626  20.010  0.00  0.00    +0.000 N 
ATOM     33  H   UNL     1      -5.702  12.968  20.952  0.00  0.00    +0.000 HD
ENDBRANCH  18  28
ENDBRANCH   1  20
TORSDOF 7
ENDMDL
MODEL 4
REMARK VINA RESULT:      -7.8      1.206      2.283
REMARK  Name = 
REMARK  11 active torsions:
REMARK  status: ('A' for Active; 'I' for Inactive)
REMARK    1  A    between atoms: C_1  and  C_2
REMARK    2  A    between atoms: C_7  and  C_8
REMARK    3  A    between atoms: N_10  and  C_11
REMARK    4  A    between atoms: C_11  and  C_12
REMARK    5  A    between atoms: C_15  and  C_16
REMARK    6  A    between atoms: C_16  and  N_17
REMARK    7  A    between atoms: C_18  and  O_20
REMARK    8  A    between atoms: O_20  and  C_21
REMARK    9  A    between atoms: C_21  and  C_22
REMARK   10  A    between atoms: C_21  and  C_23
REMARK   11  A    between atoms: C_21  and  C_24
REMARK                            x       y       z     vdW  Elec       q    Type
REMARK                         _______ _______ _______ _____ _____    ______ ____
ROOT
ATOM      1  C   UNL     1       0.798  10.770  18.483  0.00  0.00    +0.000 C 
ENDROOT
BRANCH   1   2
ATOM      2  C   UNL     1       1.318   9.414  18.891  0.00  0.00    +0.000 A 
ATOM      3  C   UNL     1       1.168   8.957  20.205  0.00  0.00    +0.000 A 
ATOM      4  C   UNL     1       1.641   7.697  20.576  0.00  0.00    +0.000 A 
ATOM      5  C   UNL     1       2.288   6.874  19.645  0.00  0.00    +0.000 A 
ATOM      6  C   UNL     1       2.442   7.330  18.329  0.00  0.00    +0.000 A 
ATOM      7  C   UNL     1       1.971   8.591  17.959  0.00  0.00    +0.000 A 
BRANCH   5   8
ATOM      8  C   UNL     1       2.837   5.543  20.067  0.00  0.00    +0.000 C 
BRANCH   8   9
ATOM      9  N   UNL     1       4.145   5.265  19.528  0.00  0.00    +0.000 N 
ATOM     10  C   UNL     1       4.264   4.316  18.557  0.00  0.00    +0.000 C 
ATOM     11  O   UNL     1       3.308   3.727  18.074  0.00  0.00    +0.000 OA
ATOM     12  H   UNL     1       4.975   5.704  19.894  0.00  0.00    +0.000 HD
BRANCH  10  13
ATOM     13  O   UNL     1       5.562   4.122  18.217  0.00  0.00    +0.000 OA
BRANCH  13  14
ATOM     14  C   UNL     1       6.039   4.666  16.954  0.00  0.00    +0.000 C 
ATOM     15  C   UNL     1       5.542   6.105  16.750  0.00  0.00    +0.000 C 
ATOM     16  C   UNL     1       7.573   4.702  17.049  0.00  0.00    +0.000 C 
ATOM     17  C   UNL     1       5.665   3.754  15.775  0.00  0.00    +0.000 C 
ENDBRANCH  13  14
ENDBRANCH  10  13
ENDBRANCH   8   9
ENDBRANCH   5   8
ENDBRANCH   1   2
BRANCH   1  20
ATOM     18  C   UNL     1      -1.414  11.823  18.375  0.00  0.00    +0.000 C 
ATOM     19  O   UNL     1      -1.007  12.850  18.905  0.00  0.00    +0.000 OA
ATOM     20  N   UNL     1      -0.600  10.743  18.142  0.00  0.00    +0.000 N 
ATOM     21  H   UNL     1      -1.026   9.927  17.715  0.00  0.00    +0.000 HD
BRANCH  18  28
ATOM     22  C   UNL     1      -7.355  11.014  19.978  0.00  0.00    +0.000 C 
ATOM     23  C   UNL     1      -6.717  12.214  19.279  0.00  0.00    +0.000 C 
ATOM     24  C   UNL     1      -6.363  11.899  17.813  0.00  0.00    +0.000 C 
ATOM     25  N   UNL     1      -4.953  11.648  17.609  0.00  0.00    +0.000 N 
ATOM     26  C   UNL     1      -4.360  11.235  16.457  0.00  0.00    +0.000 A 
ATOM     27  N   UNL     1      -3.053  11.194  16.586  0.00  0.00    +0.000 NA
ATOM     28  C   UNL     1      -2.789  11.637  17.887  0.00  0.00    +0.000 A 
ATOM     29  C   UNL     1      -3.984  11.909  18.544  0.00  0.00    +0.000 A 
ATOM     30  C   UNL     1      -4.280  12.406  19.858  0.00  0.00    +0.000 C 
ATOM     31  O   UNL     1      -3.489  12.592  20.773  0.00  0.00    +0.000 OA
ATOM     32  N   UNL     1      -5.602  12.710  20.073  0.00  0.00    +0.000 N 
ATOM     33  H   UNL     1      -5.769  13.025  21.022  0.00  0.00    +0.000 HD
ENDBRANCH  18  28
ENDBRANCH   1  20
TORSDOF 7
ENDMDL
MODEL 5
REMARK VINA RESULT:      -7.8      1.567      2.250
REMARK  Name = 
REMARK  11 active torsions:
REMARK  status: ('A' for Active; 'I' for Inactive)
REMARK    1  A    between atoms: C_1  and  C_2
REMARK    2  A    between atoms: C_7  and  C_8
REMARK    3  A    between atoms: N_10  and  C_11
REMARK    4  A    between atoms: C_11  and  C_12
REMARK    5  A    between atoms: C_15  and  C_16
REMARK    6  A    between atoms: C_16  and  N_17
REMARK    7  A    between atoms: C_18  and  O_20
REMARK    8  A    between atoms: O_20  and  C_21
REMARK    9  A    between atoms: C_21  and  C_22
REMARK   10  A    between atoms: C_21  and  C_23
REMARK   11  A    between atoms: C_21  and  C_24
REMARK                            x       y       z     vdW  Elec       q    Type
REMARK                         _______ _______ _______ _____ _____    ______ ____
ROOT
ATOM      1  C   UNL     1       1.155  10.604  18.679  0.00  0.00    +0.000 C 
ENDROOT
BRANCH   1   2
ATOM      2  C   UNL     1       1.606   9.178  18.868  0.00  0.00    +0.000 A 
ATOM      3  C   UNL     1       2.037   8.415  17.776  0.00  0.00    +0.000 A 
ATOM      4  C   UNL     1       2.464   7.098  17.956  0.00  0.00    +0.000 A 
ATOM      5  C   UNL     1       2.454   6.510  19.228  0.00  0.00    +0.000 A 
ATOM      6  C   UNL     1       2.021   7.271  20.322  0.00  0.00    +0.000 A 
ATOM      7  C   UNL     1       1.592   8.588  20.142  0.00  0.00    +0.000 A 
BRANCH   5   8
ATOM      8  C   UNL     1       2.868   5.079  19.401  0.00  0.00    +0.000 C 
BRANCH   8   9
ATOM      9  N   UNL     1       3.803   4.627  18.402  0.00  0.00    +0.000 N 
ATOM     10  C   UNL     1       5.135   4.817  18.620  0.00  0.00    +0.000 C 
ATOM     11  O   UNL     1       5.585   5.300  19.649  0.00  0.00    +0.000 OA
ATOM     12  H   UNL     1       3.498   4.237  17.525  0.00  0.00    +0.000 HD
BRANCH  10  13
ATOM     13  O   UNL     1       5.870   4.410  17.555  0.00  0.00    +0.000 OA
BRANCH  13  14
ATOM     14  C   UNL     1       6.345   5.414  16.614  0.00  0.00    +0.000 C 
ATOM     15  C   UNL     1       7.357   6.359  17.279  0.00  0.00    +0.000 C 
ATOM     16  C   UNL     1       7.073   4.649  15.496  0.00  0.00    +0.000 C 
ATOM     17  C   UNL     1       5.176   6.177  15.972  0.00  0.00    +0.000 C 
ENDBRANCH  13  14
ENDBRANCH  10  13
ENDBRANCH   8   9
ENDBRANCH   5   8
ENDBRANCH   1   2
BRANCH   1  20
ATOM     18  C   UNL     1      -1.294  10.550  18.806  0.00  0.00    +0.000 C 
ATOM     19  O   UNL     1      -1.278  10.314  20.008  0.00  0.00    +0.000 OA
ATOM     20  N   UNL     1      -0.145  10.693  18.068  0.00  0.00    +0.000 N 
ATOM     21  H   UNL     1      -0.253  10.869  17.075  0.00  0.00    +0.000 HD
BRANCH  18  28
ATOM     22  C   UNL     1      -7.279  12.182  18.994  0.00  0.00    +0.000 C 
ATOM     23  C   UNL     1      -6.117  12.918  18.329  0.00  0.00    +0.000 C 
ATOM     24  C   UNL     1      -5.649  12.206  17.045  0.00  0.00    +0.000 C 
ATOM     25  N   UNL     1      -4.430  11.449  17.225  0.00  0.00    +0.000 N 
ATOM     26  C   UNL     1      -3.841  10.629  16.313  0.00  0.00    +0.000 A 
ATOM     27  N   UNL     1      -2.695  10.169  16.763  0.00  0.00    +0.000 NA
ATOM     28  C   UNL     1      -2.523  10.752  18.023  0.00  0.00    +0.000 A 
ATOM     29  C   UNL     1      -3.622  11.547  18.329  0.00  0.00    +0.000 A 
ATOM     30  C   UNL     1      -3.939  12.375  19.458  0.00  0.00    +0.000 C 
ATOM     31  O   UNL     1      -3.317  12.462  20.508  0.00  0.00    +0.000 OA
ATOM     32  N   UNL     1      -5.061  13.152  19.303  0.00  0.00    +0.000 N 
ATOM     33  H   UNL     1      -5.264  13.694  20.136  0.00  0.00    +0.000 HD
ENDBRANCH  18  28
ENDBRANCH   1  20
TORSDOF 7
ENDMDL
MODEL 6
REMARK VINA RESULT:      -7.8      1.312      2.306
REMARK  Name = 
REMARK  11 active torsions:
REMARK  status: ('A' for Active; 'I' for Inactive)
REMARK    1  A    between atoms: C_1  and  C_2
REMARK    2  A    between atoms: C_7  and  C_8
REMARK    3  A    between atoms: N_10  and  C_11
REMARK    4  A    between atoms: C_11  and  C_12
REMARK    5  A    between atoms: C_15  and  C_16
REMARK    6  A    between atoms: C_16  and  N_17
REMARK    7  A    between atoms: C_18  and  O_20
REMARK    8  A    between atoms: O_20  and  C_21
REMARK    9  A    between atoms: C_21  and  C_22
REMARK   10  A    between atoms: C_21  and  C_23
REMARK   11  A    between atoms: C_21  and  C_24
REMARK                            x       y       z     vdW  Elec       q    Type
REMARK                         _______ _______ _______ _____ _____    ______ ____
ROOT
ATOM      1  C   UNL     1       0.172  11.110  19.897  0.00  0.00    +0.000 C 
ENDROOT
BRANCH   1   2
ATOM      2  C   UNL     1       0.864   9.772  19.825  0.00  0.00    +0.000 A 
ATOM      3  C   UNL     1       0.909   8.931  20.943  0.00  0.00    +0.000 A 
ATOM      4  C   UNL     1       1.541   7.688  20.870  0.00  0.00    +0.000 A 
ATOM      5  C   UNL     1       2.155   7.267  19.683  0.00  0.00    +0.000 A 
ATOM      6  C   UNL     1       2.113   8.108  18.563  0.00  0.00    +0.000 A 
ATOM      7  C   UNL     1       1.483   9.351  18.637  0.00  0.00    +0.000 A 
BRANCH   5   8
ATOM      8  C   UNL     1       2.875   5.951  19.630  0.00  0.00    +0.000 C 
BRANCH   8   9
ATOM      9  N   UNL     1       3.523   5.702  18.367  0.00  0.00    +0.000 N 
ATOM     10  C   UNL     1       4.709   5.032  18.362  0.00  0.00    +0.000 C 
ATOM     11  O   UNL     1       5.227   4.576  19.372  0.00  0.00    +0.000 OA
ATOM     12  H   UNL     1       3.157   6.065  17.501  0.00  0.00    +0.000 HD
BRANCH  10  13
ATOM     13  O   UNL     1       5.222   4.950  17.109  0.00  0.00    +0.000 OA
BRANCH  13  14
ATOM     14  C   UNL     1       6.575   5.436  16.879  0.00  0.00    +0.000 C 
ATOM     15  C   UNL     1       7.607   4.559  17.605  0.00  0.00    +0.000 C 
ATOM     16  C   UNL     1       6.827   5.315  15.367  0.00  0.00    +0.000 C 
ATOM     17  C   UNL     1       6.709   6.919  17.257  0.00  0.00    +0.000 C 
ENDBRANCH  13  14
ENDBRANCH  10  13
ENDBRANCH   8   9
ENDBRANCH   5   8
ENDBRANCH   1   2
BRANCH   1  20
ATOM     18  C   UNL     1      -1.617  11.927  18.433  0.00  0.00    +0.000 C 
ATOM     19  O   UNL     1      -0.901  12.803  17.962  0.00  0.00    +0.000 OA
ATOM     20  N   UNL     1      -1.177  11.058  19.400  0.00  0.00    +0.000 N 
ATOM     21  H   UNL     1      -1.844  10.376  19.745  0.00  0.00    +0.000 HD
BRANCH  18  28
ATOM     22  C   UNL     1      -7.457  10.879  20.254  0.00  0.00    +0.000 C 
ATOM     23  C   UNL     1      -6.899  12.093  19.513  0.00  0.00    +0.000 C 
ATOM     24  C   UNL     1      -6.580  11.766  18.041  0.00  0.00    +0.000 C 
ATOM     25  N   UNL     1      -5.168  11.576  17.793  0.00  0.00    +0.000 N 
ATOM     26  C   UNL     1      -4.596  11.167  16.629  0.00  0.00    +0.000 A 
ATOM     27  N   UNL     1      -3.284  11.189  16.713  0.00  0.00    +0.000 NA
ATOM     28  C   UNL     1      -2.998  11.669  17.996  0.00  0.00    +0.000 A 
ATOM     29  C   UNL     1      -4.181  11.899  18.689  0.00  0.00    +0.000 A 
ATOM     30  C   UNL     1      -4.456  12.408  20.003  0.00  0.00    +0.000 C 
ATOM     31  O   UNL     1      -3.643  12.648  20.887  0.00  0.00    +0.000 OA
ATOM     32  N   UNL     1      -5.782  12.655  20.258  0.00  0.00    +0.000 N 
ATOM     33  H   UNL     1      -5.932  12.981  21.207  0.00  0.00    +0.000 HD
ENDBRANCH  18  28
ENDBRANCH   1  20
TORSDOF 7
ENDMDL
MODEL 7
REMARK VINA RESULT:      -7.7      0.810      1.141
REMARK  Name = 
REMARK  11 active torsions:
REMARK  status: ('A' for Active; 'I' for Inactive)
REMARK    1  A    between atoms: C_1  and  C_2
REMARK    2  A    between atoms: C_7  and  C_8
REMARK    3  A    between atoms: N_10  and  C_11
REMARK    4  A    between atoms: C_11  and  C_12
REMARK    5  A    between atoms: C_15  and  C_16
REMARK    6  A    between atoms: C_16  and  N_17
REMARK    7  A    between atoms: C_18  and  O_20
REMARK    8  A    between atoms: O_20  and  C_21
REMARK    9  A    between atoms: C_21  and  C_22
REMARK   10  A    between atoms: C_21  and  C_23
REMARK   11  A    between atoms: C_21  and  C_24
REMARK                            x       y       z     vdW  Elec       q    Type
REMARK                         _______ _______ _______ _____ _____    ______ ____
ROOT
ATOM      1  C   UNL     1       0.645  11.227  18.699  0.00  0.00    +0.000 C 
ENDROOT
BRANCH   1   2
ATOM      2  C   UNL     1       1.200   9.849  18.957  0.00  0.00    +0.000 A 
ATOM      3  C   UNL     1       1.878   9.153  17.949  0.00  0.00    +0.000 A 
ATOM      4  C   UNL     1       2.400   7.881  18.195  0.00  0.00    +0.000 A 
ATOM      5  C   UNL     1       2.240   7.272  19.446  0.00  0.00    +0.000 A 
ATOM      6  C   UNL     1       1.560   7.965  20.455  0.00  0.00    +0.000 A 
ATOM      7  C   UNL     1       1.036   9.237  20.210  0.00  0.00    +0.000 A 
BRANCH   5   8
ATOM      8  C   UNL     1       2.761   5.885  19.683  0.00  0.00    +0.000 C 
BRANCH   8   9
ATOM      9  N   UNL     1       3.212   5.229  18.482  0.00  0.00    +0.000 N 
ATOM     10  C   UNL     1       4.493   4.769  18.429  0.00  0.00    +0.000 C 
ATOM     11  O   UNL     1       5.268   4.830  19.373  0.00  0.00    +0.000 OA
ATOM     12  H   UNL     1       2.629   5.160  17.662  0.00  0.00    +0.000 HD
BRANCH  10  13
ATOM     13  O   UNL     1       4.780   4.251  17.208  0.00  0.00    +0.000 OA
BRANCH  13  14
ATOM     14  C   UNL     1       5.679   4.991  16.334  0.00  0.00    +0.000 C 
ATOM     15  C   UNL     1       5.509   6.506  16.521  0.00  0.00    +0.000 C 
ATOM     16  C   UNL     1       7.107   4.616  16.765  0.00  0.00    +0.000 C 
ATOM     17  C   UNL     1       5.508   4.566  14.867  0.00  0.00    +0.000 C 
ENDBRANCH  13  14
ENDBRANCH  10  13
ENDBRANCH   8   9
ENDBRANCH   5   8
ENDBRANCH   1   2
BRANCH   1  20
ATOM     18  C   UNL     1      -1.215  12.632  19.463  0.00  0.00    +0.000 C 
ATOM     19  O   UNL     1      -0.577  13.662  19.284  0.00  0.00    +0.000 OA
ATOM     20  N   UNL     1      -0.688  11.388  19.217  0.00  0.00    +0.000 N 
ATOM     21  H   UNL     1      -1.282  10.589  19.411  0.00  0.00    +0.000 HD
BRANCH  18  28
ATOM     22  C   UNL     1      -7.159  12.402  17.696  0.00  0.00    +0.000 C 
ATOM     23  C   UNL     1      -6.352  11.342  18.443  0.00  0.00    +0.000 C 
ATOM     24  C   UNL     1      -6.096  11.747  19.908  0.00  0.00    +0.000 C 
ATOM     25  N   UNL     1      -4.754  12.234  20.139  0.00  0.00    +0.000 N 
ATOM     26  C   UNL     1      -4.271  12.768  21.292  0.00  0.00    +0.000 A 
ATOM     27  N   UNL     1      -2.985  13.023  21.193  0.00  0.00    +0.000 NA
ATOM     28  C   UNL     1      -2.615  12.598  19.912  0.00  0.00    +0.000 A 
ATOM     29  C   UNL     1      -3.729  12.115  19.235  0.00  0.00    +0.000 A 
ATOM     30  C   UNL     1      -3.901  11.544  17.929  0.00  0.00    +0.000 C 
ATOM     31  O   UNL     1      -3.064  11.469  17.039  0.00  0.00    +0.000 OA
ATOM     32  N   UNL     1      -5.148  11.019  17.692  0.00  0.00    +0.000 N 
ATOM     33  H   UNL     1      -5.233  10.657  16.748  0.00  0.00    +0.000 HD
ENDBRANCH  18  28
ENDBRANCH   1  20
TORSDOF 7
ENDMDL
MODEL 8
REMARK VINA RESULT:      -7.7      1.512      2.574
REMARK  Name = 
REMARK  11 active torsions:
REMARK  status: ('A' for Active; 'I' for Inactive)
REMARK    1  A    between atoms: C_1  and  C_2
REMARK    2  A    between atoms: C_7  and  C_8
REMARK    3  A    between atoms: N_10  and  C_11
REMARK    4  A    between atoms: C_11  and  C_12
REMARK    5  A    between atoms: C_15  and  C_16
REMARK    6  A    between atoms: C_16  and  N_17
REMARK    7  A    between atoms: C_18  and  O_20
REMARK    8  A    between atoms: O_20  and  C_21
REMARK    9  A    between atoms: C_21  and  C_22
REMARK   10  A    between atoms: C_21  and  C_23
REMARK   11  A    between atoms: C_21  and  C_24
REMARK                            x       y       z     vdW  Elec       q    Type
REMARK                         _______ _______ _______ _____ _____    ______ ____
ROOT
ATOM      1  C   UNL     1       1.196  10.726  18.672  0.00  0.00    +0.000 C 
ENDROOT
BRANCH   1   2
ATOM      2  C   UNL     1       1.636   9.304  18.912  0.00  0.00    +0.000 A 
ATOM      3  C   UNL     1       1.505   8.719  20.177  0.00  0.00    +0.000 A 
ATOM      4  C   UNL     1       1.904   7.399  20.392  0.00  0.00    +0.000 A 
ATOM      5  C   UNL     1       2.456   6.640  19.352  0.00  0.00    +0.000 A 
ATOM      6  C   UNL     1       2.590   7.223  18.085  0.00  0.00    +0.000 A 
ATOM      7  C   UNL     1       2.193   8.544  17.870  0.00  0.00    +0.000 A 
BRANCH   5   8
ATOM      8  C   UNL     1       2.927   5.238  19.607  0.00  0.00    +0.000 C 
BRANCH   8   9
ATOM      9  N   UNL     1       3.464   4.592  18.436  0.00  0.00    +0.000 N 
ATOM     10  C   UNL     1       4.805   4.359  18.375  0.00  0.00    +0.000 C 
ATOM     11  O   UNL     1       5.574   4.618  19.290  0.00  0.00    +0.000 OA
ATOM     12  H   UNL     1       2.888   4.368  17.640  0.00  0.00    +0.000 HD
BRANCH  10  13
ATOM     13  O   UNL     1       5.157   3.819  17.181  0.00  0.00    +0.000 OA
BRANCH  13  14
ATOM     14  C   UNL     1       6.063   4.566  16.321  0.00  0.00    +0.000 C 
ATOM     15  C   UNL     1       5.997   4.056  14.874  0.00  0.00    +0.000 C 
ATOM     16  C   UNL     1       5.570   6.023  16.334  0.00  0.00    +0.000 C 
ATOM     17  C   UNL     1       7.496   4.554  16.873  0.00  0.00    +0.000 C 
ENDBRANCH  13  14
ENDBRANCH  10  13
ENDBRANCH   8   9
ENDBRANCH   5   8
ENDBRANCH   1   2
BRANCH   1  20
ATOM     18  C   UNL     1      -1.246  10.887  18.830  0.00  0.00    +0.000 C 
ATOM     19  O   UNL     1      -1.219  10.873  20.055  0.00  0.00    +0.000 OA
ATOM     20  N   UNL     1      -0.108  10.804  18.068  0.00  0.00    +0.000 N 
ATOM     21  H   UNL     1      -0.226  10.805  17.060  0.00  0.00    +0.000 HD
BRANCH  18  28
ATOM     22  C   UNL     1      -7.333  12.089  18.984  0.00  0.00    +0.000 C 
ATOM     23  C   UNL     1      -6.216  12.934  18.375  0.00  0.00    +0.000 C 
ATOM     24  C   UNL     1      -5.681  12.317  17.068  0.00  0.00    +0.000 C 
ATOM     25  N   UNL     1      -4.414  11.639  17.235  0.00  0.00    +0.000 N 
ATOM     26  C   UNL     1      -3.755  10.905  16.299  0.00  0.00    +0.000 A 
ATOM     27  N   UNL     1      -2.586  10.505  16.747  0.00  0.00    +0.000 NA
ATOM     28  C   UNL     1      -2.475  11.040  18.035  0.00  0.00    +0.000 A 
ATOM     29  C   UNL     1      -3.631  11.742  18.357  0.00  0.00    +0.000 A 
ATOM     30  C   UNL     1      -4.022  12.492  19.517  0.00  0.00    +0.000 C 
ATOM     31  O   UNL     1      -3.423  12.573  20.581  0.00  0.00    +0.000 OA
ATOM     32  N   UNL     1      -5.194  13.196  19.377  0.00  0.00    +0.000 N 
ATOM     33  H   UNL     1      -5.447  13.683  20.230  0.00  0.00    +0.000 HD
ENDBRANCH  18  28
ENDBRANCH   1  20
TORSDOF 7
ENDMDL
MODEL 9
REMARK VINA RESULT:      -7.7      0.748      1.588
REMARK  Name = 
REMARK  11 active torsions:
REMARK  status: ('A' for Active; 'I' for Inactive)
REMARK    1  A    between atoms: C_1  and  C_2
REMARK    2  A    between atoms: C_7  and  C_8
REMARK    3  A    between atoms: N_10  and  C_11
REMARK    4  A    between atoms: C_11  and  C_12
REMARK    5  A    between atoms: C_15  and  C_16
REMARK    6  A    between atoms: C_16  and  N_17
REMARK    7  A    between atoms: C_18  and  O_20
REMARK    8  A    between atoms: O_20  and  C_21
REMARK    9  A    between atoms: C_21  and  C_22
REMARK   10  A    between atoms: C_21  and  C_23
REMARK   11  A    between atoms: C_21  and  C_24
REMARK                            x       y       z     vdW  Elec       q    Type
REMARK                         _______ _______ _______ _____ _____    ______ ____
ROOT
ATOM      1  C   UNL     1       0.760  10.972  18.456  0.00  0.00    +0.000 C 
ENDROOT
BRANCH   1   2
ATOM      2  C   UNL     1       1.298   9.606  18.800  0.00  0.00    +0.000 A 
ATOM      3  C   UNL     1       1.154   9.086  20.092  0.00  0.00    +0.000 A 
ATOM      4  C   UNL     1       1.644   7.816  20.404  0.00  0.00    +0.000 A 
ATOM      5  C   UNL     1       2.304   7.047  19.436  0.00  0.00    +0.000 A 
ATOM      6  C   UNL     1       2.452   7.566  18.144  0.00  0.00    +0.000 A 
ATOM      7  C   UNL     1       1.963   8.836  17.831  0.00  0.00    +0.000 A 
BRANCH   5   8
ATOM      8  C   UNL     1       2.871   5.705  19.796  0.00  0.00    +0.000 C 
BRANCH   8   9
ATOM      9  N   UNL     1       3.345   4.960  18.658  0.00  0.00    +0.000 N 
ATOM     10  C   UNL     1       4.673   4.665  18.577  0.00  0.00    +0.000 C 
ATOM     11  O   UNL     1       5.478   4.949  19.452  0.00  0.00    +0.000 OA
ATOM     12  H   UNL     1       2.737   4.709  17.895  0.00  0.00    +0.000 HD
BRANCH  10  13
ATOM     13  O   UNL     1       4.966   4.031  17.414  0.00  0.00    +0.000 OA
BRANCH  13  14
ATOM     14  C   UNL     1       5.908   4.659  16.499  0.00  0.00    +0.000 C 
ATOM     15  C   UNL     1       5.841   4.013  15.107  0.00  0.00    +0.000 C 
ATOM     16  C   UNL     1       5.467   6.126  16.364  0.00  0.00    +0.000 C 
ATOM     17  C   UNL     1       7.334   4.652  17.071  0.00  0.00    +0.000 C 
ENDBRANCH  13  14
ENDBRANCH  10  13
ENDBRANCH   8   9
ENDBRANCH   5   8
ENDBRANCH   1   2
BRANCH   1  20
ATOM     18  C   UNL     1      -1.055  12.468  19.152  0.00  0.00    +0.000 C 
ATOM     19  O   UNL     1      -0.413  13.468  18.853  0.00  0.00    +0.000 OA
ATOM     20  N   UNL     1      -0.551  11.200  19.004  0.00  0.00    +0.000 N 
ATOM     21  H   UNL     1      -1.146  10.431  19.294  0.00  0.00    +0.000 HD
BRANCH  18  28
ATOM     22  C   UNL     1      -7.065  12.444  17.607  0.00  0.00    +0.000 C 
ATOM     23  C   UNL     1      -6.272  11.365  18.343  0.00  0.00    +0.000 C 
ATOM     24  C   UNL     1      -5.947  11.784  19.790  0.00  0.00    +0.000 C 
ATOM     25  N   UNL     1      -4.579  12.221  19.963  0.00  0.00    +0.000 N 
ATOM     26  C   UNL     1      -4.032  12.755  21.089  0.00  0.00    +0.000 A 
ATOM     27  N   UNL     1      -2.743  12.956  20.938  0.00  0.00    +0.000 NA
ATOM     28  C   UNL     1      -2.437  12.497  19.652  0.00  0.00    +0.000 A 
ATOM     29  C   UNL     1      -3.594  12.048  19.024  0.00  0.00    +0.000 A 
ATOM     30  C   UNL     1      -3.836  11.462  17.736  0.00  0.00    +0.000 C 
ATOM     31  O   UNL     1      -3.037  11.341  16.818  0.00  0.00    +0.000 OA
ATOM     32  N   UNL     1      -5.111  10.983  17.554  0.00  0.00    +0.000 N 
ATOM     33  H   UNL     1      -5.245  10.610  16.620  0.00  0.00    +0.000 HD
ENDBRANCH  18  28
ENDBRANCH   1  20
TORSDOF 7
ENDMDL
