MODEL 1
REMARK VINA RESULT:      -7.7      0.000      0.000
REMARK  Name = 
REMARK  4 active torsions:
REMARK  status: ('A' for Active; 'I' for Inactive)
REMARK    1  A    between atoms: C_2  and  C_3
REMARK    2  A    between atoms: C_7  and  S_8
REMARK    3  A    between atoms: S_8  and  N_11
REMARK    4  A    between atoms: C_22  and  C_23
REMARK                            x       y       z     vdW  Elec       q    Type
REMARK                         _______ _______ _______ _____ _____    ______ ____
ROOT
ATOM      1  C   UNL     1       2.412   6.336  18.899  0.00  0.00    +0.000 A 
ATOM      2  C   UNL     1       2.206   6.066  20.251  0.00  0.00    +0.000 A 
ATOM      3  C   UNL     1       1.588   7.002  21.081  0.00  0.00    +0.000 A 
ATOM      4  C   UNL     1       1.277   8.263  20.588  0.00  0.00    +0.000 A 
ATOM      5  C   UNL     1       1.598   8.597  19.269  0.00  0.00    +0.000 A 
ATOM      6  C   UNL     1       2.137   7.629  18.414  0.00  0.00    +0.000 A 
ENDROOT
BRANCH   1   8
ATOM      7  O   UNL     1       2.135   4.609  17.378  0.00  0.00    +0.000 OA
ATOM      8  C   UNL     1       2.961   5.329  17.946  0.00  0.00    +0.000 C 
ATOM      9  N   UNL     1       4.339   5.196  17.720  0.00  0.00    +0.000 N 
ATOM     10  C   UNL     1       5.431   5.964  18.319  0.00  0.00    +0.000 C 
ATOM     11  C   UNL     1       6.033   6.877  17.252  0.00  0.00    +0.000 C 
ATOM     12  C   UNL     1       6.498   6.064  16.039  0.00  0.00    +0.000 C 
ATOM     13  C   UNL     1       5.400   5.118  15.512  0.00  0.00    +0.000 C 
ATOM     14  C   UNL     1       4.792   4.298  16.654  0.00  0.00    +0.000 C 
BRANCH  13  15
ATOM     15  C   UNL     1       5.910   4.203  14.407  0.00  0.00    +0.000 C 
ATOM     16  F   UNL     1       4.983   4.013  13.440  0.00  0.00    +0.000 F 
ATOM     17  F   UNL     1       7.018   4.685  13.805  0.00  0.00    +0.000 F 
ATOM     18  F   UNL     1       6.218   2.984  14.904  0.00  0.00    +0.000 F 
ENDBRANCH  13  15
ENDBRANCH   1   8
BRANCH   5  19
ATOM     19  S   UNL     1       1.067  10.166  18.604  0.00  0.00    +0.000 S 
ATOM     20  O   UNL     1       2.243  10.769  18.029  0.00  0.00    +0.000 OA
ATOM     21  O   UNL     1      -0.102   9.897  17.781  0.00  0.00    +0.000 OA
BRANCH  19  22
ATOM     22  N   UNL     1       0.569  11.109  19.889  0.00  0.00    +0.000 NA
ATOM     23  C   UNL     1      -0.852  11.201  20.280  0.00  0.00    +0.000 C 
ATOM     24  C   UNL     1      -1.427  12.575  19.914  0.00  0.00    +0.000 C 
ATOM     25  O   UNL     1      -0.624  13.658  20.409  0.00  0.00    +0.000 OA
ATOM     26  C   UNL     1       0.744  13.564  19.986  0.00  0.00    +0.000 C 
ATOM     27  C   UNL     1       1.368  12.234  20.406  0.00  0.00    +0.000 C 
ENDBRANCH  19  22
ENDBRANCH   5  19
TORSDOF 4
ENDMDL
MODEL 2
REMARK VINA RESULT:      -7.6      4.785      8.432
REMARK  Name = 
REMARK  4 active torsions:
REMARK  status: ('A' for Active; 'I' for Inactive)
REMARK    1  A    between atoms: C_2  and  C_3
REMARK    2  A    between atoms: C_7  and  S_8
REMARK    3  A    between atoms: S_8  and  N_11
REMARK    4  A    between atoms: C_22  and  C_23
REMARK                            x       y       z     vdW  Elec       q    Type
REMARK                         _______ _______ _______ _____ _____    ______ ____
ROOT
ATOM      1  C   UNL     1       2.061   6.839  19.754  0.00  0.00    +0.000 A 
ATOM      2  C   UNL     1       1.432   6.097  20.752  0.00  0.00    +0.000 A 
ATOM      3  C   UNL     1       1.859   4.804  21.058  0.00  0.00    +0.000 A 
ATOM      4  C   UNL     1       2.845   4.202  20.287  0.00  0.00    +0.000 A 
ATOM      5  C   UNL     1       3.395   4.884  19.197  0.00  0.00    +0.000 A 
ATOM      6  C   UNL     1       3.028   6.211  18.946  0.00  0.00    +0.000 A 
ENDROOT
BRANCH   1   8
ATOM      7  O   UNL     1       1.726   8.593  18.275  0.00  0.00    +0.000 OA
ATOM      8  C   UNL     1       1.721   8.262  19.465  0.00  0.00    +0.000 C 
ATOM      9  N   UNL     1       1.429   9.177  20.487  0.00  0.00    +0.000 N 
ATOM     10  C   UNL     1       1.391   8.938  21.930  0.00  0.00    +0.000 C 
ATOM     11  C   UNL     1      -0.062   8.988  22.399  0.00  0.00    +0.000 C 
ATOM     12  C   UNL     1      -0.712  10.323  22.019  0.00  0.00    +0.000 C 
ATOM     13  C   UNL     1      -0.519  10.664  20.527  0.00  0.00    +0.000 C 
ATOM     14  C   UNL     1       0.949  10.512  20.118  0.00  0.00    +0.000 C 
BRANCH  13  15
ATOM     15  C   UNL     1      -1.030  12.057  20.184  0.00  0.00    +0.000 C 
ATOM     16  F   UNL     1      -2.323  12.224  20.546  0.00  0.00    +0.000 F 
ATOM     17  F   UNL     1      -0.319  13.033  20.789  0.00  0.00    +0.000 F 
ATOM     18  F   UNL     1      -0.961  12.274  18.852  0.00  0.00    +0.000 F 
ENDBRANCH  13  15
ENDBRANCH   1   8
BRANCH   5  19
ATOM     19  S   UNL     1       4.758   4.159  18.302  0.00  0.00    +0.000 S 
ATOM     20  O   UNL     1       5.829   4.022  19.256  0.00  0.00    +0.000 OA
ATOM     21  O   UNL     1       4.230   2.991  17.612  0.00  0.00    +0.000 OA
BRANCH  19  22
ATOM     22  N   UNL     1       5.230   5.258  17.136  0.00  0.00    +0.000 NA
ATOM     23  C   UNL     1       5.397   4.867  15.723  0.00  0.00    +0.000 C 
ATOM     24  C   UNL     1       6.882   4.835  15.339  0.00  0.00    +0.000 C 
ATOM     25  O   UNL     1       7.565   6.050  15.684  0.00  0.00    +0.000 OA
ATOM     26  C   UNL     1       7.417   6.389  17.071  0.00  0.00    +0.000 C 
ATOM     27  C   UNL     1       5.945   6.504  17.463  0.00  0.00    +0.000 C 
ENDBRANCH  19  22
ENDBRANCH   5  19
TORSDOF 4
ENDMDL
MODEL 3
REMARK VINA RESULT:      -7.6      4.981      8.620
REMARK  Name = 
REMARK  4 active torsions:
REMARK  status: ('A' for Active; 'I' for Inactive)
REMARK    1  A    between atoms: C_2  and  C_3
REMARK    2  A    between atoms: C_7  and  S_8
REMARK    3  A    between atoms: S_8  and  N_11
REMARK    4  A    between atoms: C_22  and  C_23
REMARK                            x       y       z     vdW  Elec       q    Type
REMARK                         _______ _______ _______ _____ _____    ______ ____
ROOT
ATOM      1  C   UNL     1       1.970   7.065  19.946  0.00  0.00    +0.000 A 
ATOM      2  C   UNL     1       1.171   6.163  20.645  0.00  0.00    +0.000 A 
ATOM      3  C   UNL     1       1.621   4.870  20.917  0.00  0.00    +0.000 A 
ATOM      4  C   UNL     1       2.830   4.435  20.387  0.00  0.00    +0.000 A 
ATOM      5  C   UNL     1       3.583   5.285  19.572  0.00  0.00    +0.000 A 
ATOM      6  C   UNL     1       3.172   6.608  19.373  0.00  0.00    +0.000 A 
ENDROOT
BRANCH   1   8
ATOM      7  O   UNL     1       1.503   8.859  18.554  0.00  0.00    +0.000 OA
ATOM      8  C   UNL     1       1.585   8.490  19.729  0.00  0.00    +0.000 C 
ATOM      9  N   UNL     1       1.348   9.365  20.799  0.00  0.00    +0.000 N 
ATOM     10  C   UNL     1       1.413   9.078  22.232  0.00  0.00    +0.000 C 
ATOM     11  C   UNL     1      -0.005   9.083  22.800  0.00  0.00    +0.000 C 
ATOM     12  C   UNL     1      -0.703  10.416  22.511  0.00  0.00    +0.000 C 
ATOM     13  C   UNL     1      -0.619  10.811  21.021  0.00  0.00    +0.000 C 
ATOM     14  C   UNL     1       0.821  10.701  20.509  0.00  0.00    +0.000 C 
BRANCH  13  15
ATOM     15  C   UNL     1      -1.177  12.204  20.762  0.00  0.00    +0.000 C 
ATOM     16  F   UNL     1      -0.492  12.850  19.792  0.00  0.00    +0.000 F 
ATOM     17  F   UNL     1      -2.473  12.181  20.386  0.00  0.00    +0.000 F 
ATOM     18  F   UNL     1      -1.094  12.963  21.878  0.00  0.00    +0.000 F 
ENDBRANCH  13  15
ENDBRANCH   1   8
BRANCH   5  19
ATOM     19  S   UNL     1       5.197   4.768  19.014  0.00  0.00    +0.000 S 
ATOM     20  O   UNL     1       6.144   5.455  19.855  0.00  0.00    +0.000 OA
ATOM     21  O   UNL     1       5.175   3.313  18.963  0.00  0.00    +0.000 OA
BRANCH  19  22
ATOM     22  N   UNL     1       5.386   5.321  17.450  0.00  0.00    +0.000 NA
ATOM     23  C   UNL     1       5.534   4.394  16.311  0.00  0.00    +0.000 C 
ATOM     24  C   UNL     1       6.973   4.412  15.779  0.00  0.00    +0.000 C 
ATOM     25  O   UNL     1       7.440   5.741  15.503  0.00  0.00    +0.000 OA
ATOM     26  C   UNL     1       7.319   6.613  16.637  0.00  0.00    +0.000 C 
ATOM     27  C   UNL     1       5.878   6.675  17.140  0.00  0.00    +0.000 C 
ENDBRANCH  19  22
ENDBRANCH   5  19
TORSDOF 4
ENDMDL
MODEL 4
REMARK VINA RESULT:      -7.5      1.169      1.600
REMARK  Name = 
REMARK  4 active torsions:
REMARK  status: ('A' for Active; 'I' for Inactive)
REMARK    1  A    between atoms: C_2  and  C_3
REMARK    2  A    between atoms: C_7  and  S_8
REMARK    3  A    between atoms: S_8  and  N_11
REMARK    4  A    between atoms: C_22  and  C_23
REMARK                            x       y       z     vdW  Elec       q    Type
REMARK                         _______ _______ _______ _____ _____    ______ ____
ROOT
ATOM      1  C   UNL     1       2.412   6.227  18.966  0.00  0.00    +0.000 A 
ATOM      2  C   UNL     1       2.166   5.905  20.299  0.00  0.00    +0.000 A 
ATOM      3  C   UNL     1       1.553   6.821  21.155  0.00  0.00    +0.000 A 
ATOM      4  C   UNL     1       1.286   8.110  20.710  0.00  0.00    +0.000 A 
ATOM      5  C   UNL     1       1.646   8.490  19.413  0.00  0.00    +0.000 A 
ATOM      6  C   UNL     1       2.181   7.546  18.530  0.00  0.00    +0.000 A 
ENDROOT
BRANCH   1   8
ATOM      7  O   UNL     1       2.131   4.540  17.401  0.00  0.00    +0.000 OA
ATOM      8  C   UNL     1       2.959   5.248  17.983  0.00  0.00    +0.000 C 
ATOM      9  N   UNL     1       4.336   5.125  17.746  0.00  0.00    +0.000 N 
ATOM     10  C   UNL     1       5.429   5.880  18.359  0.00  0.00    +0.000 C 
ATOM     11  C   UNL     1       6.022   6.823  17.313  0.00  0.00    +0.000 C 
ATOM     12  C   UNL     1       6.483   6.044  16.076  0.00  0.00    +0.000 C 
ATOM     13  C   UNL     1       5.384   5.108  15.530  0.00  0.00    +0.000 C 
ATOM     14  C   UNL     1       4.785   4.257  16.654  0.00  0.00    +0.000 C 
BRANCH  13  15
ATOM     15  C   UNL     1       5.890   4.225  14.398  0.00  0.00    +0.000 C 
ATOM     16  F   UNL     1       6.228   2.989  14.833  0.00  0.00    +0.000 F 
ATOM     17  F   UNL     1       4.977   4.065  13.417  0.00  0.00    +0.000 F 
ATOM     18  F   UNL     1       6.996   4.762  13.836  0.00  0.00    +0.000 F 
ENDBRANCH  13  15
ENDBRANCH   1   8
BRANCH   5  19
ATOM     19  S   UNL     1       1.172  10.100  18.805  0.00  0.00    +0.000 S 
ATOM     20  O   UNL     1       1.714  11.051  19.741  0.00  0.00    +0.000 OA
ATOM     21  O   UNL     1       1.554  10.145  17.402  0.00  0.00    +0.000 OA
BRANCH  19  22
ATOM     22  N   UNL     1      -0.495  10.187  18.873  0.00  0.00    +0.000 NA
ATOM     23  C   UNL     1      -1.331  10.022  17.669  0.00  0.00    +0.000 C 
ATOM     24  C   UNL     1      -1.946  11.362  17.246  0.00  0.00    +0.000 C 
ATOM     25  O   UNL     1      -2.620  12.023  18.327  0.00  0.00    +0.000 OA
ATOM     26  C   UNL     1      -1.775  12.204  19.473  0.00  0.00    +0.000 C 
ATOM     27  C   UNL     1      -1.209  10.873  19.965  0.00  0.00    +0.000 C 
ENDBRANCH  19  22
ENDBRANCH   5  19
TORSDOF 4
ENDMDL
MODEL 5
REMARK VINA RESULT:      -7.5      4.543      8.319
REMARK  Name = 
REMARK  4 active torsions:
REMARK  status: ('A' for Active; 'I' for Inactive)
REMARK    1  A    between atoms: C_2  and  C_3
REMARK    2  A    between atoms: C_7  and  S_8
REMARK    3  A    between atoms: S_8  and  N_11
REMARK    4  A    between atoms: C_22  and  C_23
REMARK                            x       y       z     vdW  Elec       q    Type
REMARK                         _______ _______ _______ _____ _____    ______ ____
ROOT
ATOM      1  C   UNL     1       2.146   7.244  19.203  0.00  0.00    +0.000 A 
ATOM      2  C   UNL     1       1.538   6.727  20.345  0.00  0.00    +0.000 A 
ATOM      3  C   UNL     1       1.911   5.482  20.853  0.00  0.00    +0.000 A 
ATOM      4  C   UNL     1       2.816   4.694  20.152  0.00  0.00    +0.000 A 
ATOM      5  C   UNL     1       3.336   5.141  18.934  0.00  0.00    +0.000 A 
ATOM      6  C   UNL     1       3.028   6.425  18.471  0.00  0.00    +0.000 A 
ENDROOT
BRANCH   1   8
ATOM      7  O   UNL     1       2.065   8.792  17.479  0.00  0.00    +0.000 OA
ATOM      8  C   UNL     1       1.867   8.614  18.685  0.00  0.00    +0.000 C 
ATOM      9  N   UNL     1       1.421   9.647  19.523  0.00  0.00    +0.000 N 
ATOM     10  C   UNL     1       1.152   9.592  20.960  0.00  0.00    +0.000 C 
ATOM     11  C   UNL     1      -0.358   9.682  21.180  0.00  0.00    +0.000 C 
ATOM     12  C   UNL     1      -0.929  10.949  20.535  0.00  0.00    +0.000 C 
ATOM     13  C   UNL     1      -0.496  11.102  19.062  0.00  0.00    +0.000 C 
ATOM     14  C   UNL     1       1.017  10.918  18.915  0.00  0.00    +0.000 C 
BRANCH  13  15
ATOM     15  C   UNL     1      -0.936  12.434  18.468  0.00  0.00    +0.000 C 
ATOM     16  F   UNL     1      -1.741  12.267  17.395  0.00  0.00    +0.000 F 
ATOM     17  F   UNL     1      -1.608  13.199  19.354  0.00  0.00    +0.000 F 
ATOM     18  F   UNL     1       0.136  13.145  18.052  0.00  0.00    +0.000 F 
ENDBRANCH  13  15
ENDBRANCH   1   8
BRANCH   5  19
ATOM     19  S   UNL     1       4.602   4.187  18.115  0.00  0.00    +0.000 S 
ATOM     20  O   UNL     1       5.669   4.041  19.072  0.00  0.00    +0.000 OA
ATOM     21  O   UNL     1       3.946   3.013  17.557  0.00  0.00    +0.000 OA
BRANCH  19  22
ATOM     22  N   UNL     1       5.166   5.100  16.835  0.00  0.00    +0.000 NA
ATOM     23  C   UNL     1       5.405   4.508  15.504  0.00  0.00    +0.000 C 
ATOM     24  C   UNL     1       6.909   4.401  15.220  0.00  0.00    +0.000 C 
ATOM     25  O   UNL     1       7.598   5.643  15.429  0.00  0.00    +0.000 OA
ATOM     26  C   UNL     1       7.378   6.179  16.742  0.00  0.00    +0.000 C 
ATOM     27  C   UNL     1       5.888   6.370  17.024  0.00  0.00    +0.000 C 
ENDBRANCH  19  22
ENDBRANCH   5  19
TORSDOF 4
ENDMDL
MODEL 6
REMARK VINA RESULT:      -7.5      2.604      3.796
REMARK  Name = 
REMARK  4 active torsions:
REMARK  status: ('A' for Active; 'I' for Inactive)
REMARK    1  A    between atoms: C_2  and  C_3
REMARK    2  A    between atoms: C_7  and  S_8
REMARK    3  A    between atoms: S_8  and  N_11
REMARK    4  A    between atoms: C_22  and  C_23
REMARK                            x       y       z     vdW  Elec       q    Type
REMARK                         _______ _______ _______ _____ _____    ______ ____
ROOT
ATOM      1  C   UNL     1       1.509   8.683  19.208  0.00  0.00    +0.000 A 
ATOM      2  C   UNL     1       1.451   8.320  20.552  0.00  0.00    +0.000 A 
ATOM      3  C   UNL     1       0.468   8.844  21.393  0.00  0.00    +0.000 A 
ATOM      4  C   UNL     1      -0.394   9.825  20.919  0.00  0.00    +0.000 A 
ATOM      5  C   UNL     1      -0.264  10.297  19.610  0.00  0.00    +0.000 A 
ATOM      6  C   UNL     1       0.665   9.709  18.743  0.00  0.00    +0.000 A 
ENDROOT
BRANCH   1   8
ATOM      7  O   UNL     1       3.007   8.840  17.446  0.00  0.00    +0.000 OA
ATOM      8  C   UNL     1       2.465   8.068  18.243  0.00  0.00    +0.000 C 
ATOM      9  N   UNL     1       2.721   6.690  18.228  0.00  0.00    +0.000 N 
ATOM     10  C   UNL     1       2.154   5.656  19.095  0.00  0.00    +0.000 C 
ATOM     11  C   UNL     1       3.243   5.160  20.045  0.00  0.00    +0.000 C 
ATOM     12  C   UNL     1       4.458   4.651  19.262  0.00  0.00    +0.000 C 
ATOM     13  C   UNL     1       4.951   5.674  18.216  0.00  0.00    +0.000 C 
ATOM     14  C   UNL     1       3.787   6.183  17.360  0.00  0.00    +0.000 C 
BRANCH  13  15
ATOM     15  C   UNL     1       6.058   5.109  17.337  0.00  0.00    +0.000 C 
ATOM     16  F   UNL     1       6.753   6.085  16.709  0.00  0.00    +0.000 F 
ATOM     17  F   UNL     1       6.950   4.374  18.034  0.00  0.00    +0.000 F 
ATOM     18  F   UNL     1       5.541   4.311  16.376  0.00  0.00    +0.000 F 
ENDBRANCH  13  15
ENDBRANCH   1   8
BRANCH   5  19
ATOM     19  S   UNL     1      -1.463  11.453  18.968  0.00  0.00    +0.000 S 
ATOM     20  O   UNL     1      -2.163  11.973  20.115  0.00  0.00    +0.000 OA
ATOM     21  O   UNL     1      -0.743  12.348  18.074  0.00  0.00    +0.000 OA
BRANCH  19  22
ATOM     22  N   UNL     1      -2.547  10.584  18.041  0.00  0.00    +0.000 NA
ATOM     23  C   UNL     1      -2.142   9.931  16.781  0.00  0.00    +0.000 C 
ATOM     24  C   UNL     1      -2.728  10.671  15.572  0.00  0.00    +0.000 C 
ATOM     25  O   UNL     1      -4.145  10.873  15.685  0.00  0.00    +0.000 OA
ATOM     26  C   UNL     1      -4.509  11.543  16.901  0.00  0.00    +0.000 C 
ATOM     27  C   UNL     1      -4.004  10.784  18.128  0.00  0.00    +0.000 C 
ENDBRANCH  19  22
ENDBRANCH   5  19
TORSDOF 4
ENDMDL
MODEL 7
REMARK VINA RESULT:      -7.5      4.609      8.455
REMARK  Name = 
REMARK  4 active torsions:
REMARK  status: ('A' for Active; 'I' for Inactive)
REMARK    1  A    between atoms: C_2  and  C_3
REMARK    2  A    between atoms: C_7  and  S_8
REMARK    3  A    between atoms: S_8  and  N_11
REMARK    4  A    between atoms: C_22  and  C_23
REMARK                            x       y       z     vdW  Elec       q    Type
REMARK                         _______ _______ _______ _____ _____    ______ ____
ROOT
ATOM      1  C   UNL     1       2.058   6.683  19.598  0.00  0.00    +0.000 A 
ATOM      2  C   UNL     1       1.416   6.151  20.714  0.00  0.00    +0.000 A 
ATOM      3  C   UNL     1       1.724   4.869  21.173  0.00  0.00    +0.000 A 
ATOM      4  C   UNL     1       2.596   4.067  20.447  0.00  0.00    +0.000 A 
ATOM      5  C   UNL     1       3.148   4.538  19.252  0.00  0.00    +0.000 A 
ATOM      6  C   UNL     1       2.906   5.853  18.840  0.00  0.00    +0.000 A 
ENDROOT
BRANCH   1   8
ATOM      7  O   UNL     1       2.022   8.292  17.929  0.00  0.00    +0.000 OA
ATOM      8  C   UNL     1       1.850   8.085  19.134  0.00  0.00    +0.000 C 
ATOM      9  N   UNL     1       1.496   9.114  20.019  0.00  0.00    +0.000 N 
ATOM     10  C   UNL     1       1.266   9.026  21.462  0.00  0.00    +0.000 C 
ATOM     11  C   UNL     1      -0.227   9.201  21.733  0.00  0.00    +0.000 C 
ATOM     12  C   UNL     1      -0.737  10.522  21.149  0.00  0.00    +0.000 C 
ATOM     13  C   UNL     1      -0.340  10.699  19.668  0.00  0.00    +0.000 C 
ATOM     14  C   UNL     1       1.153  10.428  19.467  0.00  0.00    +0.000 C 
BRANCH  13  15
ATOM     15  C   UNL     1      -0.713  12.075  19.133  0.00  0.00    +0.000 C 
ATOM     16  F   UNL     1       0.224  12.559  18.286  0.00  0.00    +0.000 F 
ATOM     17  F   UNL     1      -1.887  12.071  18.466  0.00  0.00    +0.000 F 
ATOM     18  F   UNL     1      -0.828  12.963  20.146  0.00  0.00    +0.000 F 
ENDBRANCH  13  15
ENDBRANCH   1   8
BRANCH   5  19
ATOM     19  S   UNL     1       4.374   3.557  18.404  0.00  0.00    +0.000 S 
ATOM     20  O   UNL     1       5.163   2.932  19.435  0.00  0.00    +0.000 OA
ATOM     21  O   UNL     1       3.659   2.747  17.428  0.00  0.00    +0.000 OA
BRANCH  19  22
ATOM     22  N   UNL     1       5.356   4.610  17.556  0.00  0.00    +0.000 NA
ATOM     23  C   UNL     1       5.360   4.651  16.081  0.00  0.00    +0.000 C 
ATOM     24  C   UNL     1       6.657   4.050  15.525  0.00  0.00    +0.000 C 
ATOM     25  O   UNL     1       7.830   4.627  16.119  0.00  0.00    +0.000 OA
ATOM     26  C   UNL     1       7.818   4.542  17.552  0.00  0.00    +0.000 C 
ATOM     27  C   UNL     1       6.573   5.203  18.139  0.00  0.00    +0.000 C 
ENDBRANCH  19  22
ENDBRANCH   5  19
TORSDOF 4
ENDMDL
MODEL 8
REMARK VINA RESULT:      -7.4      2.662      3.490
REMARK  Name = 
REMARK  4 active torsions:
REMARK  status: ('A' for Active; 'I' for Inactive)
REMARK    1  A    between atoms: C_2  and  C_3
REMARK    2  A    between atoms: C_7  and  S_8
REMARK    3  A    between atoms: S_8  and  N_11
REMARK    4  A    between atoms: C_22  and  C_23
REMARK                            x       y       z     vdW  Elec       q    Type
REMARK                         _______ _______ _______ _____ _____    ______ ____
ROOT
ATOM      1  C   UNL     1       1.996   7.559  19.421  0.00  0.00    +0.000 A 
ATOM      2  C   UNL     1       2.149   8.025  18.117  0.00  0.00    +0.000 A 
ATOM      3  C   UNL     1       1.932   9.368  17.807  0.00  0.00    +0.000 A 
ATOM      4  C   UNL     1       1.447  10.232  18.781  0.00  0.00    +0.000 A 
ATOM      5  C   UNL     1       1.162   9.751  20.063  0.00  0.00    +0.000 A 
ATOM      6  C   UNL     1       1.463   8.425  20.395  0.00  0.00    +0.000 A 
ENDROOT
BRANCH   1   8
ATOM      7  O   UNL     1       1.565   5.640  20.647  0.00  0.00    +0.000 OA
ATOM      8  C   UNL     1       2.326   6.163  19.828  0.00  0.00    +0.000 C 
ATOM      9  N   UNL     1       3.446   5.488  19.321  0.00  0.00    +0.000 N 
ATOM     10  C   UNL     1       4.436   5.974  18.360  0.00  0.00    +0.000 C 
ATOM     11  C   UNL     1       4.240   5.235  17.037  0.00  0.00    +0.000 C 
ATOM     12  C   UNL     1       4.332   3.719  17.240  0.00  0.00    +0.000 C 
ATOM     13  C   UNL     1       3.416   3.225  18.380  0.00  0.00    +0.000 C 
ATOM     14  C   UNL     1       3.615   4.068  19.643  0.00  0.00    +0.000 C 
BRANCH  13  15
ATOM     15  C   UNL     1       3.621   1.747  18.683  0.00  0.00    +0.000 C 
ATOM     16  F   UNL     1       4.026   1.059  17.591  0.00  0.00    +0.000 F 
ATOM     17  F   UNL     1       4.542   1.538  19.647  0.00  0.00    +0.000 F 
ATOM     18  F   UNL     1       2.466   1.183  19.099  0.00  0.00    +0.000 F 
ENDBRANCH  13  15
ENDBRANCH   1   8
BRANCH   5  19
ATOM     19  S   UNL     1       0.675  10.894  21.344  0.00  0.00    +0.000 S 
ATOM     20  O   UNL     1       0.774  10.165  22.583  0.00  0.00    +0.000 OA
ATOM     21  O   UNL     1       1.452  12.108  21.137  0.00  0.00    +0.000 OA
BRANCH  19  22
ATOM     22  N   UNL     1      -0.930  11.278  21.087  0.00  0.00    +0.000 NA
ATOM     23  C   UNL     1      -1.503  11.350  19.728  0.00  0.00    +0.000 C 
ATOM     24  C   UNL     1      -1.786  12.806  19.336  0.00  0.00    +0.000 C 
ATOM     25  O   UNL     1      -2.561  13.502  20.324  0.00  0.00    +0.000 OA
ATOM     26  C   UNL     1      -1.964  13.446  21.629  0.00  0.00    +0.000 C 
ATOM     27  C   UNL     1      -1.741  12.004  22.079  0.00  0.00    +0.000 C 
ENDBRANCH  19  22
ENDBRANCH   5  19
TORSDOF 4
ENDMDL
MODEL 9
REMARK VINA RESULT:      -7.3      5.878      9.505
REMARK  Name = 
REMARK  4 active torsions:
REMARK  status: ('A' for Active; 'I' for Inactive)
REMARK    1  A    between atoms: C_2  and  C_3
REMARK    2  A    between atoms: C_7  and  S_8
REMARK    3  A    between atoms: S_8  and  N_11
REMARK    4  A    between atoms: C_22  and  C_23
REMARK                            x       y       z     vdW  Elec       q    Type
REMARK                         _______ _______ _______ _____ _____    ______ ____
ROOT
ATOM      1  C   UNL     1       1.181   9.198  20.092  0.00  0.00    +0.000 A 
ATOM      2  C   UNL     1       1.327   9.690  18.796  0.00  0.00    +0.000 A 
ATOM      3  C   UNL     1       1.863   8.892  17.784  0.00  0.00    +0.000 A 
ATOM      4  C   UNL     1       2.364   7.633  18.091  0.00  0.00    +0.000 A 
ATOM      5  C   UNL     1       2.345   7.175  19.412  0.00  0.00    +0.000 A 
ATOM      6  C   UNL     1       1.729   7.941  20.408  0.00  0.00    +0.000 A 
ENDROOT
BRANCH   1   8
ATOM      7  O   UNL     1       0.987   9.836  22.312  0.00  0.00    +0.000 OA
ATOM      8  C   UNL     1       0.511   9.967  21.180  0.00  0.00    +0.000 C 
ATOM      9  N   UNL     1      -0.606  10.779  20.936  0.00  0.00    +0.000 N 
ATOM     10  C   UNL     1      -1.283  11.025  19.662  0.00  0.00    +0.000 C 
ATOM     11  C   UNL     1      -0.994  12.459  19.222  0.00  0.00    +0.000 C 
ATOM     12  C   UNL     1      -1.420  13.458  20.303  0.00  0.00    +0.000 C 
ATOM     13  C   UNL     1      -0.850  13.098  21.691  0.00  0.00    +0.000 C 
ATOM     14  C   UNL     1      -1.109  11.625  22.021  0.00  0.00    +0.000 C 
BRANCH  13  15
ATOM     15  C   UNL     1      -1.397  13.999  22.789  0.00  0.00    +0.000 C 
ATOM     16  F   UNL     1      -0.422  14.734  23.372  0.00  0.00    +0.000 F 
ATOM     17  F   UNL     1      -2.327  14.865  22.334  0.00  0.00    +0.000 F 
ATOM     18  F   UNL     1      -1.974  13.263  23.764  0.00  0.00    +0.000 F 
ENDBRANCH  13  15
ENDBRANCH   1   8
BRANCH   5  19
ATOM     19  S   UNL     1       2.859   5.505  19.772  0.00  0.00    +0.000 S 
ATOM     20  O   UNL     1       4.300   5.530  19.790  0.00  0.00    +0.000 OA
ATOM     21  O   UNL     1       2.114   5.082  20.948  0.00  0.00    +0.000 OA
BRANCH  19  22
ATOM     22  N   UNL     1       2.367   4.545  18.496  0.00  0.00    +0.000 NA
ATOM     23  C   UNL     1       1.170   3.688  18.586  0.00  0.00    +0.000 C 
ATOM     24  C   UNL     1       1.566   2.209  18.672  0.00  0.00    +0.000 C 
ATOM     25  O   UNL     1       2.473   1.820  17.629  0.00  0.00    +0.000 OA
ATOM     26  C   UNL     1       3.646   2.647  17.586  0.00  0.00    +0.000 C 
ATOM     27  C   UNL     1       3.283   4.122  17.422  0.00  0.00    +0.000 C 
ENDBRANCH  19  22
ENDBRANCH   5  19
TORSDOF 4
ENDMDL
