MODEL 1
REMARK VINA RESULT:      -7.4      0.000      0.000
REMARK  Name = 
REMARK  4 active torsions:
REMARK  status: ('A' for Active; 'I' for Inactive)
REMARK    1  A    between atoms: C_1  and  N_2
REMARK    2  A    between atoms: N_2  and  C_16
REMARK    3  A    between atoms: C_3  and  C_5
REMARK    4  A    between atoms: C_5  and  N_6
REMARK                            x       y       z     vdW  Elec       q    Type
REMARK                         _______ _______ _______ _____ _____    ______ ____
ROOT
ATOM      1  C   UNL     1       5.510   6.558  17.729  0.00  0.00    +0.000 C 
ENDROOT
BRANCH   1   2
ATOM      2  N   UNL     1       4.266   6.125  18.311  0.00  0.00    +0.000 N 
ATOM      3  C   UNL     1       3.136   6.906  18.400  0.00  0.00    +0.000 A 
ATOM      4  O   UNL     1       3.024   8.050  17.977  0.00  0.00    +0.000 OA
ATOM      5  O   UNL     1       2.114   6.236  19.086  0.00  0.00    +0.000 OA
ATOM      6  C   UNL     1       2.711   5.026  19.397  0.00  0.00    +0.000 A 
ATOM      7  C   UNL     1       2.123   4.006  20.112  0.00  0.00    +0.000 A 
ATOM      8  C   UNL     1       2.888   2.860  20.343  0.00  0.00    +0.000 A 
ATOM      9  C   UNL     1       4.208   2.763  19.857  0.00  0.00    +0.000 A 
ATOM     10  C   UNL     1       4.785   3.811  19.136  0.00  0.00    +0.000 A 
ATOM     11  C   UNL     1       4.008   4.929  18.929  0.00  0.00    +0.000 A 
ENDBRANCH   1   2
BRANCH   1  14
ATOM     12  C   UNL     1       7.259   4.382  16.847  0.00  0.00    +0.000 C 
ATOM     13  N   UNL     1       6.483   5.157  15.873  0.00  0.00    +0.000 N 
ATOM     14  C   UNL     1       5.612   6.215  16.236  0.00  0.00    +0.000 C 
ATOM     15  O   UNL     1       4.861   6.798  15.448  0.00  0.00    +0.000 OA
BRANCH  13  16
ATOM     16  C   UNL     1       6.669   4.790  14.483  0.00  0.00    +0.000 A 
ATOM     17  C   UNL     1       5.878   3.814  13.860  0.00  0.00    +0.000 A 
ATOM     18  C   UNL     1       6.082   3.446  12.527  0.00  0.00    +0.000 A 
ATOM     19  C   UNL     1       7.080   4.056  11.778  0.00  0.00    +0.000 A 
ATOM     20  C   UNL     1       7.858   5.049  12.357  0.00  0.00    +0.000 A 
ATOM     21  C   UNL     1       7.648   5.419  13.691  0.00  0.00    +0.000 A 
ENDBRANCH  13  16
ENDBRANCH   1  14
TORSDOF 3
ENDMDL
MODEL 2
REMARK VINA RESULT:      -7.1      1.638      2.029
REMARK  Name = 
REMARK  4 active torsions:
REMARK  status: ('A' for Active; 'I' for Inactive)
REMARK    1  A    between atoms: C_1  and  N_2
REMARK    2  A    between atoms: N_2  and  C_16
REMARK    3  A    between atoms: C_3  and  C_5
REMARK    4  A    between atoms: C_5  and  N_6
REMARK                            x       y       z     vdW  Elec       q    Type
REMARK                         _______ _______ _______ _____ _____    ______ ____
ROOT
ATOM      1  C   UNL     1       5.643   6.634  17.650  0.00  0.00    +0.000 C 
ENDROOT
BRANCH   1   2
ATOM      2  N   UNL     1       5.113   5.581  18.476  0.00  0.00    +0.000 N 
ATOM      3  C   UNL     1       5.820   4.940  19.468  0.00  0.00    +0.000 A 
ATOM      4  O   UNL     1       6.971   5.194  19.801  0.00  0.00    +0.000 OA
ATOM      5  O   UNL     1       5.063   3.909  20.042  0.00  0.00    +0.000 OA
ATOM      6  C   UNL     1       3.880   3.980  19.325  0.00  0.00    +0.000 A 
ATOM      7  C   UNL     1       2.798   3.141  19.487  0.00  0.00    +0.000 A 
ATOM      8  C   UNL     1       1.692   3.355  18.660  0.00  0.00    +0.000 A 
ATOM      9  C   UNL     1       1.694   4.392  17.704  0.00  0.00    +0.000 A 
ATOM     10  C   UNL     1       2.804   5.228  17.556  0.00  0.00    +0.000 A 
ATOM     11  C   UNL     1       3.879   4.989  18.381  0.00  0.00    +0.000 A 
ENDBRANCH   1   2
BRANCH   1  14
ATOM     12  C   UNL     1       7.371   4.447  16.755  0.00  0.00    +0.000 C 
ATOM     13  N   UNL     1       6.550   5.191  15.793  0.00  0.00    +0.000 N 
ATOM     14  C   UNL     1       5.686   6.252  16.164  0.00  0.00    +0.000 C 
ATOM     15  O   UNL     1       4.899   6.808  15.393  0.00  0.00    +0.000 OA
BRANCH  13  16
ATOM     16  C   UNL     1       6.681   4.788  14.407  0.00  0.00    +0.000 A 
ATOM     17  C   UNL     1       5.866   3.796  13.841  0.00  0.00    +0.000 A 
ATOM     18  C   UNL     1       6.017   3.393  12.511  0.00  0.00    +0.000 A 
ATOM     19  C   UNL     1       6.985   3.983  11.708  0.00  0.00    +0.000 A 
ATOM     20  C   UNL     1       7.785   4.991  12.230  0.00  0.00    +0.000 A 
ATOM     21  C   UNL     1       7.628   5.395  13.561  0.00  0.00    +0.000 A 
ENDBRANCH  13  16
ENDBRANCH   1  14
TORSDOF 3
ENDMDL
MODEL 3
REMARK VINA RESULT:      -7.1      1.230      1.435
REMARK  Name = 
REMARK  4 active torsions:
REMARK  status: ('A' for Active; 'I' for Inactive)
REMARK    1  A    between atoms: C_1  and  N_2
REMARK    2  A    between atoms: N_2  and  C_16
REMARK    3  A    between atoms: C_3  and  C_5
REMARK    4  A    between atoms: C_5  and  N_6
REMARK                            x       y       z     vdW  Elec       q    Type
REMARK                         _______ _______ _______ _____ _____    ______ ____
ROOT
ATOM      1  C   UNL     1       5.483   4.808  18.447  0.00  0.00    +0.000 C 
ENDROOT
BRANCH   1   2
ATOM      2  N   UNL     1       4.115   5.033  18.833  0.00  0.00    +0.000 N 
ATOM      3  C   UNL     1       3.396   6.166  18.523  0.00  0.00    +0.000 A 
ATOM      4  O   UNL     1       3.804   7.111  17.860  0.00  0.00    +0.000 OA
ATOM      5  O   UNL     1       2.120   6.127  19.103  0.00  0.00    +0.000 OA
ATOM      6  C   UNL     1       2.138   4.915  19.773  0.00  0.00    +0.000 A 
ATOM      7  C   UNL     1       1.112   4.415  20.544  0.00  0.00    +0.000 A 
ATOM      8  C   UNL     1       1.317   3.176  21.159  0.00  0.00    +0.000 A 
ATOM      9  C   UNL     1       2.530   2.477  20.989  0.00  0.00    +0.000 A 
ATOM     10  C   UNL     1       3.557   3.006  20.205  0.00  0.00    +0.000 A 
ATOM     11  C   UNL     1       3.327   4.229  19.616  0.00  0.00    +0.000 A 
ENDBRANCH   1   2
BRANCH   1  14
ATOM     12  C   UNL     1       7.200   6.297  16.601  0.00  0.00    +0.000 C 
ATOM     13  N   UNL     1       6.454   5.121  16.141  0.00  0.00    +0.000 N 
ATOM     14  C   UNL     1       5.615   4.353  16.987  0.00  0.00    +0.000 C 
ATOM     15  O   UNL     1       5.075   3.294  16.652  0.00  0.00    +0.000 OA
BRANCH  13  16
ATOM     16  C   UNL     1       6.607   4.785  14.740  0.00  0.00    +0.000 A 
ATOM     17  C   UNL     1       5.763   3.866  14.100  0.00  0.00    +0.000 A 
ATOM     18  C   UNL     1       5.935   3.526  12.755  0.00  0.00    +0.000 A 
ATOM     19  C   UNL     1       6.953   4.108  12.011  0.00  0.00    +0.000 A 
ATOM     20  C   UNL     1       7.784   5.047  12.608  0.00  0.00    +0.000 A 
ATOM     21  C   UNL     1       7.607   5.389  13.954  0.00  0.00    +0.000 A 
ENDBRANCH  13  16
ENDBRANCH   1  14
TORSDOF 3
ENDMDL
MODEL 4
REMARK VINA RESULT:      -7.0      0.719      1.267
REMARK  Name = 
REMARK  4 active torsions:
REMARK  status: ('A' for Active; 'I' for Inactive)
REMARK    1  A    between atoms: C_1  and  N_2
REMARK    2  A    between atoms: N_2  and  C_16
REMARK    3  A    between atoms: C_3  and  C_5
REMARK    4  A    between atoms: C_5  and  N_6
REMARK                            x       y       z     vdW  Elec       q    Type
REMARK                         _______ _______ _______ _____ _____    ______ ____
ROOT
ATOM      1  C   UNL     1       5.205   6.170  17.850  0.00  0.00    +0.000 C 
ENDROOT
BRANCH   1   2
ATOM      2  N   UNL     1       3.916   5.706  18.290  0.00  0.00    +0.000 N 
ATOM      3  C   UNL     1       2.870   6.531  18.638  0.00  0.00    +0.000 A 
ATOM      4  O   UNL     1       2.880   7.755  18.591  0.00  0.00    +0.000 OA
ATOM      5  O   UNL     1       1.774   5.788  19.100  0.00  0.00    +0.000 OA
ATOM      6  C   UNL     1       2.242   4.488  19.010  0.00  0.00    +0.000 A 
ATOM      7  C   UNL     1       1.542   3.361  19.385  0.00  0.00    +0.000 A 
ATOM      8  C   UNL     1       2.185   2.128  19.236  0.00  0.00    +0.000 A 
ATOM      9  C   UNL     1       3.495   2.054  18.720  0.00  0.00    +0.000 A 
ATOM     10  C   UNL     1       4.186   3.211  18.349  0.00  0.00    +0.000 A 
ATOM     11  C   UNL     1       3.528   4.410  18.513  0.00  0.00    +0.000 A 
ENDBRANCH   1   2
BRANCH   1  14
ATOM     12  C   UNL     1       7.248   4.286  16.929  0.00  0.00    +0.000 C 
ATOM     13  N   UNL     1       6.436   5.036  15.964  0.00  0.00    +0.000 N 
ATOM     14  C   UNL     1       5.426   5.954  16.346  0.00  0.00    +0.000 C 
ATOM     15  O   UNL     1       4.652   6.503  15.555  0.00  0.00    +0.000 OA
BRANCH  13  16
ATOM     16  C   UNL     1       6.737   4.799  14.567  0.00  0.00    +0.000 A 
ATOM     17  C   UNL     1       7.720   5.531  13.885  0.00  0.00    +0.000 A 
ATOM     18  C   UNL     1       7.986   5.315  12.529  0.00  0.00    +0.000 A 
ATOM     19  C   UNL     1       7.278   4.351  11.823  0.00  0.00    +0.000 A 
ATOM     20  C   UNL     1       6.322   3.587  12.479  0.00  0.00    +0.000 A 
ATOM     21  C   UNL     1       6.063   3.802  13.837  0.00  0.00    +0.000 A 
ENDBRANCH  13  16
ENDBRANCH   1  14
TORSDOF 3
ENDMDL
MODEL 5
REMARK VINA RESULT:      -7.0      1.231      1.779
REMARK  Name = 
REMARK  4 active torsions:
REMARK  status: ('A' for Active; 'I' for Inactive)
REMARK    1  A    between atoms: C_1  and  N_2
REMARK    2  A    between atoms: N_2  and  C_16
REMARK    3  A    between atoms: C_3  and  C_5
REMARK    4  A    between atoms: C_5  and  N_6
REMARK                            x       y       z     vdW  Elec       q    Type
REMARK                         _______ _______ _______ _____ _____    ______ ____
ROOT
ATOM      1  C   UNL     1       5.480   4.820  18.449  0.00  0.00    +0.000 C 
ENDROOT
BRANCH   1   2
ATOM      2  N   UNL     1       4.107   5.041  18.821  0.00  0.00    +0.000 N 
ATOM      3  C   UNL     1       3.382   6.162  18.485  0.00  0.00    +0.000 A 
ATOM      4  O   UNL     1       3.788   7.099  17.809  0.00  0.00    +0.000 OA
ATOM      5  O   UNL     1       2.102   6.124  19.056  0.00  0.00    +0.000 OA
ATOM      6  C   UNL     1       2.124   4.924  19.748  0.00  0.00    +0.000 A 
ATOM      7  C   UNL     1       1.096   4.429  20.520  0.00  0.00    +0.000 A 
ATOM      8  C   UNL     1       1.306   3.203  21.158  0.00  0.00    +0.000 A 
ATOM      9  C   UNL     1       2.525   2.511  21.010  0.00  0.00    +0.000 A 
ATOM     10  C   UNL     1       3.555   3.034  20.223  0.00  0.00    +0.000 A 
ATOM     11  C   UNL     1       3.320   4.245  19.612  0.00  0.00    +0.000 A 
ENDBRANCH   1   2
BRANCH   1  14
ATOM     12  C   UNL     1       7.186   6.321  16.602  0.00  0.00    +0.000 C 
ATOM     13  N   UNL     1       6.460   5.130  16.147  0.00  0.00    +0.000 N 
ATOM     14  C   UNL     1       5.628   4.355  16.993  0.00  0.00    +0.000 C 
ATOM     15  O   UNL     1       5.106   3.286  16.663  0.00  0.00    +0.000 OA
BRANCH  13  16
ATOM     16  C   UNL     1       6.627   4.786  14.749  0.00  0.00    +0.000 A 
ATOM     17  C   UNL     1       7.639   5.353  13.960  0.00  0.00    +0.000 A 
ATOM     18  C   UNL     1       7.776   5.037  12.605  0.00  0.00    +0.000 A 
ATOM     19  C   UNL     1       6.907   4.135  12.006  0.00  0.00    +0.000 A 
ATOM     20  C   UNL     1       5.916   3.531  12.769  0.00  0.00    +0.000 A 
ATOM     21  C   UNL     1       5.784   3.846  14.127  0.00  0.00    +0.000 A 
ENDBRANCH  13  16
ENDBRANCH   1  14
TORSDOF 3
ENDMDL
MODEL 6
REMARK VINA RESULT:      -6.9      1.915      6.796
REMARK  Name = 
REMARK  4 active torsions:
REMARK  status: ('A' for Active; 'I' for Inactive)
REMARK    1  A    between atoms: C_1  and  N_2
REMARK    2  A    between atoms: N_2  and  C_16
REMARK    3  A    between atoms: C_3  and  C_5
REMARK    4  A    between atoms: C_5  and  N_6
REMARK                            x       y       z     vdW  Elec       q    Type
REMARK                         _______ _______ _______ _____ _____    ______ ____
ROOT
ATOM      1  C   UNL     1       4.684   6.146  16.354  0.00  0.00    +0.000 C 
ENDROOT
BRANCH   1   2
ATOM      2  N   UNL     1       5.784   5.604  15.600  0.00  0.00    +0.000 N 
ATOM      3  C   UNL     1       7.111   5.849  15.875  0.00  0.00    +0.000 A 
ATOM      4  O   UNL     1       7.534   6.527  16.803  0.00  0.00    +0.000 OA
ATOM      5  O   UNL     1       7.942   5.247  14.920  0.00  0.00    +0.000 OA
ATOM      6  C   UNL     1       7.029   4.646  14.070  0.00  0.00    +0.000 A 
ATOM      7  C   UNL     1       7.344   3.941  12.930  0.00  0.00    +0.000 A 
ATOM      8  C   UNL     1       6.283   3.416  12.186  0.00  0.00    +0.000 A 
ATOM      9  C   UNL     1       4.948   3.607  12.598  0.00  0.00    +0.000 A 
ATOM     10  C   UNL     1       4.652   4.328  13.758  0.00  0.00    +0.000 A 
ATOM     11  C   UNL     1       5.718   4.836  14.466  0.00  0.00    +0.000 A 
ENDBRANCH   1   2
BRANCH   1  14
ATOM     12  C   UNL     1       2.526   6.951  18.162  0.00  0.00    +0.000 C 
ATOM     13  N   UNL     1       3.032   5.574  18.170  0.00  0.00    +0.000 N 
ATOM     14  C   UNL     1       4.066   5.120  17.314  0.00  0.00    +0.000 C 
ATOM     15  O   UNL     1       4.422   3.941  17.220  0.00  0.00    +0.000 OA
BRANCH  13  16
ATOM     16  C   UNL     1       2.417   4.683  19.133  0.00  0.00    +0.000 A 
ATOM     17  C   UNL     1       2.739   4.729  20.498  0.00  0.00    +0.000 A 
ATOM     18  C   UNL     1       2.163   3.846  21.417  0.00  0.00    +0.000 A 
ATOM     19  C   UNL     1       1.239   2.900  20.993  0.00  0.00    +0.000 A 
ATOM     20  C   UNL     1       0.875   2.853  19.654  0.00  0.00    +0.000 A 
ATOM     21  C   UNL     1       1.450   3.740  18.737  0.00  0.00    +0.000 A 
ENDBRANCH  13  16
ENDBRANCH   1  14
TORSDOF 3
ENDMDL
MODEL 7
REMARK VINA RESULT:      -6.8      3.453      7.353
REMARK  Name = 
REMARK  4 active torsions:
REMARK  status: ('A' for Active; 'I' for Inactive)
REMARK    1  A    between atoms: C_1  and  N_2
REMARK    2  A    between atoms: N_2  and  C_16
REMARK    3  A    between atoms: C_3  and  C_5
REMARK    4  A    between atoms: C_5  and  N_6
REMARK                            x       y       z     vdW  Elec       q    Type
REMARK                         _______ _______ _______ _____ _____    ______ ____
ROOT
ATOM      1  C   UNL     1       2.831   5.587  18.178  0.00  0.00    +0.000 C 
ENDROOT
BRANCH   1   2
ATOM      2  N   UNL     1       4.182   5.218  18.511  0.00  0.00    +0.000 N 
ATOM      3  C   UNL     1       4.523   4.125  19.277  0.00  0.00    +0.000 A 
ATOM      4  O   UNL     1       3.738   3.312  19.748  0.00  0.00    +0.000 OA
ATOM      5  O   UNL     1       5.907   4.073  19.492  0.00  0.00    +0.000 OA
ATOM      6  C   UNL     1       6.353   5.197  18.818  0.00  0.00    +0.000 A 
ATOM      7  C   UNL     1       7.662   5.622  18.753  0.00  0.00    +0.000 A 
ATOM      8  C   UNL     1       7.921   6.793  18.035  0.00  0.00    +0.000 A 
ATOM      9  C   UNL     1       6.876   7.501  17.406  0.00  0.00    +0.000 A 
ATOM     10  C   UNL     1       5.556   7.052  17.487  0.00  0.00    +0.000 A 
ATOM     11  C   UNL     1       5.332   5.899  18.205  0.00  0.00    +0.000 A 
ENDBRANCH   1   2
BRANCH   1  14
ATOM     12  C   UNL     1       2.336   8.449  17.814  0.00  0.00    +0.000 C 
ATOM     13  N   UNL     1       1.947   7.777  19.059  0.00  0.00    +0.000 N 
ATOM     14  C   UNL     1       2.150   6.394  19.292  0.00  0.00    +0.000 C 
ATOM     15  O   UNL     1       1.724   5.786  20.278  0.00  0.00    +0.000 OA
BRANCH  13  16
ATOM     16  C   UNL     1       1.346   8.622  20.071  0.00  0.00    +0.000 A 
ATOM     17  C   UNL     1       1.533   8.388  21.441  0.00  0.00    +0.000 A 
ATOM     18  C   UNL     1       0.927   9.191  22.412  0.00  0.00    +0.000 A 
ATOM     19  C   UNL     1       0.124  10.258  22.033  0.00  0.00    +0.000 A 
ATOM     20  C   UNL     1      -0.054  10.536  20.685  0.00  0.00    +0.000 A 
ATOM     21  C   UNL     1       0.559   9.733  19.716  0.00  0.00    +0.000 A 
ENDBRANCH  13  16
ENDBRANCH   1  14
TORSDOF 3
ENDMDL
MODEL 8
REMARK VINA RESULT:      -6.7      3.448      7.341
REMARK  Name = 
REMARK  4 active torsions:
REMARK  status: ('A' for Active; 'I' for Inactive)
REMARK    1  A    between atoms: C_1  and  N_2
REMARK    2  A    between atoms: N_2  and  C_16
REMARK    3  A    between atoms: C_3  and  C_5
REMARK    4  A    between atoms: C_5  and  N_6
REMARK                            x       y       z     vdW  Elec       q    Type
REMARK                         _______ _______ _______ _____ _____    ______ ____
ROOT
ATOM      1  C   UNL     1       2.851   5.574  18.140  0.00  0.00    +0.000 C 
ENDROOT
BRANCH   1   2
ATOM      2  N   UNL     1       4.203   5.214  18.480  0.00  0.00    +0.000 N 
ATOM      3  C   UNL     1       4.548   4.123  19.245  0.00  0.00    +0.000 A 
ATOM      4  O   UNL     1       3.767   3.302  19.710  0.00  0.00    +0.000 OA
ATOM      5  O   UNL     1       5.931   4.081  19.469  0.00  0.00    +0.000 OA
ATOM      6  C   UNL     1       6.372   5.211  18.800  0.00  0.00    +0.000 A 
ATOM      7  C   UNL     1       7.678   5.646  18.744  0.00  0.00    +0.000 A 
ATOM      8  C   UNL     1       7.932   6.822  18.031  0.00  0.00    +0.000 A 
ATOM      9  C   UNL     1       6.885   7.523  17.397  0.00  0.00    +0.000 A 
ATOM     10  C   UNL     1       5.568   7.063  17.470  0.00  0.00    +0.000 A 
ATOM     11  C   UNL     1       5.349   5.906  18.183  0.00  0.00    +0.000 A 
ENDBRANCH   1   2
BRANCH   1  14
ATOM     12  C   UNL     1       2.347   8.432  17.759  0.00  0.00    +0.000 C 
ATOM     13  N   UNL     1       1.955   7.765  19.005  0.00  0.00    +0.000 N 
ATOM     14  C   UNL     1       2.162   6.384  19.247  0.00  0.00    +0.000 C 
ATOM     15  O   UNL     1       1.733   5.780  20.234  0.00  0.00    +0.000 OA
BRANCH  13  16
ATOM     16  C   UNL     1       1.345   8.613  20.010  0.00  0.00    +0.000 A 
ATOM     17  C   UNL     1       0.562   9.726  19.667  0.00  0.00    +0.000 A 
ATOM     18  C   UNL     1       0.000  10.555  20.642  0.00  0.00    +0.000 A 
ATOM     19  C   UNL     1       0.201  10.285  21.990  0.00  0.00    +0.000 A 
ATOM     20  C   UNL     1       0.944   9.172  22.361  0.00  0.00    +0.000 A 
ATOM     21  C   UNL     1       1.500   8.341  21.382  0.00  0.00    +0.000 A 
ENDBRANCH  13  16
ENDBRANCH   1  14
TORSDOF 3
ENDMDL
MODEL 9
REMARK VINA RESULT:      -6.7      2.246      6.628
REMARK  Name = 
REMARK  4 active torsions:
REMARK  status: ('A' for Active; 'I' for Inactive)
REMARK    1  A    between atoms: C_1  and  N_2
REMARK    2  A    between atoms: N_2  and  C_16
REMARK    3  A    between atoms: C_3  and  C_5
REMARK    4  A    between atoms: C_5  and  N_6
REMARK                            x       y       z     vdW  Elec       q    Type
REMARK                         _______ _______ _______ _____ _____    ______ ____
ROOT
ATOM      1  C   UNL     1       4.973   3.988  18.441  0.00  0.00    +0.000 C 
ENDROOT
BRANCH   1   2
ATOM      2  N   UNL     1       6.011   4.199  17.466  0.00  0.00    +0.000 N 
ATOM      3  C   UNL     1       7.309   4.541  17.774  0.00  0.00    +0.000 A 
ATOM      4  O   UNL     1       7.760   4.682  18.904  0.00  0.00    +0.000 OA
ATOM      5  O   UNL     1       8.063   4.753  16.612  0.00  0.00    +0.000 OA
ATOM      6  C   UNL     1       7.134   4.523  15.611  0.00  0.00    +0.000 A 
ATOM      7  C   UNL     1       7.373   4.638  14.260  0.00  0.00    +0.000 A 
ATOM      8  C   UNL     1       6.304   4.380  13.395  0.00  0.00    +0.000 A 
ATOM      9  C   UNL     1       5.039   4.018  13.900  0.00  0.00    +0.000 A 
ATOM     10  C   UNL     1       4.819   3.910  15.276  0.00  0.00    +0.000 A 
ATOM     11  C   UNL     1       5.889   4.175  16.100  0.00  0.00    +0.000 A 
ENDBRANCH   1   2
BRANCH   1  14
ATOM     12  C   UNL     1       2.200   4.674  17.797  0.00  0.00    +0.000 C 
ATOM     13  N   UNL     1       3.027   5.583  18.599  0.00  0.00    +0.000 N 
ATOM     14  C   UNL     1       4.371   5.305  18.952  0.00  0.00    +0.000 C 
ATOM     15  O   UNL     1       5.043   5.996  19.724  0.00  0.00    +0.000 OA
BRANCH  13  16
ATOM     16  C   UNL     1       2.391   6.820  19.007  0.00  0.00    +0.000 A 
ATOM     17  C   UNL     1       2.232   7.899  18.126  0.00  0.00    +0.000 A 
ATOM     18  C   UNL     1       1.642   9.100  18.535  0.00  0.00    +0.000 A 
ATOM     19  C   UNL     1       1.186   9.245  19.838  0.00  0.00    +0.000 A 
ATOM     20  C   UNL     1       1.299   8.182  20.725  0.00  0.00    +0.000 A 
ATOM     21  C   UNL     1       1.885   6.981  20.310  0.00  0.00    +0.000 A 
ENDBRANCH  13  16
ENDBRANCH   1  14
TORSDOF 3
ENDMDL
