MODEL 1
REMARK VINA RESULT:      -7.3      0.000      0.000
REMARK  Name = 
REMARK  5 active torsions:
REMARK  status: ('A' for Active; 'I' for Inactive)
REMARK    1  A    between atoms: C_2  and  O_3
REMARK    2  A    between atoms: C_2  and  C_19
REMARK    3  A    between atoms: O_3  and  C_4
REMARK    4  A    between atoms: C_10  and  C_11
REMARK    5  A    between atoms: C_11  and  N_13
REMARK                            x       y       z     vdW  Elec       q    Type
REMARK                         _______ _______ _______ _____ _____    ______ ____
ROOT
ATOM      1  C   UNL     1       3.952   6.371  17.825  0.00  0.00    +0.000 A 
ATOM      2  C   UNL     1       5.092   6.943  17.233  0.00  0.00    +0.000 A 
ATOM      3  C   UNL     1       5.810   6.248  16.258  0.00  0.00    +0.000 A 
ATOM      4  C   UNL     1       5.394   4.978  15.880  0.00  0.00    +0.000 A 
ATOM      5 BR   UNL     1       6.295   4.072  14.485  0.00  0.00    +0.000 Br
ATOM      6  C   UNL     1       4.314   4.369  16.519  0.00  0.00    +0.000 A 
ATOM      7  C   UNL     1       3.586   5.044  17.526  0.00  0.00    +0.000 A 
ENDROOT
BRANCH   7   8
ATOM      8  C   UNL     1       2.467   4.291  18.209  0.00  0.00    +0.000 C 
ATOM      9  S   UNL     1       0.996   4.063  17.381  0.00  0.00    +0.000 S 
BRANCH   8  10
ATOM     10  N   UNL     1       2.686   3.798  19.514  0.00  0.00    +0.000 N 
ATOM     11  C   UNL     1       3.980   3.209  19.926  0.00  0.00    +0.000 C 
ATOM     12  C   UNL     1       3.782   2.056  20.914  0.00  0.00    +0.000 C 
ATOM     13  O   UNL     1       2.976   2.445  22.035  0.00  0.00    +0.000 OA
ATOM     14  C   UNL     1       1.692   2.906  21.596  0.00  0.00    +0.000 C 
ATOM     15  C   UNL     1       1.835   4.122  20.674  0.00  0.00    +0.000 C 
ENDBRANCH   8  10
ENDBRANCH   7   8
BRANCH   1  16
ATOM     16  O   UNL     1       3.314   7.227  18.758  0.00  0.00    +0.000 OA
BRANCH  16  18
ATOM     17  O   UNL     1       2.368   8.680  17.194  0.00  0.00    +0.000 OA
ATOM     18  C   UNL     1       2.430   8.197  18.310  0.00  0.00    +0.000 C 
BRANCH  18  19
ATOM     19  C   UNL     1       1.510   8.626  19.397  0.00  0.00    +0.000 A 
ATOM     20  C   UNL     1       0.666   9.722  19.146  0.00  0.00    +0.000 A 
ATOM     21  C   UNL     1      -0.119  10.258  20.171  0.00  0.00    +0.000 A 
ATOM     22  C   UNL     1      -0.058   9.699  21.440  0.00  0.00    +0.000 A 
ATOM     23  F   UNL     1      -0.772  10.242  22.433  0.00  0.00    +0.000 F 
ATOM     24  C   UNL     1       0.755   8.600  21.699  0.00  0.00    +0.000 A 
ATOM     25  C   UNL     1       1.539   8.052  20.675  0.00  0.00    +0.000 A 
ENDBRANCH  18  19
ENDBRANCH  16  18
ENDBRANCH   1  16
TORSDOF 5
ENDMDL
MODEL 2
REMARK VINA RESULT:      -6.9      0.404      1.037
REMARK  Name = 
REMARK  5 active torsions:
REMARK  status: ('A' for Active; 'I' for Inactive)
REMARK    1  A    between atoms: C_2  and  O_3
REMARK    2  A    between atoms: C_2  and  C_19
REMARK    3  A    between atoms: O_3  and  C_4
REMARK    4  A    between atoms: C_10  and  C_11
REMARK    5  A    between atoms: C_11  and  N_13
REMARK                            x       y       z     vdW  Elec       q    Type
REMARK                         _______ _______ _______ _____ _____    ______ ____
ROOT
ATOM      1  C   UNL     1       3.873   6.238  17.919  0.00  0.00    +0.000 A 
ATOM      2  C   UNL     1       5.055   6.830  17.440  0.00  0.00    +0.000 A 
ATOM      3  C   UNL     1       5.833   6.182  16.479  0.00  0.00    +0.000 A 
ATOM      4  C   UNL     1       5.435   4.941  16.002  0.00  0.00    +0.000 A 
ATOM      5 BR   UNL     1       6.422   4.104  14.622  0.00  0.00    +0.000 Br
ATOM      6  C   UNL     1       4.308   4.309  16.530  0.00  0.00    +0.000 A 
ATOM      7  C   UNL     1       3.518   4.934  17.521  0.00  0.00    +0.000 A 
ENDROOT
BRANCH   7   8
ATOM      8  C   UNL     1       2.349   4.157  18.082  0.00  0.00    +0.000 C 
ATOM      9  S   UNL     1       0.864   4.178  17.249  0.00  0.00    +0.000 S 
BRANCH   8  10
ATOM     10  N   UNL     1       2.535   3.434  19.282  0.00  0.00    +0.000 N 
ATOM     11  C   UNL     1       1.547   3.472  20.383  0.00  0.00    +0.000 C 
ATOM     12  C   UNL     1       2.231   3.407  21.752  0.00  0.00    +0.000 C 
ATOM     13  O   UNL     1       3.120   2.286  21.853  0.00  0.00    +0.000 OA
ATOM     14  C   UNL     1       4.126   2.349  20.833  0.00  0.00    +0.000 C 
ATOM     15  C   UNL     1       3.491   2.324  19.439  0.00  0.00    +0.000 C 
ENDBRANCH   8  10
ENDBRANCH   7   8
BRANCH   1  16
ATOM     16  O   UNL     1       3.179   7.047  18.854  0.00  0.00    +0.000 OA
BRANCH  16  18
ATOM     17  O   UNL     1       2.299   8.522  17.272  0.00  0.00    +0.000 OA
ATOM     18  C   UNL     1       2.369   8.079  18.404  0.00  0.00    +0.000 C 
BRANCH  18  19
ATOM     19  C   UNL     1       1.547   8.637  19.511  0.00  0.00    +0.000 A 
ATOM     20  C   UNL     1       0.879   9.852  19.282  0.00  0.00    +0.000 A 
ATOM     21  C   UNL     1       0.206  10.496  20.325  0.00  0.00    +0.000 A 
ATOM     22  C   UNL     1       0.203   9.923  21.589  0.00  0.00    +0.000 A 
ATOM     23  F   UNL     1      -0.401  10.562  22.599  0.00  0.00    +0.000 F 
ATOM     24  C   UNL     1       0.839   8.709  21.827  0.00  0.00    +0.000 A 
ATOM     25  C   UNL     1       1.510   8.055  20.786  0.00  0.00    +0.000 A 
ENDBRANCH  18  19
ENDBRANCH  16  18
ENDBRANCH   1  16
TORSDOF 5
ENDMDL
MODEL 3
REMARK VINA RESULT:      -6.9      2.629      4.147
REMARK  Name = 
REMARK  5 active torsions:
REMARK  status: ('A' for Active; 'I' for Inactive)
REMARK    1  A    between atoms: C_2  and  O_3
REMARK    2  A    between atoms: C_2  and  C_19
REMARK    3  A    between atoms: O_3  and  C_4
REMARK    4  A    between atoms: C_10  and  C_11
REMARK    5  A    between atoms: C_11  and  N_13
REMARK                            x       y       z     vdW  Elec       q    Type
REMARK                         _______ _______ _______ _____ _____    ______ ____
ROOT
ATOM      1  C   UNL     1       2.289   6.238  19.767  0.00  0.00    +0.000 A 
ATOM      2  C   UNL     1       1.175   5.654  20.394  0.00  0.00    +0.000 A 
ATOM      3  C   UNL     1       0.888   4.300  20.216  0.00  0.00    +0.000 A 
ATOM      4  C   UNL     1       1.711   3.530  19.404  0.00  0.00    +0.000 A 
ATOM      5 BR   UNL     1       1.397   1.671  19.241  0.00  0.00    +0.000 Br
ATOM      6  C   UNL     1       2.771   4.118  18.712  0.00  0.00    +0.000 A 
ATOM      7  C   UNL     1       3.065   5.493  18.858  0.00  0.00    +0.000 A 
ENDROOT
BRANCH   7   8
ATOM      8  C   UNL     1       4.192   6.062  18.028  0.00  0.00    +0.000 C 
ATOM      9  S   UNL     1       3.904   7.444  17.075  0.00  0.00    +0.000 S 
BRANCH   8  10
ATOM     10  N   UNL     1       5.453   5.426  18.078  0.00  0.00    +0.000 N 
ATOM     11  C   UNL     1       6.284   5.422  19.302  0.00  0.00    +0.000 C 
ATOM     12  C   UNL     1       7.777   5.500  18.968  0.00  0.00    +0.000 C 
ATOM     13  O   UNL     1       8.169   4.482  18.037  0.00  0.00    +0.000 OA
ATOM     14  C   UNL     1       7.414   4.593  16.823  0.00  0.00    +0.000 C 
ATOM     15  C   UNL     1       5.916   4.429  17.096  0.00  0.00    +0.000 C 
ENDBRANCH   8  10
ENDBRANCH   7   8
BRANCH   1  16
ATOM     16  O   UNL     1       2.462   7.608  20.090  0.00  0.00    +0.000 OA
BRANCH  16  18
ATOM     17  O   UNL     1       1.436   8.799  18.364  0.00  0.00    +0.000 OA
ATOM     18  C   UNL     1       1.612   8.557  19.544  0.00  0.00    +0.000 C 
BRANCH  18  19
ATOM     19  C   UNL     1       0.893   9.308  20.609  0.00  0.00    +0.000 A 
ATOM     20  C   UNL     1       1.016   8.847  21.931  0.00  0.00    +0.000 A 
ATOM     21  C   UNL     1       0.257   9.423  22.953  0.00  0.00    +0.000 A 
ATOM     22  C   UNL     1      -0.620  10.456  22.651  0.00  0.00    +0.000 A 
ATOM     23  F   UNL     1      -1.382  10.976  23.620  0.00  0.00    +0.000 F 
ATOM     24  C   UNL     1      -0.737  10.939  21.352  0.00  0.00    +0.000 A 
ATOM     25  C   UNL     1       0.027  10.372  20.323  0.00  0.00    +0.000 A 
ENDBRANCH  18  19
ENDBRANCH  16  18
ENDBRANCH   1  16
TORSDOF 5
ENDMDL
MODEL 4
REMARK VINA RESULT:      -6.7      4.308      6.688
REMARK  Name = 
REMARK  5 active torsions:
REMARK  status: ('A' for Active; 'I' for Inactive)
REMARK    1  A    between atoms: C_2  and  O_3
REMARK    2  A    between atoms: C_2  and  C_19
REMARK    3  A    between atoms: O_3  and  C_4
REMARK    4  A    between atoms: C_10  and  C_11
REMARK    5  A    between atoms: C_11  and  N_13
REMARK                            x       y       z     vdW  Elec       q    Type
REMARK                         _______ _______ _______ _____ _____    ______ ____
ROOT
ATOM      1  C   UNL     1       4.646   5.176  17.117  0.00  0.00    +0.000 A 
ATOM      2  C   UNL     1       5.032   6.437  16.632  0.00  0.00    +0.000 A 
ATOM      3  C   UNL     1       4.250   7.566  16.886  0.00  0.00    +0.000 A 
ATOM      4  C   UNL     1       3.078   7.432  17.618  0.00  0.00    +0.000 A 
ATOM      5 BR   UNL     1       2.068   8.969  18.062  0.00  0.00    +0.000 Br
ATOM      6  C   UNL     1       2.644   6.173  18.034  0.00  0.00    +0.000 A 
ATOM      7  C   UNL     1       3.407   5.013  17.768  0.00  0.00    +0.000 A 
ENDROOT
BRANCH   7   8
ATOM      8  C   UNL     1       2.837   3.682  18.200  0.00  0.00    +0.000 C 
ATOM      9  S   UNL     1       2.460   2.517  17.016  0.00  0.00    +0.000 S 
BRANCH   8  10
ATOM     10  N   UNL     1       2.640   3.450  19.580  0.00  0.00    +0.000 N 
ATOM     11  C   UNL     1       3.745   3.030  20.471  0.00  0.00    +0.000 C 
ATOM     12  C   UNL     1       3.254   2.065  21.556  0.00  0.00    +0.000 C 
ATOM     13  O   UNL     1       2.138   2.600  22.281  0.00  0.00    +0.000 OA
ATOM     14  C   UNL     1       1.052   2.890  21.391  0.00  0.00    +0.000 C 
ATOM     15  C   UNL     1       1.470   3.924  20.340  0.00  0.00    +0.000 C 
ENDBRANCH   8  10
ENDBRANCH   7   8
BRANCH   1  16
ATOM     16  O   UNL     1       5.573   4.148  16.811  0.00  0.00    +0.000 OA
BRANCH  16  18
ATOM     17  O   UNL     1       7.830   4.681  17.079  0.00  0.00    +0.000 OA
ATOM     18  C   UNL     1       6.851   4.478  16.386  0.00  0.00    +0.000 C 
BRANCH  18  19
ATOM     19  C   UNL     1       6.913   4.577  14.902  0.00  0.00    +0.000 A 
ATOM     20  C   UNL     1       6.108   3.700  14.155  0.00  0.00    +0.000 A 
ATOM     21  C   UNL     1       6.224   3.648  12.763  0.00  0.00    +0.000 A 
ATOM     22  C   UNL     1       7.142   4.471  12.125  0.00  0.00    +0.000 A 
ATOM     23  F   UNL     1       7.288   4.387  10.797  0.00  0.00    +0.000 F 
ATOM     24  C   UNL     1       7.930   5.360  12.848  0.00  0.00    +0.000 A 
ATOM     25  C   UNL     1       7.814   5.423  14.243  0.00  0.00    +0.000 A 
ENDBRANCH  18  19
ENDBRANCH  16  18
ENDBRANCH   1  16
TORSDOF 5
ENDMDL
MODEL 5
REMARK VINA RESULT:      -6.7      4.986      7.655
REMARK  Name = 
REMARK  5 active torsions:
REMARK  status: ('A' for Active; 'I' for Inactive)
REMARK    1  A    between atoms: C_2  and  O_3
REMARK    2  A    between atoms: C_2  and  C_19
REMARK    3  A    between atoms: O_3  and  C_4
REMARK    4  A    between atoms: C_10  and  C_11
REMARK    5  A    between atoms: C_11  and  N_13
REMARK                            x       y       z     vdW  Elec       q    Type
REMARK                         _______ _______ _______ _____ _____    ______ ____
ROOT
ATOM      1  C   UNL     1       3.698   3.869  17.113  0.00  0.00    +0.000 A 
ATOM      2  C   UNL     1       3.186   2.579  17.335  0.00  0.00    +0.000 A 
ATOM      3  C   UNL     1       2.459   2.292  18.493  0.00  0.00    +0.000 A 
ATOM      4  C   UNL     1       2.251   3.293  19.432  0.00  0.00    +0.000 A 
ATOM      5 BR   UNL     1       1.177   2.948  20.951  0.00  0.00    +0.000 Br
ATOM      6  C   UNL     1       2.824   4.554  19.260  0.00  0.00    +0.000 A 
ATOM      7  C   UNL     1       3.584   4.861  18.108  0.00  0.00    +0.000 A 
ENDROOT
BRANCH   7   8
ATOM      8  C   UNL     1       4.218   6.229  18.027  0.00  0.00    +0.000 C 
ATOM      9  S   UNL     1       3.220   7.595  17.828  0.00  0.00    +0.000 S 
BRANCH   8  10
ATOM     10  N   UNL     1       5.624   6.327  18.126  0.00  0.00    +0.000 N 
ATOM     11  C   UNL     1       6.417   5.417  18.982  0.00  0.00    +0.000 C 
ATOM     12  C   UNL     1       7.615   6.138  19.608  0.00  0.00    +0.000 C 
ATOM     13  O   UNL     1       8.418   6.798  18.620  0.00  0.00    +0.000 OA
ATOM     14  C   UNL     1       7.634   7.749  17.888  0.00  0.00    +0.000 C 
ATOM     15  C   UNL     1       6.472   7.057  17.166  0.00  0.00    +0.000 C 
ENDBRANCH   8  10
ENDBRANCH   7   8
BRANCH   1  16
ATOM     16  O   UNL     1       4.368   4.001  15.871  0.00  0.00    +0.000 OA
BRANCH  16  18
ATOM     17  O   UNL     1       6.482   3.477  16.711  0.00  0.00    +0.000 OA
ATOM     18  C   UNL     1       5.737   3.792  15.802  0.00  0.00    +0.000 C 
BRANCH  18  19
ATOM     19  C   UNL     1       6.244   4.014  14.421  0.00  0.00    +0.000 A 
ATOM     20  C   UNL     1       7.317   4.906  14.253  0.00  0.00    +0.000 A 
ATOM     21  C   UNL     1       7.745   5.262  12.971  0.00  0.00    +0.000 A 
ATOM     22  C   UNL     1       7.101   4.725  11.864  0.00  0.00    +0.000 A 
ATOM     23  F   UNL     1       7.480   5.102  10.637  0.00  0.00    +0.000 F 
ATOM     24  C   UNL     1       6.053   3.824  12.013  0.00  0.00    +0.000 A 
ATOM     25  C   UNL     1       5.623   3.456  13.295  0.00  0.00    +0.000 A 
ENDBRANCH  18  19
ENDBRANCH  16  18
ENDBRANCH   1  16
TORSDOF 5
ENDMDL
MODEL 6
REMARK VINA RESULT:      -6.6      1.923      2.454
REMARK  Name = 
REMARK  5 active torsions:
REMARK  status: ('A' for Active; 'I' for Inactive)
REMARK    1  A    between atoms: C_2  and  O_3
REMARK    2  A    between atoms: C_2  and  C_19
REMARK    3  A    between atoms: O_3  and  C_4
REMARK    4  A    between atoms: C_10  and  C_11
REMARK    5  A    between atoms: C_11  and  N_13
REMARK                            x       y       z     vdW  Elec       q    Type
REMARK                         _______ _______ _______ _____ _____    ______ ____
ROOT
ATOM      1  C   UNL     1       4.687   6.176  16.834  0.00  0.00    +0.000 A 
ATOM      2  C   UNL     1       4.797   6.762  15.561  0.00  0.00    +0.000 A 
ATOM      3  C   UNL     1       5.330   6.041  14.491  0.00  0.00    +0.000 A 
ATOM      4  C   UNL     1       5.761   4.737  14.695  0.00  0.00    +0.000 A 
ATOM      5 BR   UNL     1       6.384   3.714  13.230  0.00  0.00    +0.000 Br
ATOM      6  C   UNL     1       5.731   4.174  15.971  0.00  0.00    +0.000 A 
ATOM      7  C   UNL     1       5.218   4.893  17.075  0.00  0.00    +0.000 A 
ENDROOT
BRANCH   7   8
ATOM      8  C   UNL     1       5.278   4.234  18.433  0.00  0.00    +0.000 C 
ATOM      9  S   UNL     1       6.561   4.616  19.485  0.00  0.00    +0.000 S 
BRANCH   8  10
ATOM     10  N   UNL     1       4.257   3.322  18.784  0.00  0.00    +0.000 N 
ATOM     11  C   UNL     1       3.529   2.528  17.769  0.00  0.00    +0.000 C 
ATOM     12  C   UNL     1       2.061   2.330  18.160  0.00  0.00    +0.000 C 
ATOM     13  O   UNL     1       1.928   1.785  19.480  0.00  0.00    +0.000 OA
ATOM     14  C   UNL     1       2.554   2.642  20.443  0.00  0.00    +0.000 C 
ATOM     15  C   UNL     1       4.049   2.797  20.146  0.00  0.00    +0.000 C 
ENDBRANCH   8  10
ENDBRANCH   7   8
BRANCH   1  16
ATOM     16  O   UNL     1       4.082   7.026  17.794  0.00  0.00    +0.000 OA
BRANCH  16  18
ATOM     17  O   UNL     1       2.110   5.802  18.045  0.00  0.00    +0.000 OA
ATOM     18  C   UNL     1       2.757   6.828  18.151  0.00  0.00    +0.000 C 
BRANCH  18  19
ATOM     19  C   UNL     1       2.159   8.073  18.704  0.00  0.00    +0.000 A 
ATOM     20  C   UNL     1       1.716   8.049  20.038  0.00  0.00    +0.000 A 
ATOM     21  C   UNL     1       1.021   9.139  20.571  0.00  0.00    +0.000 A 
ATOM     22  C   UNL     1       0.774  10.246  19.771  0.00  0.00    +0.000 A 
ATOM     23  F   UNL     1       0.068  11.270  20.265  0.00  0.00    +0.000 F 
ATOM     24  C   UNL     1       1.226  10.295  18.457  0.00  0.00    +0.000 A 
ATOM     25  C   UNL     1       1.929   9.210  17.917  0.00  0.00    +0.000 A 
ENDBRANCH  18  19
ENDBRANCH  16  18
ENDBRANCH   1  16
TORSDOF 5
ENDMDL
MODEL 7
REMARK VINA RESULT:      -6.6      5.153      8.542
REMARK  Name = 
REMARK  5 active torsions:
REMARK  status: ('A' for Active; 'I' for Inactive)
REMARK    1  A    between atoms: C_2  and  O_3
REMARK    2  A    between atoms: C_2  and  C_19
REMARK    3  A    between atoms: O_3  and  C_4
REMARK    4  A    between atoms: C_10  and  C_11
REMARK    5  A    between atoms: C_11  and  N_13
REMARK                            x       y       z     vdW  Elec       q    Type
REMARK                         _______ _______ _______ _____ _____    ______ ____
ROOT
ATOM      1  C   UNL     1      -0.307  10.478  18.593  0.00  0.00    +0.000 A 
ATOM      2  C   UNL     1      -0.947   9.695  17.617  0.00  0.00    +0.000 A 
ATOM      3  C   UNL     1      -2.242  10.004  17.195  0.00  0.00    +0.000 A 
ATOM      4  C   UNL     1      -2.900  11.091  17.755  0.00  0.00    +0.000 A 
ATOM      5 BR   UNL     1      -4.610  11.585  17.115  0.00  0.00    +0.000 Br
ATOM      6  C   UNL     1      -2.304  11.825  18.782  0.00  0.00    +0.000 A 
ATOM      7  C   UNL     1      -1.004  11.516  19.243  0.00  0.00    +0.000 A 
ENDROOT
BRANCH   7   8
ATOM      8  C   UNL     1      -0.457  12.321  20.398  0.00  0.00    +0.000 C 
ATOM      9  S   UNL     1      -1.057  12.035  21.966  0.00  0.00    +0.000 S 
BRANCH   8  10
ATOM     10  N   UNL     1       0.542  13.285  20.134  0.00  0.00    +0.000 N 
ATOM     11  C   UNL     1       1.945  13.100  20.564  0.00  0.00    +0.000 C 
ATOM     12  C   UNL     1       2.587  14.431  20.970  0.00  0.00    +0.000 C 
ATOM     13  O   UNL     1       2.456  15.423  19.942  0.00  0.00    +0.000 OA
ATOM     14  C   UNL     1       1.074  15.648  19.635  0.00  0.00    +0.000 C 
ATOM     15  C   UNL     1       0.410  14.361  19.135  0.00  0.00    +0.000 C 
ENDBRANCH   8  10
ENDBRANCH   7   8
BRANCH   1  16
ATOM     16  O   UNL     1       1.018  10.057  18.871  0.00  0.00    +0.000 OA
BRANCH  16  18
ATOM     17  O   UNL     1       0.812   8.864  20.868  0.00  0.00    +0.000 OA
ATOM     18  C   UNL     1       1.235   8.993  19.734  0.00  0.00    +0.000 C 
BRANCH  18  19
ATOM     19  C   UNL     1       2.099   7.959  19.102  0.00  0.00    +0.000 A 
ATOM     20  C   UNL     1       2.328   6.771  19.818  0.00  0.00    +0.000 A 
ATOM     21  C   UNL     1       3.238   5.824  19.342  0.00  0.00    +0.000 A 
ATOM     22  C   UNL     1       3.915   6.066  18.154  0.00  0.00    +0.000 A 
ATOM     23  F   UNL     1       4.822   5.182  17.722  0.00  0.00    +0.000 F 
ATOM     24  C   UNL     1       3.683   7.226  17.422  0.00  0.00    +0.000 A 
ATOM     25  C   UNL     1       2.766   8.177  17.889  0.00  0.00    +0.000 A 
ENDBRANCH  18  19
ENDBRANCH  16  18
ENDBRANCH   1  16
TORSDOF 5
ENDMDL
MODEL 8
REMARK VINA RESULT:      -6.5      5.249      8.613
REMARK  Name = 
REMARK  5 active torsions:
REMARK  status: ('A' for Active; 'I' for Inactive)
REMARK    1  A    between atoms: C_2  and  O_3
REMARK    2  A    between atoms: C_2  and  C_19
REMARK    3  A    between atoms: O_3  and  C_4
REMARK    4  A    between atoms: C_10  and  C_11
REMARK    5  A    between atoms: C_11  and  N_13
REMARK                            x       y       z     vdW  Elec       q    Type
REMARK                         _______ _______ _______ _____ _____    ______ ____
ROOT
ATOM      1  C   UNL     1      -0.600  10.560  18.414  0.00  0.00    +0.000 A 
ATOM      2  C   UNL     1      -1.344   9.754  17.535  0.00  0.00    +0.000 A 
ATOM      3  C   UNL     1      -2.665  10.076  17.222  0.00  0.00    +0.000 A 
ATOM      4  C   UNL     1      -3.247  11.200  17.794  0.00  0.00    +0.000 A 
ATOM      5 BR   UNL     1      -5.000  11.708  17.294  0.00  0.00    +0.000 Br
ATOM      6  C   UNL     1      -2.545  11.960  18.730  0.00  0.00    +0.000 A 
ATOM      7  C   UNL     1      -1.214  11.639  19.081  0.00  0.00    +0.000 A 
ENDROOT
BRANCH   7   8
ATOM      8  C   UNL     1      -0.546  12.478  20.146  0.00  0.00    +0.000 C 
ATOM      9  S   UNL     1      -1.010  12.276  21.772  0.00  0.00    +0.000 S 
BRANCH   8  10
ATOM     10  N   UNL     1       0.449  13.400  19.752  0.00  0.00    +0.000 N 
ATOM     11  C   UNL     1       1.892  13.084  19.835  0.00  0.00    +0.000 C 
ATOM     12  C   UNL     1       2.717  14.321  20.204  0.00  0.00    +0.000 C 
ATOM     13  O   UNL     1       2.448  15.423  19.327  0.00  0.00    +0.000 OA
ATOM     14  C   UNL     1       1.056  15.765  19.361  0.00  0.00    +0.000 C 
ATOM     15  C   UNL     1       0.193  14.583  18.909  0.00  0.00    +0.000 C 
ENDBRANCH   8  10
ENDBRANCH   7   8
BRANCH   1  16
ATOM     16  O   UNL     1       0.736  10.119  18.587  0.00  0.00    +0.000 OA
BRANCH  16  18
ATOM     17  O   UNL     1       0.611   9.217  20.736  0.00  0.00    +0.000 OA
ATOM     18  C   UNL     1       1.039   9.219  19.597  0.00  0.00    +0.000 C 
BRANCH  18  19
ATOM     19  C   UNL     1       2.008   8.193  19.126  0.00  0.00    +0.000 A 
ATOM     20  C   UNL     1       2.624   8.398  17.879  0.00  0.00    +0.000 A 
ATOM     21  C   UNL     1       3.435   7.406  17.320  0.00  0.00    +0.000 A 
ATOM     22  C   UNL     1       3.627   6.216  18.009  0.00  0.00    +0.000 A 
ATOM     23  F   UNL     1       4.365   5.247  17.453  0.00  0.00    +0.000 F 
ATOM     24  C   UNL     1       3.044   6.006  19.254  0.00  0.00    +0.000 A 
ATOM     25  C   UNL     1       2.236   6.999  19.824  0.00  0.00    +0.000 A 
ENDBRANCH  18  19
ENDBRANCH  16  18
ENDBRANCH   1  16
TORSDOF 5
ENDMDL
MODEL 9
REMARK VINA RESULT:      -6.5      3.854      6.962
REMARK  Name = 
REMARK  5 active torsions:
REMARK  status: ('A' for Active; 'I' for Inactive)
REMARK    1  A    between atoms: C_2  and  O_3
REMARK    2  A    between atoms: C_2  and  C_19
REMARK    3  A    between atoms: O_3  and  C_4
REMARK    4  A    between atoms: C_10  and  C_11
REMARK    5  A    between atoms: C_11  and  N_13
REMARK                            x       y       z     vdW  Elec       q    Type
REMARK                         _______ _______ _______ _____ _____    ______ ____
ROOT
ATOM      1  C   UNL     1       4.705   4.852  18.805  0.00  0.00    +0.000 A 
ATOM      2  C   UNL     1       4.730   3.557  19.352  0.00  0.00    +0.000 A 
ATOM      3  C   UNL     1       3.558   2.803  19.446  0.00  0.00    +0.000 A 
ATOM      4  C   UNL     1       2.360   3.346  19.001  0.00  0.00    +0.000 A 
ATOM      5 BR   UNL     1       0.787   2.296  19.023  0.00  0.00    +0.000 Br
ATOM      6  C   UNL     1       2.311   4.660  18.533  0.00  0.00    +0.000 A 
ATOM      7  C   UNL     1       3.479   5.451  18.451  0.00  0.00    +0.000 A 
ENDROOT
BRANCH   7   8
ATOM      8  C   UNL     1       3.329   6.881  17.989  0.00  0.00    +0.000 C 
ATOM      9  S   UNL     1       4.304   7.447  16.712  0.00  0.00    +0.000 S 
BRANCH   8  10
ATOM     10  N   UNL     1       2.377   7.701  18.635  0.00  0.00    +0.000 N 
ATOM     11  C   UNL     1       1.552   8.681  17.893  0.00  0.00    +0.000 C 
ATOM     12  C   UNL     1       1.293   9.940  18.726  0.00  0.00    +0.000 C 
ATOM     13  O   UNL     1       0.745   9.627  20.014  0.00  0.00    +0.000 OA
ATOM     14  C   UNL     1       1.630   8.763  20.739  0.00  0.00    +0.000 C 
ATOM     15  C   UNL     1       1.846   7.447  19.986  0.00  0.00    +0.000 C 
ENDBRANCH   8  10
ENDBRANCH   7   8
BRANCH   1  16
ATOM     16  O   UNL     1       5.984   5.459  18.740  0.00  0.00    +0.000 OA
BRANCH  16  18
ATOM     17  O   UNL     1       8.052   4.388  18.569  0.00  0.00    +0.000 OA
ATOM     18  C   UNL     1       7.020   4.812  18.082  0.00  0.00    +0.000 C 
BRANCH  18  19
ATOM     19  C   UNL     1       6.734   4.684  16.628  0.00  0.00    +0.000 A 
ATOM     20  C   UNL     1       5.835   3.681  16.224  0.00  0.00    +0.000 A 
ATOM     21  C   UNL     1       5.633   3.420  14.865  0.00  0.00    +0.000 A 
ATOM     22  C   UNL     1       6.327   4.162  13.919  0.00  0.00    +0.000 A 
ATOM     23  F   UNL     1       6.169   3.881  12.619  0.00  0.00    +0.000 F 
ATOM     24  C   UNL     1       7.202   5.172  14.302  0.00  0.00    +0.000 A 
ATOM     25  C   UNL     1       7.404   5.445  15.661  0.00  0.00    +0.000 A 
ENDBRANCH  18  19
ENDBRANCH  16  18
ENDBRANCH   1  16
TORSDOF 5
ENDMDL
