MODEL 1
REMARK VINA RESULT:      -8.9      0.000      0.000
REMARK  Name = 
REMARK  8 active torsions:
REMARK  status: ('A' for Active; 'I' for Inactive)
REMARK    1  A    between atoms: C_1  and  C_2
REMARK    2  A    between atoms: C_2  and  C_3
REMARK    3  A    between atoms: C_3  and  S_4
REMARK    4  A    between atoms: S_4  and  N_7
REMARK    5  A    between atoms: N_7  and  C_8
REMARK    6  A    between atoms: C_13  and  C_14
REMARK    7  A    between atoms: N_16  and  C_17
REMARK    8  A    between atoms: C_22  and  C_23
REMARK                            x       y       z     vdW  Elec       q    Type
REMARK                         _______ _______ _______ _____ _____    ______ ____
ROOT
ATOM      1  C   UNL     1       1.973   5.987  19.857  0.00  0.00    +0.000 C 
ATOM      2  O   UNL     1       1.260   5.518  20.737  0.00  0.00    +0.000 OA
ATOM      3  N   UNL     1       2.108   7.356  19.613  0.00  0.00    +0.000 N 
ATOM      4  H   UNL     1       2.601   7.652  18.776  0.00  0.00    +0.000 HD
ENDROOT
BRANCH   3   5
ATOM      5  C   UNL     1       1.486   8.384  20.384  0.00  0.00    +0.000 A 
ATOM      6  C   UNL     1       1.660   8.510  21.771  0.00  0.00    +0.000 A 
ATOM      7  N   UNL     1       1.069   9.427  22.586  0.00  0.00    +0.000 NA
ATOM      8  C   UNL     1       0.232  10.225  21.910  0.00  0.00    +0.000 A 
ATOM      9  N   UNL     1      -0.558  11.183  22.455  0.00  0.00    +0.000 N 
ATOM     10  C   UNL     1      -1.328  11.737  21.457  0.00  0.00    +0.000 A 
ATOM     11  N   UNL     1      -1.008  11.197  20.285  0.00  0.00    +0.000 NA
ATOM     12  C   UNL     1      -0.040  10.244  20.555  0.00  0.00    +0.000 A 
ATOM     13  C   UNL     1       0.645   9.316  19.744  0.00  0.00    +0.000 A 
ATOM     14  H   UNL     1      -0.626  11.373  23.441  0.00  0.00    +0.000 HD
BRANCH  10  15
ATOM     15  C   UNL     1      -2.391  12.709  21.753  0.00  0.00    +0.000 A 
ATOM     16  C   UNL     1      -3.408  12.988  20.822  0.00  0.00    +0.000 A 
ATOM     17  C   UNL     1      -4.361  13.980  21.070  0.00  0.00    +0.000 A 
ATOM     18  C   UNL     1      -4.313  14.709  22.257  0.00  0.00    +0.000 A 
ATOM     19  C   UNL     1      -3.326  14.430  23.200  0.00  0.00    +0.000 A 
ATOM     20  C   UNL     1      -2.374  13.432  22.952  0.00  0.00    +0.000 A 
ENDBRANCH  10  15
ENDBRANCH   3   5
BRANCH   1  26
ATOM     21  C   UNL     1       4.819   4.001  18.294  0.00  0.00    +0.000 A 
ATOM     22  C   UNL     1       4.158   3.247  17.329  0.00  0.00    +0.000 A 
ATOM     23  C   UNL     1       2.768   3.347  17.210  0.00  0.00    +0.000 A 
ATOM     24  C   UNL     1       2.054   4.225  18.034  0.00  0.00    +0.000 A 
ATOM     25  F   UNL     1       0.718   4.260  17.899  0.00  0.00    +0.000 F 
ATOM     26  C   UNL     1       2.698   5.022  18.979  0.00  0.00    +0.000 A 
ATOM     27  C   UNL     1       4.094   4.896  19.096  0.00  0.00    +0.000 A 
ATOM     28  F   UNL     1       4.789   5.595  20.008  0.00  0.00    +0.000 F 
BRANCH  21  29
ATOM     29  N   UNL     1       6.248   3.882  18.433  0.00  0.00    +0.000 N 
ATOM     30  H   UNL     1       6.536   4.020  19.413  0.00  0.00    +0.000 HD
BRANCH  29  31
ATOM     31  S   UNL     1       7.177   5.007  17.546  0.00  0.00    +0.000 S 
ATOM     32  O   UNL     1       8.252   4.230  16.975  0.00  0.00    +0.000 OA
ATOM     33  O   UNL     1       7.419   6.177  18.360  0.00  0.00    +0.000 OA
BRANCH  31  34
ATOM     34  C   UNL     1       6.020   5.449  16.237  0.00  0.00    +0.000 C 
BRANCH  34  36
ATOM     35  C   UNL     1       6.068   3.884  14.244  0.00  0.00    +0.000 C 
ATOM     36  C   UNL     1       6.611   5.166  14.858  0.00  0.00    +0.000 C 
ENDBRANCH  34  36
ENDBRANCH  31  34
ENDBRANCH  29  31
ENDBRANCH  21  29
ENDBRANCH   1  26
TORSDOF 7
ENDMDL
MODEL 2
REMARK VINA RESULT:      -8.7      1.755      2.378
REMARK  Name = 
REMARK  8 active torsions:
REMARK  status: ('A' for Active; 'I' for Inactive)
REMARK    1  A    between atoms: C_1  and  C_2
REMARK    2  A    between atoms: C_2  and  C_3
REMARK    3  A    between atoms: C_3  and  S_4
REMARK    4  A    between atoms: S_4  and  N_7
REMARK    5  A    between atoms: N_7  and  C_8
REMARK    6  A    between atoms: C_13  and  C_14
REMARK    7  A    between atoms: N_16  and  C_17
REMARK    8  A    between atoms: C_22  and  C_23
REMARK                            x       y       z     vdW  Elec       q    Type
REMARK                         _______ _______ _______ _____ _____    ______ ____
ROOT
ATOM      1  C   UNL     1       1.976   5.937  19.787  0.00  0.00    +0.000 C 
ATOM      2  O   UNL     1       0.897   5.732  19.240  0.00  0.00    +0.000 OA
ATOM      3  N   UNL     1       2.321   7.148  20.393  0.00  0.00    +0.000 N 
ATOM      4  H   UNL     1       3.283   7.282  20.692  0.00  0.00    +0.000 HD
ENDROOT
BRANCH   3   5
ATOM      5  C   UNL     1       1.454   8.277  20.506  0.00  0.00    +0.000 A 
ATOM      6  C   UNL     1       1.267   9.202  19.468  0.00  0.00    +0.000 A 
ATOM      7  N   UNL     1       0.500  10.327  19.508  0.00  0.00    +0.000 NA
ATOM      8  C   UNL     1      -0.068  10.497  20.709  0.00  0.00    +0.000 A 
ATOM      9  N   UNL     1      -0.823  11.560  21.081  0.00  0.00    +0.000 N 
ATOM     10  C   UNL     1      -1.163  11.414  22.408  0.00  0.00    +0.000 A 
ATOM     11  N   UNL     1      -0.693  10.260  22.872  0.00  0.00    +0.000 NA
ATOM     12  C   UNL     1       0.001   9.681  21.823  0.00  0.00    +0.000 A 
ATOM     13  C   UNL     1       0.757   8.496  21.711  0.00  0.00    +0.000 A 
ATOM     14  H   UNL     1      -1.009  12.359  20.499  0.00  0.00    +0.000 HD
BRANCH  10  15
ATOM     15  C   UNL     1      -1.865  12.476  23.146  0.00  0.00    +0.000 A 
ATOM     16  C   UNL     1      -1.228  13.690  23.462  0.00  0.00    +0.000 A 
ATOM     17  C   UNL     1      -1.867  14.656  24.244  0.00  0.00    +0.000 A 
ATOM     18  C   UNL     1      -3.155  14.425  24.720  0.00  0.00    +0.000 A 
ATOM     19  C   UNL     1      -3.809  13.237  24.398  0.00  0.00    +0.000 A 
ATOM     20  C   UNL     1      -3.170  12.270  23.611  0.00  0.00    +0.000 A 
ENDBRANCH  10  15
ENDBRANCH   3   5
BRANCH   1  26
ATOM     21  C   UNL     1       4.966   3.836  18.727  0.00  0.00    +0.000 A 
ATOM     22  C   UNL     1       4.897   2.759  19.604  0.00  0.00    +0.000 A 
ATOM     23  C   UNL     1       3.897   2.731  20.581  0.00  0.00    +0.000 A 
ATOM     24  C   UNL     1       2.955   3.763  20.652  0.00  0.00    +0.000 A 
ATOM     25  F   UNL     1       2.033   3.702  21.629  0.00  0.00    +0.000 F 
ATOM     26  C   UNL     1       2.978   4.833  19.758  0.00  0.00    +0.000 A 
ATOM     27  C   UNL     1       4.001   4.853  18.792  0.00  0.00    +0.000 A 
ATOM     28  F   UNL     1       4.122   5.865  17.919  0.00  0.00    +0.000 F 
BRANCH  21  29
ATOM     29  N   UNL     1       6.010   3.879  17.734  0.00  0.00    +0.000 N 
ATOM     30  H   UNL     1       6.397   2.939  17.565  0.00  0.00    +0.000 HD
BRANCH  29  31
ATOM     31  S   UNL     1       7.365   4.842  18.121  0.00  0.00    +0.000 S 
ATOM     32  O   UNL     1       8.508   4.024  17.789  0.00  0.00    +0.000 OA
ATOM     33  O   UNL     1       7.185   5.419  19.435  0.00  0.00    +0.000 OA
BRANCH  31  34
ATOM     34  C   UNL     1       7.213   6.154  16.895  0.00  0.00    +0.000 C 
BRANCH  34  36
ATOM     35  C   UNL     1       8.056   8.384  17.757  0.00  0.00    +0.000 C 
ATOM     36  C   UNL     1       6.847   7.484  17.550  0.00  0.00    +0.000 C 
ENDBRANCH  34  36
ENDBRANCH  31  34
ENDBRANCH  29  31
ENDBRANCH  21  29
ENDBRANCH   1  26
TORSDOF 7
ENDMDL
MODEL 3
REMARK VINA RESULT:      -8.7      0.969      1.373
REMARK  Name = 
REMARK  8 active torsions:
REMARK  status: ('A' for Active; 'I' for Inactive)
REMARK    1  A    between atoms: C_1  and  C_2
REMARK    2  A    between atoms: C_2  and  C_3
REMARK    3  A    between atoms: C_3  and  S_4
REMARK    4  A    between atoms: S_4  and  N_7
REMARK    5  A    between atoms: N_7  and  C_8
REMARK    6  A    between atoms: C_13  and  C_14
REMARK    7  A    between atoms: N_16  and  C_17
REMARK    8  A    between atoms: C_22  and  C_23
REMARK                            x       y       z     vdW  Elec       q    Type
REMARK                         _______ _______ _______ _____ _____    ______ ____
ROOT
ATOM      1  C   UNL     1       2.156   6.147  19.862  0.00  0.00    +0.000 C 
ATOM      2  O   UNL     1       1.805   5.659  20.931  0.00  0.00    +0.000 OA
ATOM      3  N   UNL     1       1.964   7.487  19.518  0.00  0.00    +0.000 N 
ATOM      4  H   UNL     1       2.150   7.773  18.562  0.00  0.00    +0.000 HD
ENDROOT
BRANCH   3   5
ATOM      5  C   UNL     1       1.390   8.472  20.379  0.00  0.00    +0.000 A 
ATOM      6  C   UNL     1       1.648   8.526  21.757  0.00  0.00    +0.000 A 
ATOM      7  N   UNL     1       1.109   9.398  22.653  0.00  0.00    +0.000 NA
ATOM      8  C   UNL     1       0.233  10.228  22.071  0.00  0.00    +0.000 A 
ATOM      9  N   UNL     1      -0.521  11.155  22.713  0.00  0.00    +0.000 N 
ATOM     10  C   UNL     1      -1.350  11.759  21.793  0.00  0.00    +0.000 A 
ATOM     11  N   UNL     1      -1.102  11.281  20.577  0.00  0.00    +0.000 NA
ATOM     12  C   UNL     1      -0.121  10.318  20.738  0.00  0.00    +0.000 A 
ATOM     13  C   UNL     1       0.513   9.434  19.840  0.00  0.00    +0.000 A 
ATOM     14  H   UNL     1      -0.529  11.293  23.709  0.00  0.00    +0.000 HD
BRANCH  10  15
ATOM     15  C   UNL     1      -2.393  12.712  22.204  0.00  0.00    +0.000 A 
ATOM     16  C   UNL     1      -2.269  13.468  23.383  0.00  0.00    +0.000 A 
ATOM     17  C   UNL     1      -3.303  14.302  23.817  0.00  0.00    +0.000 A 
ATOM     18  C   UNL     1      -4.479  14.395  23.075  0.00  0.00    +0.000 A 
ATOM     19  C   UNL     1      -4.609  13.670  21.892  0.00  0.00    +0.000 A 
ATOM     20  C   UNL     1      -3.570  12.838  21.456  0.00  0.00    +0.000 A 
ENDBRANCH  10  15
ENDBRANCH   3   5
BRANCH   1  26
ATOM     21  C   UNL     1       4.782   4.549  17.619  0.00  0.00    +0.000 A 
ATOM     22  C   UNL     1       4.052   3.561  16.966  0.00  0.00    +0.000 A 
ATOM     23  C   UNL     1       2.703   3.378  17.285  0.00  0.00    +0.000 A 
ATOM     24  C   UNL     1       2.087   4.206  18.231  0.00  0.00    +0.000 A 
ATOM     25  F   UNL     1       0.797   3.968  18.523  0.00  0.00    +0.000 F 
ATOM     26  C   UNL     1       2.786   5.230  18.868  0.00  0.00    +0.000 A 
ATOM     27  C   UNL     1       4.146   5.389  18.546  0.00  0.00    +0.000 A 
ATOM     28  F   UNL     1       4.905   6.322  19.142  0.00  0.00    +0.000 F 
BRANCH  21  29
ATOM     29  N   UNL     1       6.178   4.725  17.307  0.00  0.00    +0.000 N 
ATOM     30  H   UNL     1       6.701   5.061  18.130  0.00  0.00    +0.000 HD
BRANCH  29  31
ATOM     31  S   UNL     1       6.530   5.856  16.078  0.00  0.00    +0.000 S 
ATOM     32  O   UNL     1       7.654   6.610  16.579  0.00  0.00    +0.000 OA
ATOM     33  O   UNL     1       5.305   6.491  15.647  0.00  0.00    +0.000 OA
BRANCH  31  34
ATOM     34  C   UNL     1       7.102   4.764  14.763  0.00  0.00    +0.000 C 
BRANCH  34  36
ATOM     35  C   UNL     1       6.293   3.604  12.659  0.00  0.00    +0.000 C 
ATOM     36  C   UNL     1       5.928   4.091  14.054  0.00  0.00    +0.000 C 
ENDBRANCH  34  36
ENDBRANCH  31  34
ENDBRANCH  29  31
ENDBRANCH  21  29
ENDBRANCH   1  26
TORSDOF 7
ENDMDL
MODEL 4
REMARK VINA RESULT:      -8.6      2.020      2.356
REMARK  Name = 
REMARK  8 active torsions:
REMARK  status: ('A' for Active; 'I' for Inactive)
REMARK    1  A    between atoms: C_1  and  C_2
REMARK    2  A    between atoms: C_2  and  C_3
REMARK    3  A    between atoms: C_3  and  S_4
REMARK    4  A    between atoms: S_4  and  N_7
REMARK    5  A    between atoms: N_7  and  C_8
REMARK    6  A    between atoms: C_13  and  C_14
REMARK    7  A    between atoms: N_16  and  C_17
REMARK    8  A    between atoms: C_22  and  C_23
REMARK                            x       y       z     vdW  Elec       q    Type
REMARK                         _______ _______ _______ _____ _____    ______ ____
ROOT
ATOM      1  C   UNL     1       2.318   7.081  18.888  0.00  0.00    +0.000 C 
ATOM      2  O   UNL     1       1.992   7.178  20.066  0.00  0.00    +0.000 OA
ATOM      3  N   UNL     1       2.106   8.083  17.937  0.00  0.00    +0.000 N 
ATOM      4  H   UNL     1       2.272   7.865  16.959  0.00  0.00    +0.000 HD
ENDROOT
BRANCH   3   5
ATOM      5  C   UNL     1       1.540   9.363  18.218  0.00  0.00    +0.000 A 
ATOM      6  C   UNL     1       2.286  10.551  18.188  0.00  0.00    +0.000 A 
ATOM      7  N   UNL     1       1.838  11.802  18.488  0.00  0.00    +0.000 NA
ATOM      8  C   UNL     1       0.553  11.790  18.867  0.00  0.00    +0.000 A 
ATOM      9  N   UNL     1      -0.152  12.866  19.300  0.00  0.00    +0.000 N 
ATOM     10  C   UNL     1      -1.410  12.446  19.669  0.00  0.00    +0.000 A 
ATOM     11  N   UNL     1      -1.542  11.144  19.430  0.00  0.00    +0.000 NA
ATOM     12  C   UNL     1      -0.320  10.721  18.937  0.00  0.00    +0.000 A 
ATOM     13  C   UNL     1       0.175   9.457  18.556  0.00  0.00    +0.000 A 
ATOM     14  H   UNL     1       0.231  13.789  19.416  0.00  0.00    +0.000 HD
BRANCH  10  15
ATOM     15  C   UNL     1      -2.368  13.356  20.315  0.00  0.00    +0.000 A 
ATOM     16  C   UNL     1      -3.731  13.027  20.424  0.00  0.00    +0.000 A 
ATOM     17  C   UNL     1      -4.652  13.935  20.952  0.00  0.00    +0.000 A 
ATOM     18  C   UNL     1      -4.224  15.189  21.385  0.00  0.00    +0.000 A 
ATOM     19  C   UNL     1      -2.873  15.522  21.305  0.00  0.00    +0.000 A 
ATOM     20  C   UNL     1      -1.950  14.610  20.779  0.00  0.00    +0.000 A 
ENDBRANCH  10  15
ENDBRANCH   3   5
BRANCH   1  26
ATOM     21  C   UNL     1       4.903   4.330  18.404  0.00  0.00    +0.000 A 
ATOM     22  C   UNL     1       4.205   3.399  17.643  0.00  0.00    +0.000 A 
ATOM     23  C   UNL     1       2.866   3.640  17.317  0.00  0.00    +0.000 A 
ATOM     24  C   UNL     1       2.247   4.826  17.727  0.00  0.00    +0.000 A 
ATOM     25  F   UNL     1       0.951   4.995  17.414  0.00  0.00    +0.000 F 
ATOM     26  C   UNL     1       2.938   5.795  18.455  0.00  0.00    +0.000 A 
ATOM     27  C   UNL     1       4.278   5.527  18.787  0.00  0.00    +0.000 A 
ATOM     28  F   UNL     1       5.005   6.385  19.521  0.00  0.00    +0.000 F 
BRANCH  21  29
ATOM     29  N   UNL     1       6.276   4.073  18.759  0.00  0.00    +0.000 N 
ATOM     30  H   UNL     1       6.498   4.468  19.685  0.00  0.00    +0.000 HD
BRANCH  29  31
ATOM     31  S   UNL     1       7.451   4.734  17.713  0.00  0.00    +0.000 S 
ATOM     32  O   UNL     1       6.756   4.956  16.468  0.00  0.00    +0.000 OA
ATOM     33  O   UNL     1       8.661   3.946  17.791  0.00  0.00    +0.000 OA
BRANCH  31  34
ATOM     34  C   UNL     1       7.754   6.326  18.502  0.00  0.00    +0.000 C 
BRANCH  34  36
ATOM     35  C   UNL     1       8.184   8.765  17.965  0.00  0.00    +0.000 C 
ATOM     36  C   UNL     1       7.493   7.480  17.537  0.00  0.00    +0.000 C 
ENDBRANCH  34  36
ENDBRANCH  31  34
ENDBRANCH  29  31
ENDBRANCH  21  29
ENDBRANCH   1  26
TORSDOF 7
ENDMDL
MODEL 5
REMARK VINA RESULT:      -8.6      2.050      2.608
REMARK  Name = 
REMARK  8 active torsions:
REMARK  status: ('A' for Active; 'I' for Inactive)
REMARK    1  A    between atoms: C_1  and  C_2
REMARK    2  A    between atoms: C_2  and  C_3
REMARK    3  A    between atoms: C_3  and  S_4
REMARK    4  A    between atoms: S_4  and  N_7
REMARK    5  A    between atoms: N_7  and  C_8
REMARK    6  A    between atoms: C_13  and  C_14
REMARK    7  A    between atoms: N_16  and  C_17
REMARK    8  A    between atoms: C_22  and  C_23
REMARK                            x       y       z     vdW  Elec       q    Type
REMARK                         _______ _______ _______ _____ _____    ______ ____
ROOT
ATOM      1  C   UNL     1       2.292   7.261  19.006  0.00  0.00    +0.000 C 
ATOM      2  O   UNL     1       1.944   7.770  17.946  0.00  0.00    +0.000 OA
ATOM      3  N   UNL     1       1.945   7.765  20.262  0.00  0.00    +0.000 N 
ATOM      4  H   UNL     1       2.394   7.371  21.083  0.00  0.00    +0.000 HD
ENDROOT
BRANCH   3   5
ATOM      5  C   UNL     1       1.099   8.895  20.478  0.00  0.00    +0.000 A 
ATOM      6  C   UNL     1       0.827   9.846  19.483  0.00  0.00    +0.000 A 
ATOM      7  N   UNL     1       0.074  10.974  19.618  0.00  0.00    +0.000 NA
ATOM      8  C   UNL     1      -0.384  11.117  20.869  0.00  0.00    +0.000 A 
ATOM      9  N   UNL     1      -1.097  12.174  21.332  0.00  0.00    +0.000 N 
ATOM     10  C   UNL     1      -1.320  11.996  22.680  0.00  0.00    +0.000 A 
ATOM     11  N   UNL     1      -0.818  10.828  23.072  0.00  0.00    +0.000 NA
ATOM     12  C   UNL     1      -0.223  10.273  21.952  0.00  0.00    +0.000 A 
ATOM     13  C   UNL     1       0.512   9.087  21.745  0.00  0.00    +0.000 A 
ATOM     14  H   UNL     1      -1.328  12.988  20.788  0.00  0.00    +0.000 HD
BRANCH  10  15
ATOM     15  C   UNL     1      -1.946  13.042  23.502  0.00  0.00    +0.000 A 
ATOM     16  C   UNL     1      -3.285  12.942  23.919  0.00  0.00    +0.000 A 
ATOM     17  C   UNL     1      -3.903  13.981  24.620  0.00  0.00    +0.000 A 
ATOM     18  C   UNL     1      -3.188  15.139  24.918  0.00  0.00    +0.000 A 
ATOM     19  C   UNL     1      -1.853  15.246  24.532  0.00  0.00    +0.000 A 
ATOM     20  C   UNL     1      -1.234  14.202  23.833  0.00  0.00    +0.000 A 
ENDBRANCH  10  15
ENDBRANCH   3   5
BRANCH   1  26
ATOM     21  C   UNL     1       4.864   4.776  17.703  0.00  0.00    +0.000 A 
ATOM     22  C   UNL     1       4.844   3.789  18.683  0.00  0.00    +0.000 A 
ATOM     23  C   UNL     1       4.022   3.947  19.803  0.00  0.00    +0.000 A 
ATOM     24  C   UNL     1       3.201   5.075  19.918  0.00  0.00    +0.000 A 
ATOM     25  F   UNL     1       2.453   5.193  21.028  0.00  0.00    +0.000 F 
ATOM     26  C   UNL     1       3.172   6.058  18.929  0.00  0.00    +0.000 A 
ATOM     27  C   UNL     1       4.018   5.890  17.818  0.00  0.00    +0.000 A 
ATOM     28  F   UNL     1       4.083   6.808  16.841  0.00  0.00    +0.000 F 
BRANCH  21  29
ATOM     29  N   UNL     1       5.727   4.626  16.560  0.00  0.00    +0.000 N 
ATOM     30  H   UNL     1       5.821   3.634  16.295  0.00  0.00    +0.000 HD
BRANCH  29  31
ATOM     31  S   UNL     1       7.332   5.173  16.763  0.00  0.00    +0.000 S 
ATOM     32  O   UNL     1       7.677   5.784  15.501  0.00  0.00    +0.000 OA
ATOM     33  O   UNL     1       8.127   4.120  17.353  0.00  0.00    +0.000 OA
BRANCH  31  34
ATOM     34  C   UNL     1       7.097   6.470  17.993  0.00  0.00    +0.000 C 
BRANCH  34  36
ATOM     35  C   UNL     1       8.302   8.694  18.147  0.00  0.00    +0.000 C 
ATOM     36  C   UNL     1       7.291   7.855  17.380  0.00  0.00    +0.000 C 
ENDBRANCH  34  36
ENDBRANCH  31  34
ENDBRANCH  29  31
ENDBRANCH  21  29
ENDBRANCH   1  26
TORSDOF 7
ENDMDL
MODEL 6
REMARK VINA RESULT:      -8.6      1.637      2.023
REMARK  Name = 
REMARK  8 active torsions:
REMARK  status: ('A' for Active; 'I' for Inactive)
REMARK    1  A    between atoms: C_1  and  C_2
REMARK    2  A    between atoms: C_2  and  C_3
REMARK    3  A    between atoms: C_3  and  S_4
REMARK    4  A    between atoms: S_4  and  N_7
REMARK    5  A    between atoms: N_7  and  C_8
REMARK    6  A    between atoms: C_13  and  C_14
REMARK    7  A    between atoms: N_16  and  C_17
REMARK    8  A    between atoms: C_22  and  C_23
REMARK                            x       y       z     vdW  Elec       q    Type
REMARK                         _______ _______ _______ _____ _____    ______ ____
ROOT
ATOM      1  C   UNL     1       2.343   6.911  19.386  0.00  0.00    +0.000 C 
ATOM      2  O   UNL     1       2.247   7.486  18.307  0.00  0.00    +0.000 OA
ATOM      3  N   UNL     1       1.836   7.418  20.585  0.00  0.00    +0.000 N 
ATOM      4  H   UNL     1       2.085   6.952  21.452  0.00  0.00    +0.000 HD
ENDROOT
BRANCH   3   5
ATOM      5  C   UNL     1       1.095   8.634  20.705  0.00  0.00    +0.000 A 
ATOM      6  C   UNL     1       1.002   9.576  19.669  0.00  0.00    +0.000 A 
ATOM      7  N   UNL     1       0.361  10.776  19.715  0.00  0.00    +0.000 NA
ATOM      8  C   UNL     1      -0.178  11.004  20.920  0.00  0.00    +0.000 A 
ATOM      9  N   UNL     1      -0.813  12.141  21.298  0.00  0.00    +0.000 N 
ATOM     10  C   UNL     1      -1.160  12.029  22.627  0.00  0.00    +0.000 A 
ATOM     11  N   UNL     1      -0.813  10.830  23.086  0.00  0.00    +0.000 NA
ATOM     12  C   UNL     1      -0.191  10.183  22.032  0.00  0.00    +0.000 A 
ATOM     13  C   UNL     1       0.433   8.924  21.914  0.00  0.00    +0.000 A 
ATOM     14  H   UNL     1      -0.916  12.957  20.718  0.00  0.00    +0.000 HD
BRANCH  10  15
ATOM     15  C   UNL     1      -1.739  13.158  23.370  0.00  0.00    +0.000 A 
ATOM     16  C   UNL     1      -0.991  14.319  23.638  0.00  0.00    +0.000 A 
ATOM     17  C   UNL     1      -1.513  15.348  24.425  0.00  0.00    +0.000 A 
ATOM     18  C   UNL     1      -2.797  15.235  24.955  0.00  0.00    +0.000 A 
ATOM     19  C   UNL     1      -3.561  14.102  24.681  0.00  0.00    +0.000 A 
ATOM     20  C   UNL     1      -3.037  13.072  23.889  0.00  0.00    +0.000 A 
ENDBRANCH  10  15
ENDBRANCH   3   5
BRANCH   1  26
ATOM     21  C   UNL     1       5.193   4.405  19.105  0.00  0.00    +0.000 A 
ATOM     22  C   UNL     1       4.556   3.200  19.382  0.00  0.00    +0.000 A 
ATOM     23  C   UNL     1       3.196   3.200  19.708  0.00  0.00    +0.000 A 
ATOM     24  C   UNL     1       2.477   4.400  19.722  0.00  0.00    +0.000 A 
ATOM     25  F   UNL     1       1.180   4.348  20.071  0.00  0.00    +0.000 F 
ATOM     26  C   UNL     1       3.083   5.616  19.406  0.00  0.00    +0.000 A 
ATOM     27  C   UNL     1       4.455   5.599  19.097  0.00  0.00    +0.000 A 
ATOM     28  F   UNL     1       5.127   6.728  18.823  0.00  0.00    +0.000 F 
BRANCH  21  29
ATOM     29  N   UNL     1       6.600   4.410  18.791  0.00  0.00    +0.000 N 
ATOM     30  H   UNL     1       7.104   5.100  19.367  0.00  0.00    +0.000 HD
BRANCH  29  31
ATOM     31  S   UNL     1       7.001   4.813  17.182  0.00  0.00    +0.000 S 
ATOM     32  O   UNL     1       8.231   4.106  16.918  0.00  0.00    +0.000 OA
ATOM     33  O   UNL     1       6.878   6.242  17.000  0.00  0.00    +0.000 OA
BRANCH  31  34
ATOM     34  C   UNL     1       5.662   4.006  16.284  0.00  0.00    +0.000 C 
BRANCH  34  36
ATOM     35  C   UNL     1       6.147   3.875  13.799  0.00  0.00    +0.000 C 
ATOM     36  C   UNL     1       5.452   4.645  14.912  0.00  0.00    +0.000 C 
ENDBRANCH  34  36
ENDBRANCH  31  34
ENDBRANCH  29  31
ENDBRANCH  21  29
ENDBRANCH   1  26
TORSDOF 7
ENDMDL
MODEL 7
REMARK VINA RESULT:      -8.5      2.449      3.872
REMARK  Name = 
REMARK  8 active torsions:
REMARK  status: ('A' for Active; 'I' for Inactive)
REMARK    1  A    between atoms: C_1  and  C_2
REMARK    2  A    between atoms: C_2  and  C_3
REMARK    3  A    between atoms: C_3  and  S_4
REMARK    4  A    between atoms: S_4  and  N_7
REMARK    5  A    between atoms: N_7  and  C_8
REMARK    6  A    between atoms: C_13  and  C_14
REMARK    7  A    between atoms: N_16  and  C_17
REMARK    8  A    between atoms: C_22  and  C_23
REMARK                            x       y       z     vdW  Elec       q    Type
REMARK                         _______ _______ _______ _____ _____    ______ ____
ROOT
ATOM      1  C   UNL     1       2.782   7.814  17.964  0.00  0.00    +0.000 C 
ATOM      2  O   UNL     1       2.631   8.622  17.054  0.00  0.00    +0.000 OA
ATOM      3  N   UNL     1       2.173   7.930  19.216  0.00  0.00    +0.000 N 
ATOM      4  H   UNL     1       2.466   7.301  19.957  0.00  0.00    +0.000 HD
ENDROOT
BRANCH   3   5
ATOM      5  C   UNL     1       1.257   8.964  19.581  0.00  0.00    +0.000 A 
ATOM      6  C   UNL     1       0.870   9.987  18.702  0.00  0.00    +0.000 A 
ATOM      7  N   UNL     1       0.044  11.032  18.983  0.00  0.00    +0.000 NA
ATOM      8  C   UNL     1      -0.365  11.012  20.259  0.00  0.00    +0.000 A 
ATOM      9  N   UNL     1      -1.131  11.958  20.857  0.00  0.00    +0.000 N 
ATOM     10  C   UNL     1      -1.277  11.628  22.186  0.00  0.00    +0.000 A 
ATOM     11  N   UNL     1      -0.673  10.470  22.435  0.00  0.00    +0.000 NA
ATOM     12  C   UNL     1      -0.092  10.078  21.241  0.00  0.00    +0.000 A 
ATOM     13  C   UNL     1       0.718   8.981  20.883  0.00  0.00    +0.000 A 
ATOM     14  H   UNL     1      -1.446  12.802  20.410  0.00  0.00    +0.000 HD
BRANCH  10  15
ATOM     15  C   UNL     1      -1.940  12.534  23.137  0.00  0.00    +0.000 A 
ATOM     16  C   UNL     1      -3.221  12.253  23.644  0.00  0.00    +0.000 A 
ATOM     17  C   UNL     1      -3.884  13.162  24.473  0.00  0.00    +0.000 A 
ATOM     18  C   UNL     1      -3.274  14.368  24.811  0.00  0.00    +0.000 A 
ATOM     19  C   UNL     1      -1.995  14.653  24.335  0.00  0.00    +0.000 A 
ATOM     20  C   UNL     1      -1.329  13.739  23.508  0.00  0.00    +0.000 A 
ENDBRANCH  10  15
ENDBRANCH   3   5
BRANCH   1  26
ATOM     21  C   UNL     1       4.023   4.254  17.443  0.00  0.00    +0.000 A 
ATOM     22  C   UNL     1       5.392   4.439  17.284  0.00  0.00    +0.000 A 
ATOM     23  C   UNL     1       5.919   5.734  17.302  0.00  0.00    +0.000 A 
ATOM     24  C   UNL     1       5.077   6.832  17.511  0.00  0.00    +0.000 A 
ATOM     25  F   UNL     1       5.629   8.057  17.489  0.00  0.00    +0.000 F 
ATOM     26  C   UNL     1       3.706   6.670  17.714  0.00  0.00    +0.000 A 
ATOM     27  C   UNL     1       3.192   5.361  17.676  0.00  0.00    +0.000 A 
ATOM     28  F   UNL     1       1.880   5.118  17.820  0.00  0.00    +0.000 F 
BRANCH  21  29
ATOM     29  N   UNL     1       3.475   2.922  17.402  0.00  0.00    +0.000 N 
ATOM     30  H   UNL     1       2.504   2.933  17.057  0.00  0.00    +0.000 HD
BRANCH  29  31
ATOM     31  S   UNL     1       3.394   2.105  18.899  0.00  0.00    +0.000 S 
ATOM     32  O   UNL     1       4.061   2.980  19.834  0.00  0.00    +0.000 OA
ATOM     33  O   UNL     1       3.790   0.727  18.715  0.00  0.00    +0.000 OA
BRANCH  31  34
ATOM     34  C   UNL     1       1.621   2.154  19.219  0.00  0.00    +0.000 C 
BRANCH  34  36
ATOM     35  C   UNL     1       1.424   2.609  21.705  0.00  0.00    +0.000 C 
ATOM     36  C   UNL     1       1.283   3.178  20.301  0.00  0.00    +0.000 C 
ENDBRANCH  34  36
ENDBRANCH  31  34
ENDBRANCH  29  31
ENDBRANCH  21  29
ENDBRANCH   1  26
TORSDOF 7
ENDMDL
MODEL 8
REMARK VINA RESULT:      -8.5      1.477      1.737
REMARK  Name = 
REMARK  8 active torsions:
REMARK  status: ('A' for Active; 'I' for Inactive)
REMARK    1  A    between atoms: C_1  and  C_2
REMARK    2  A    between atoms: C_2  and  C_3
REMARK    3  A    between atoms: C_3  and  S_4
REMARK    4  A    between atoms: S_4  and  N_7
REMARK    5  A    between atoms: N_7  and  C_8
REMARK    6  A    between atoms: C_13  and  C_14
REMARK    7  A    between atoms: N_16  and  C_17
REMARK    8  A    between atoms: C_22  and  C_23
REMARK                            x       y       z     vdW  Elec       q    Type
REMARK                         _______ _______ _______ _____ _____    ______ ____
ROOT
ATOM      1  C   UNL     1       2.229   7.062  18.448  0.00  0.00    +0.000 C 
ATOM      2  O   UNL     1       1.970   7.695  17.430  0.00  0.00    +0.000 OA
ATOM      3  N   UNL     1       1.956   7.521  19.739  0.00  0.00    +0.000 N 
ATOM      4  H   UNL     1       2.334   7.003  20.527  0.00  0.00    +0.000 HD
ENDROOT
BRANCH   3   5
ATOM      5  C   UNL     1       1.294   8.750  20.042  0.00  0.00    +0.000 A 
ATOM      6  C   UNL     1       1.512   9.932  19.318  0.00  0.00    +0.000 A 
ATOM      7  N   UNL     1       0.962  11.153  19.568  0.00  0.00    +0.000 NA
ATOM      8  C   UNL     1       0.173  11.129  20.650  0.00  0.00    +0.000 A 
ATOM      9  N   UNL     1      -0.453  12.202  21.195  0.00  0.00    +0.000 N 
ATOM     10  C   UNL     1      -1.107  11.795  22.337  0.00  0.00    +0.000 A 
ATOM     11  N   UNL     1      -0.961  10.484  22.500  0.00  0.00    +0.000 NA
ATOM     12  C   UNL     1      -0.156  10.056  21.458  0.00  0.00    +0.000 A 
ATOM     13  C   UNL     1       0.389   8.801  21.120  0.00  0.00    +0.000 A 
ATOM     14  H   UNL     1      -0.360  13.146  20.860  0.00  0.00    +0.000 HD
BRANCH  10  15
ATOM     15  C   UNL     1      -1.764  12.759  23.233  0.00  0.00    +0.000 A 
ATOM     16  C   UNL     1      -3.087  12.566  23.671  0.00  0.00    +0.000 A 
ATOM     17  C   UNL     1      -3.738  13.530  24.445  0.00  0.00    +0.000 A 
ATOM     18  C   UNL     1      -3.074  14.704  24.798  0.00  0.00    +0.000 A 
ATOM     19  C   UNL     1      -1.755  14.901  24.391  0.00  0.00    +0.000 A 
ATOM     20  C   UNL     1      -1.102  13.931  23.618  0.00  0.00    +0.000 A 
ENDBRANCH  10  15
ENDBRANCH   3   5
BRANCH   1  26
ATOM     21  C   UNL     1       4.934   4.387  18.545  0.00  0.00    +0.000 A 
ATOM     22  C   UNL     1       4.295   3.299  17.959  0.00  0.00    +0.000 A 
ATOM     23  C   UNL     1       2.958   3.416  17.566  0.00  0.00    +0.000 A 
ATOM     24  C   UNL     1       2.281   4.629  17.732  0.00  0.00    +0.000 A 
ATOM     25  F   UNL     1       0.989   4.679  17.365  0.00  0.00    +0.000 F 
ATOM     26  C   UNL     1       2.912   5.746  18.279  0.00  0.00    +0.000 A 
ATOM     27  C   UNL     1       4.251   5.606  18.683  0.00  0.00    +0.000 A 
ATOM     28  F   UNL     1       4.922   6.617  19.257  0.00  0.00    +0.000 F 
BRANCH  21  29
ATOM     29  N   UNL     1       6.305   4.262  18.971  0.00  0.00    +0.000 N 
ATOM     30  H   UNL     1       6.439   4.669  19.908  0.00  0.00    +0.000 HD
BRANCH  29  31
ATOM     31  S   UNL     1       7.463   5.043  17.990  0.00  0.00    +0.000 S 
ATOM     32  O   UNL     1       8.444   4.026  17.695  0.00  0.00    +0.000 OA
ATOM     33  O   UNL     1       7.820   6.311  18.586  0.00  0.00    +0.000 OA
BRANCH  31  34
ATOM     34  C   UNL     1       6.492   5.363  16.505  0.00  0.00    +0.000 C 
BRANCH  34  36
ATOM     35  C   UNL     1       5.826   4.226  14.340  0.00  0.00    +0.000 C 
ATOM     36  C   UNL     1       6.937   4.468  15.350  0.00  0.00    +0.000 C 
ENDBRANCH  34  36
ENDBRANCH  31  34
ENDBRANCH  29  31
ENDBRANCH  21  29
ENDBRANCH   1  26
TORSDOF 7
ENDMDL
MODEL 9
REMARK VINA RESULT:      -8.5      1.255      1.578
REMARK  Name = 
REMARK  8 active torsions:
REMARK  status: ('A' for Active; 'I' for Inactive)
REMARK    1  A    between atoms: C_1  and  C_2
REMARK    2  A    between atoms: C_2  and  C_3
REMARK    3  A    between atoms: C_3  and  S_4
REMARK    4  A    between atoms: S_4  and  N_7
REMARK    5  A    between atoms: N_7  and  C_8
REMARK    6  A    between atoms: C_13  and  C_14
REMARK    7  A    between atoms: N_16  and  C_17
REMARK    8  A    between atoms: C_22  and  C_23
REMARK                            x       y       z     vdW  Elec       q    Type
REMARK                         _______ _______ _______ _____ _____    ______ ____
ROOT
ATOM      1  C   UNL     1       1.867   5.940  19.858  0.00  0.00    +0.000 C 
ATOM      2  O   UNL     1       1.106   5.483  20.705  0.00  0.00    +0.000 OA
ATOM      3  N   UNL     1       2.068   7.307  19.650  0.00  0.00    +0.000 N 
ATOM      4  H   UNL     1       2.600   7.600  18.836  0.00  0.00    +0.000 HD
ENDROOT
BRANCH   3   5
ATOM      5  C   UNL     1       1.465   8.344  20.425  0.00  0.00    +0.000 A 
ATOM      6  C   UNL     1       1.665   8.480  21.807  0.00  0.00    +0.000 A 
ATOM      7  N   UNL     1       1.094   9.406  22.626  0.00  0.00    +0.000 NA
ATOM      8  C   UNL     1       0.248  10.203  21.959  0.00  0.00    +0.000 A 
ATOM      9  N   UNL     1      -0.527  11.169  22.511  0.00  0.00    +0.000 N 
ATOM     10  C   UNL     1      -1.313  11.719  21.522  0.00  0.00    +0.000 A 
ATOM     11  N   UNL     1      -1.018  11.168  20.349  0.00  0.00    +0.000 NA
ATOM     12  C   UNL     1      -0.050  10.213  20.609  0.00  0.00    +0.000 A 
ATOM     13  C   UNL     1       0.616   9.275  19.793  0.00  0.00    +0.000 A 
ATOM     14  H   UNL     1      -0.576  11.367  23.496  0.00  0.00    +0.000 HD
BRANCH  10  15
ATOM     15  C   UNL     1      -2.367  12.698  21.831  0.00  0.00    +0.000 A 
ATOM     16  C   UNL     1      -2.438  13.932  21.158  0.00  0.00    +0.000 A 
ATOM     17  C   UNL     1      -3.382  14.897  21.520  0.00  0.00    +0.000 A 
ATOM     18  C   UNL     1      -4.273  14.642  22.560  0.00  0.00    +0.000 A 
ATOM     19  C   UNL     1      -4.231  13.416  23.222  0.00  0.00    +0.000 A 
ATOM     20  C   UNL     1      -3.287  12.448  22.856  0.00  0.00    +0.000 A 
ENDBRANCH  10  15
ENDBRANCH   3   5
BRANCH   1  26
ATOM     21  C   UNL     1       4.685   3.912  18.300  0.00  0.00    +0.000 A 
ATOM     22  C   UNL     1       4.014   3.167  17.335  0.00  0.00    +0.000 A 
ATOM     23  C   UNL     1       2.626   3.287  17.215  0.00  0.00    +0.000 A 
ATOM     24  C   UNL     1       1.925   4.176  18.037  0.00  0.00    +0.000 A 
ATOM     25  F   UNL     1       0.589   4.231  17.900  0.00  0.00    +0.000 F 
ATOM     26  C   UNL     1       2.579   4.965  18.982  0.00  0.00    +0.000 A 
ATOM     27  C   UNL     1       3.973   4.818  19.101  0.00  0.00    +0.000 A 
ATOM     28  F   UNL     1       4.677   5.508  20.013  0.00  0.00    +0.000 F 
BRANCH  21  29
ATOM     29  N   UNL     1       6.112   3.772  18.441  0.00  0.00    +0.000 N 
ATOM     30  H   UNL     1       6.398   3.880  19.426  0.00  0.00    +0.000 HD
BRANCH  29  31
ATOM     31  S   UNL     1       7.058   4.909  17.589  0.00  0.00    +0.000 S 
ATOM     32  O   UNL     1       6.141   5.540  16.670  0.00  0.00    +0.000 OA
ATOM     33  O   UNL     1       8.283   4.280  17.147  0.00  0.00    +0.000 OA
BRANCH  31  34
ATOM     34  C   UNL     1       7.457   6.076  18.904  0.00  0.00    +0.000 C 
BRANCH  34  36
ATOM     35  C   UNL     1       7.525   8.271  17.639  0.00  0.00    +0.000 C 
ATOM     36  C   UNL     1       8.329   7.218  18.385  0.00  0.00    +0.000 C 
ENDBRANCH  34  36
ENDBRANCH  31  34
ENDBRANCH  29  31
ENDBRANCH  21  29
ENDBRANCH   1  26
TORSDOF 7
ENDMDL
