MODEL 1
REMARK VINA RESULT:      -7.2      0.000      0.000
REMARK  Name = 
REMARK  7 active torsions:
REMARK  status: ('A' for Active; 'I' for Inactive)
REMARK    1  A    between atoms: C_1  and  N_2
REMARK    2  A    between atoms: N_2  and  C_19
REMARK    3  A    between atoms: C_3  and  C_5
REMARK    4  A    between atoms: C_5  and  O_6
REMARK    5  A    between atoms: O_6  and  C_7
REMARK    6  A    between atoms: C_7  and  C_9
REMARK    7  A    between atoms: C_9  and  N_10
REMARK                            x       y       z     vdW  Elec       q    Type
REMARK                         _______ _______ _______ _____ _____    ______ ____
ROOT
ATOM      1  O   UNL     1       2.220   4.942  17.653  0.00  0.00    +0.000 OA
ENDROOT
BRANCH   1   2
ATOM      2  C   UNL     1       2.141   5.373  18.941  0.00  0.00    +0.000 C 
ATOM      3  O   UNL     1       1.453   4.868  19.816  0.00  0.00    +0.000 OA
BRANCH   2   4
ATOM      4  C   UNL     1       2.994   6.599  19.127  0.00  0.00    +0.000 C 
BRANCH   4   5
ATOM      5  N   UNL     1       2.214   7.806  18.972  0.00  0.00    +0.000 N 
ATOM      6  C   UNL     1       2.083   8.508  17.802  0.00  0.00    +0.000 A 
ATOM      7  N   UNL     1       1.289   9.543  17.948  0.00  0.00    +0.000 NA
ATOM      8  C   UNL     1       0.890   9.514  19.263  0.00  0.00    +0.000 A 
ATOM      9  C   UNL     1       0.038  10.386  19.954  0.00  0.00    +0.000 A 
ATOM     10  C   UNL     1      -0.218  10.145  21.310  0.00  0.00    +0.000 A 
ATOM     11  C   UNL     1       0.363   9.059  21.963  0.00  0.00    +0.000 A 
ATOM     12  C   UNL     1       1.218   8.177  21.290  0.00  0.00    +0.000 A 
ATOM     13  C   UNL     1       1.459   8.433  19.934  0.00  0.00    +0.000 A 
ENDBRANCH   4   5
ENDBRANCH   2   4
ENDBRANCH   1   2
BRANCH   1  14
ATOM     14  C   UNL     1       2.941   3.725  17.438  0.00  0.00    +0.000 C 
BRANCH  14  17
ATOM     15  C   UNL     1       5.303   3.928  19.202  0.00  0.00    +0.000 C 
ATOM     16  N   UNL     1       5.406   4.198  17.773  0.00  0.00    +0.000 N 
ATOM     17  C   UNL     1       4.347   3.992  16.874  0.00  0.00    +0.000 C 
ATOM     18  O   UNL     1       4.518   4.024  15.651  0.00  0.00    +0.000 OA
BRANCH  16  19
ATOM     19  C   UNL     1       6.723   4.578  17.188  0.00  0.00    +0.000 C 
ATOM     20  C   UNL     1       6.619   5.869  16.352  0.00  0.00    +0.000 C 
ATOM     21  C   UNL     1       6.519   7.109  17.233  0.00  0.00    +0.000 C 
ATOM     22  C   UNL     1       7.756   7.244  18.113  0.00  0.00    +0.000 C 
ATOM     23  C   UNL     1       7.999   5.999  18.960  0.00  0.00    +0.000 C 
ATOM     24  C   UNL     1       7.925   4.697  18.155  0.00  0.00    +0.000 C 
ENDBRANCH  16  19
ENDBRANCH  14  17
ENDBRANCH   1  14
TORSDOF 6
ENDMDL
MODEL 2
REMARK VINA RESULT:      -7.1      1.604      7.214
REMARK  Name = 
REMARK  7 active torsions:
REMARK  status: ('A' for Active; 'I' for Inactive)
REMARK    1  A    between atoms: C_1  and  N_2
REMARK    2  A    between atoms: N_2  and  C_19
REMARK    3  A    between atoms: C_3  and  C_5
REMARK    4  A    between atoms: C_5  and  O_6
REMARK    5  A    between atoms: O_6  and  C_7
REMARK    6  A    between atoms: C_7  and  C_9
REMARK    7  A    between atoms: C_9  and  N_10
REMARK                            x       y       z     vdW  Elec       q    Type
REMARK                         _______ _______ _______ _____ _____    ______ ____
ROOT
ATOM      1  O   UNL     1       2.032   5.642  18.317  0.00  0.00    +0.000 OA
ENDROOT
BRANCH   1   2
ATOM      2  C   UNL     1       1.880   4.382  18.807  0.00  0.00    +0.000 C 
ATOM      3  O   UNL     1       1.162   4.068  19.744  0.00  0.00    +0.000 OA
BRANCH   2   4
ATOM      4  C   UNL     1       2.768   3.427  18.054  0.00  0.00    +0.000 C 
BRANCH   4   5
ATOM      5  N   UNL     1       4.157   3.813  18.158  0.00  0.00    +0.000 N 
ATOM      6  C   UNL     1       4.860   3.897  19.331  0.00  0.00    +0.000 A 
ATOM      7  N   UNL     1       6.110   4.239  19.120  0.00  0.00    +0.000 NA
ATOM      8  C   UNL     1       6.223   4.385  17.758  0.00  0.00    +0.000 A 
ATOM      9  C   UNL     1       7.341   4.739  16.991  0.00  0.00    +0.000 A 
ATOM     10  C   UNL     1       7.204   4.825  15.599  0.00  0.00    +0.000 A 
ATOM     11  C   UNL     1       5.980   4.565  14.986  0.00  0.00    +0.000 A 
ATOM     12  C   UNL     1       4.851   4.210  15.736  0.00  0.00    +0.000 A 
ATOM     13  C   UNL     1       5.009   4.126  17.125  0.00  0.00    +0.000 A 
ENDBRANCH   4   5
ENDBRANCH   2   4
ENDBRANCH   1   2
BRANCH   1  14
ATOM     14  C   UNL     1       2.391   6.650  19.269  0.00  0.00    +0.000 C 
BRANCH  14  17
ATOM     15  C   UNL     1       1.068   8.753  20.868  0.00  0.00    +0.000 C 
ATOM     16  N   UNL     1       1.423   8.980  19.472  0.00  0.00    +0.000 N 
ATOM     17  C   UNL     1       2.164   8.064  18.709  0.00  0.00    +0.000 C 
ATOM     18  O   UNL     1       2.632   8.366  17.606  0.00  0.00    +0.000 OA
BRANCH  16  19
ATOM     19  C   UNL     1       1.121  10.296  18.840  0.00  0.00    +0.000 C 
ATOM     20  C   UNL     1      -0.179  10.238  18.011  0.00  0.00    +0.000 C 
ATOM     21  C   UNL     1      -1.418  10.245  18.898  0.00  0.00    +0.000 C 
ATOM     22  C   UNL     1      -1.475  11.519  19.732  0.00  0.00    +0.000 C 
ATOM     23  C   UNL     1      -0.214  11.718  20.567  0.00  0.00    +0.000 C 
ATOM     24  C   UNL     1       1.078  11.537  19.762  0.00  0.00    +0.000 C 
ENDBRANCH  16  19
ENDBRANCH  14  17
ENDBRANCH   1  14
TORSDOF 6
ENDMDL
MODEL 3
REMARK VINA RESULT:      -7.0      4.746      7.239
REMARK  Name = 
REMARK  7 active torsions:
REMARK  status: ('A' for Active; 'I' for Inactive)
REMARK    1  A    between atoms: C_1  and  N_2
REMARK    2  A    between atoms: N_2  and  C_19
REMARK    3  A    between atoms: C_3  and  C_5
REMARK    4  A    between atoms: C_5  and  O_6
REMARK    5  A    between atoms: O_6  and  C_7
REMARK    6  A    between atoms: C_7  and  C_9
REMARK    7  A    between atoms: C_9  and  N_10
REMARK                            x       y       z     vdW  Elec       q    Type
REMARK                         _______ _______ _______ _____ _____    ______ ____
ROOT
ATOM      1  O   UNL     1       8.154   8.159  17.314  0.00  0.00    +0.000 OA
ENDROOT
BRANCH   1   2
ATOM      2  C   UNL     1       7.373   7.132  17.742  0.00  0.00    +0.000 C 
ATOM      3  O   UNL     1       7.719   6.256  18.522  0.00  0.00    +0.000 OA
BRANCH   2   4
ATOM      4  C   UNL     1       6.024   7.199  17.078  0.00  0.00    +0.000 C 
BRANCH   4   5
ATOM      5  N   UNL     1       5.474   5.877  16.876  0.00  0.00    +0.000 N 
ATOM      6  C   UNL     1       6.121   4.851  16.239  0.00  0.00    +0.000 A 
ATOM      7  N   UNL     1       5.396   3.756  16.232  0.00  0.00    +0.000 NA
ATOM      8  C   UNL     1       4.234   4.084  16.887  0.00  0.00    +0.000 A 
ATOM      9  C   UNL     1       3.113   3.289  17.165  0.00  0.00    +0.000 A 
ATOM     10  C   UNL     1       2.036   3.860  17.855  0.00  0.00    +0.000 A 
ATOM     11  C   UNL     1       2.073   5.193  18.259  0.00  0.00    +0.000 A 
ATOM     12  C   UNL     1       3.184   6.004  17.991  0.00  0.00    +0.000 A 
ATOM     13  C   UNL     1       4.252   5.415  17.303  0.00  0.00    +0.000 A 
ENDBRANCH   4   5
ENDBRANCH   2   4
ENDBRANCH   1   2
BRANCH   1  14
ATOM     14  C   UNL     1       7.715   9.475  17.669  0.00  0.00    +0.000 C 
BRANCH  14  17
ATOM     15  C   UNL     1       8.083  12.386  17.323  0.00  0.00    +0.000 C 
ATOM     16  N   UNL     1       9.004  11.603  18.139  0.00  0.00    +0.000 N 
ATOM     17  C   UNL     1       8.801  10.246  18.437  0.00  0.00    +0.000 C 
ATOM     18  O   UNL     1       9.472   9.663  19.295  0.00  0.00    +0.000 OA
BRANCH  16  19
ATOM     19  C   UNL     1      10.147  12.279  18.815  0.00  0.00    +0.000 C 
ATOM     20  C   UNL     1      11.443  12.160  17.987  0.00  0.00    +0.000 C 
ATOM     21  C   UNL     1      11.440  13.103  16.790  0.00  0.00    +0.000 C 
ATOM     22  C   UNL     1      11.332  14.552  17.246  0.00  0.00    +0.000 C 
ATOM     23  C   UNL     1      10.107  14.790  18.123  0.00  0.00    +0.000 C 
ATOM     24  C   UNL     1       9.953  13.754  19.241  0.00  0.00    +0.000 C 
ENDBRANCH  16  19
ENDBRANCH  14  17
ENDBRANCH   1  14
TORSDOF 6
ENDMDL
MODEL 4
REMARK VINA RESULT:      -6.9      5.206      7.825
REMARK  Name = 
REMARK  7 active torsions:
REMARK  status: ('A' for Active; 'I' for Inactive)
REMARK    1  A    between atoms: C_1  and  N_2
REMARK    2  A    between atoms: N_2  and  C_19
REMARK    3  A    between atoms: C_3  and  C_5
REMARK    4  A    between atoms: C_5  and  O_6
REMARK    5  A    between atoms: O_6  and  C_7
REMARK    6  A    between atoms: C_7  and  C_9
REMARK    7  A    between atoms: C_9  and  N_10
REMARK                            x       y       z     vdW  Elec       q    Type
REMARK                         _______ _______ _______ _____ _____    ______ ____
ROOT
ATOM      1  O   UNL     1       8.540   8.458  18.645  0.00  0.00    +0.000 OA
ENDROOT
BRANCH   1   2
ATOM      2  C   UNL     1       7.742   7.644  17.904  0.00  0.00    +0.000 C 
ATOM      3  O   UNL     1       7.119   7.978  16.906  0.00  0.00    +0.000 OA
BRANCH   2   4
ATOM      4  C   UNL     1       7.695   6.270  18.519  0.00  0.00    +0.000 C 
BRANCH   4   5
ATOM      5  N   UNL     1       6.800   5.401  17.789  0.00  0.00    +0.000 N 
ATOM      6  C   UNL     1       7.169   4.605  16.737  0.00  0.00    +0.000 A 
ATOM      7  N   UNL     1       6.156   3.899  16.289  0.00  0.00    +0.000 NA
ATOM      8  C   UNL     1       5.088   4.252  17.079  0.00  0.00    +0.000 A 
ATOM      9  C   UNL     1       3.763   3.799  17.038  0.00  0.00    +0.000 A 
ATOM     10  C   UNL     1       2.845   4.316  17.961  0.00  0.00    +0.000 A 
ATOM     11  C   UNL     1       3.238   5.265  18.904  0.00  0.00    +0.000 A 
ATOM     12  C   UNL     1       4.558   5.730  18.960  0.00  0.00    +0.000 A 
ATOM     13  C   UNL     1       5.462   5.198  18.032  0.00  0.00    +0.000 A 
ENDBRANCH   4   5
ENDBRANCH   2   4
ENDBRANCH   1   2
BRANCH   1  14
ATOM     14  C   UNL     1       8.677   9.804  18.175  0.00  0.00    +0.000 C 
BRANCH  14  17
ATOM     15  C   UNL     1       8.834  12.727  17.772  0.00  0.00    +0.000 C 
ATOM     16  N   UNL     1       9.332  12.108  18.995  0.00  0.00    +0.000 N 
ATOM     17  C   UNL     1       9.165  10.745  19.289  0.00  0.00    +0.000 C 
ATOM     18  O   UNL     1       9.403  10.290  20.412  0.00  0.00    +0.000 OA
BRANCH  16  19
ATOM     19  C   UNL     1       9.924  12.961  20.063  0.00  0.00    +0.000 C 
ATOM     20  C   UNL     1      11.432  12.687  20.234  0.00  0.00    +0.000 C 
ATOM     21  C   UNL     1      12.253  13.314  19.113  0.00  0.00    +0.000 C 
ATOM     22  C   UNL     1      12.073  14.826  19.096  0.00  0.00    +0.000 C 
ATOM     23  C   UNL     1      10.607  15.231  18.980  0.00  0.00    +0.000 C 
ATOM     24  C   UNL     1       9.696  14.488  19.965  0.00  0.00    +0.000 C 
ENDBRANCH  16  19
ENDBRANCH  14  17
ENDBRANCH   1  14
TORSDOF 6
ENDMDL
MODEL 5
REMARK VINA RESULT:      -6.9      3.086      5.052
REMARK  Name = 
REMARK  7 active torsions:
REMARK  status: ('A' for Active; 'I' for Inactive)
REMARK    1  A    between atoms: C_1  and  N_2
REMARK    2  A    between atoms: N_2  and  C_19
REMARK    3  A    between atoms: C_3  and  C_5
REMARK    4  A    between atoms: C_5  and  O_6
REMARK    5  A    between atoms: O_6  and  C_7
REMARK    6  A    between atoms: C_7  and  C_9
REMARK    7  A    between atoms: C_9  and  N_10
REMARK                            x       y       z     vdW  Elec       q    Type
REMARK                         _______ _______ _______ _____ _____    ______ ____
ROOT
ATOM      1  O   UNL     1       0.327   9.100  20.710  0.00  0.00    +0.000 OA
ENDROOT
BRANCH   1   2
ATOM      2  C   UNL     1       0.444  10.354  21.223  0.00  0.00    +0.000 C 
ATOM      3  O   UNL     1       0.569  10.628  22.408  0.00  0.00    +0.000 OA
BRANCH   2   4
ATOM      4  C   UNL     1       0.350  11.373  20.118  0.00  0.00    +0.000 C 
BRANCH   4   5
ATOM      5  N   UNL     1      -1.025  11.607  19.740  0.00  0.00    +0.000 N 
ATOM      6  C   UNL     1      -1.892  12.429  20.412  0.00  0.00    +0.000 A 
ATOM      7  N   UNL     1      -3.065  12.476  19.824  0.00  0.00    +0.000 NA
ATOM      8  C   UNL     1      -2.957  11.653  18.729  0.00  0.00    +0.000 A 
ATOM      9  C   UNL     1      -3.913  11.340  17.753  0.00  0.00    +0.000 A 
ATOM     10  C   UNL     1      -3.560  10.461  16.720  0.00  0.00    +0.000 A 
ATOM     11  C   UNL     1      -2.283   9.906  16.662  0.00  0.00    +0.000 A 
ATOM     12  C   UNL     1      -1.314  10.206  17.628  0.00  0.00    +0.000 A 
ATOM     13  C   UNL     1      -1.684  11.089  18.650  0.00  0.00    +0.000 A 
ENDBRANCH   4   5
ENDBRANCH   2   4
ENDBRANCH   1   2
BRANCH   1  14
ATOM     14  C   UNL     1       1.459   8.240  20.884  0.00  0.00    +0.000 C 
BRANCH  14  17
ATOM     15  C   UNL     1       1.968   5.359  20.469  0.00  0.00    +0.000 C 
ATOM     16  N   UNL     1       2.306   6.338  19.443  0.00  0.00    +0.000 N 
ATOM     17  C   UNL     1       1.968   7.698  19.538  0.00  0.00    +0.000 C 
ATOM     18  O   UNL     1       2.074   8.462  18.573  0.00  0.00    +0.000 OA
BRANCH  16  19
ATOM     19  C   UNL     1       2.912   5.882  18.161  0.00  0.00    +0.000 C 
ATOM     20  C   UNL     1       4.413   6.231  18.089  0.00  0.00    +0.000 C 
ATOM     21  C   UNL     1       5.253   5.301  18.956  0.00  0.00    +0.000 C 
ATOM     22  C   UNL     1       5.108   3.857  18.493  0.00  0.00    +0.000 C 
ATOM     23  C   UNL     1       3.653   3.403  18.471  0.00  0.00    +0.000 C 
ATOM     24  C   UNL     1       2.720   4.397  17.770  0.00  0.00    +0.000 C 
ENDBRANCH  16  19
ENDBRANCH  14  17
ENDBRANCH   1  14
TORSDOF 6
ENDMDL
MODEL 6
REMARK VINA RESULT:      -6.9      3.260      5.588
REMARK  Name = 
REMARK  7 active torsions:
REMARK  status: ('A' for Active; 'I' for Inactive)
REMARK    1  A    between atoms: C_1  and  N_2
REMARK    2  A    between atoms: N_2  and  C_19
REMARK    3  A    between atoms: C_3  and  C_5
REMARK    4  A    between atoms: C_5  and  O_6
REMARK    5  A    between atoms: O_6  and  C_7
REMARK    6  A    between atoms: C_7  and  C_9
REMARK    7  A    between atoms: C_9  and  N_10
REMARK                            x       y       z     vdW  Elec       q    Type
REMARK                         _______ _______ _______ _____ _____    ______ ____
ROOT
ATOM      1  O   UNL     1       0.033   9.522  20.493  0.00  0.00    +0.000 OA
ENDROOT
BRANCH   1   2
ATOM      2  C   UNL     1       0.075  10.751  21.072  0.00  0.00    +0.000 C 
ATOM      3  O   UNL     1       0.232  10.968  22.265  0.00  0.00    +0.000 OA
BRANCH   2   4
ATOM      4  C   UNL     1      -0.150  11.818  20.034  0.00  0.00    +0.000 C 
BRANCH   4   5
ATOM      5  N   UNL     1      -1.533  11.861  19.619  0.00  0.00    +0.000 N 
ATOM      6  C   UNL     1      -2.527  12.537  20.278  0.00  0.00    +0.000 A 
ATOM      7  N   UNL     1      -3.678  12.427  19.656  0.00  0.00    +0.000 NA
ATOM      8  C   UNL     1      -3.424  11.648  18.553  0.00  0.00    +0.000 A 
ATOM      9  C   UNL     1      -4.298  11.219  17.545  0.00  0.00    +0.000 A 
ATOM     10  C   UNL     1      -3.795  10.419  16.511  0.00  0.00    +0.000 A 
ATOM     11  C   UNL     1      -2.450  10.053  16.482  0.00  0.00    +0.000 A 
ATOM     12  C   UNL     1      -1.561  10.471  17.481  0.00  0.00    +0.000 A 
ATOM     13  C   UNL     1      -2.082  11.273  18.504  0.00  0.00    +0.000 A 
ENDBRANCH   4   5
ENDBRANCH   2   4
ENDBRANCH   1   2
BRANCH   1  14
ATOM     14  C   UNL     1       1.154   9.174  19.672  0.00  0.00    +0.000 C 
BRANCH  14  17
ATOM     15  C   UNL     1       3.005   7.703  17.900  0.00  0.00    +0.000 C 
ATOM     16  N   UNL     1       2.533   7.116  19.149  0.00  0.00    +0.000 N 
ATOM     17  C   UNL     1       1.757   7.821  20.084  0.00  0.00    +0.000 C 
ATOM     18  O   UNL     1       1.550   7.380  21.219  0.00  0.00    +0.000 OA
BRANCH  16  19
ATOM     19  C   UNL     1       2.994   5.755  19.544  0.00  0.00    +0.000 C 
ATOM     20  C   UNL     1       1.899   4.696  19.304  0.00  0.00    +0.000 C 
ATOM     21  C   UNL     1       1.759   4.350  17.826  0.00  0.00    +0.000 C 
ATOM     22  C   UNL     1       3.062   3.777  17.283  0.00  0.00    +0.000 C 
ATOM     23  C   UNL     1       4.242   4.717  17.506  0.00  0.00    +0.000 C 
ATOM     24  C   UNL     1       4.326   5.250  18.941  0.00  0.00    +0.000 C 
ENDBRANCH  16  19
ENDBRANCH  14  17
ENDBRANCH   1  14
TORSDOF 6
ENDMDL
MODEL 7
REMARK VINA RESULT:      -6.9      5.359      7.969
REMARK  Name = 
REMARK  7 active torsions:
REMARK  status: ('A' for Active; 'I' for Inactive)
REMARK    1  A    between atoms: C_1  and  N_2
REMARK    2  A    between atoms: N_2  and  C_19
REMARK    3  A    between atoms: C_3  and  C_5
REMARK    4  A    between atoms: C_5  and  O_6
REMARK    5  A    between atoms: O_6  and  C_7
REMARK    6  A    between atoms: C_7  and  C_9
REMARK    7  A    between atoms: C_9  and  N_10
REMARK                            x       y       z     vdW  Elec       q    Type
REMARK                         _______ _______ _______ _____ _____    ______ ____
ROOT
ATOM      1  O   UNL     1       8.564   8.565  18.580  0.00  0.00    +0.000 OA
ENDROOT
BRANCH   1   2
ATOM      2  C   UNL     1       8.638   9.917  18.445  0.00  0.00    +0.000 C 
ATOM      3  O   UNL     1       8.039  10.580  17.611  0.00  0.00    +0.000 OA
BRANCH   2   4
ATOM      4  C   UNL     1       9.610  10.482  19.446  0.00  0.00    +0.000 C 
BRANCH   4   5
ATOM      5  N   UNL     1       9.648  11.925  19.381  0.00  0.00    +0.000 N 
ATOM      6  C   UNL     1       9.004  12.764  20.253  0.00  0.00    +0.000 A 
ATOM      7  N   UNL     1       9.243  14.025  19.972  0.00  0.00    +0.000 NA
ATOM      8  C   UNL     1      10.070  14.004  18.875  0.00  0.00    +0.000 A 
ATOM      9  C   UNL     1      10.632  15.072  18.164  0.00  0.00    +0.000 A 
ATOM     10  C   UNL     1      11.454  14.792  17.064  0.00  0.00    +0.000 A 
ATOM     11  C   UNL     1      11.710  13.477  16.682  0.00  0.00    +0.000 A 
ATOM     12  C   UNL     1      11.157  12.395  17.380  0.00  0.00    +0.000 A 
ATOM     13  C   UNL     1      10.342  12.695  18.478  0.00  0.00    +0.000 A 
ENDBRANCH   4   5
ENDBRANCH   2   4
ENDBRANCH   1   2
BRANCH   1  14
ATOM     14  C   UNL     1       7.788   7.875  17.594  0.00  0.00    +0.000 C 
BRANCH  14  17
ATOM     15  C   UNL     1       5.380   6.595  16.458  0.00  0.00    +0.000 C 
ATOM     16  N   UNL     1       6.048   6.037  17.627  0.00  0.00    +0.000 N 
ATOM     17  C   UNL     1       7.264   6.532  18.126  0.00  0.00    +0.000 C 
ATOM     18  O   UNL     1       7.913   5.917  18.978  0.00  0.00    +0.000 OA
BRANCH  16  19
ATOM     19  C   UNL     1       5.514   4.797  18.258  0.00  0.00    +0.000 C 
ATOM     20  C   UNL     1       4.734   5.112  19.551  0.00  0.00    +0.000 C 
ATOM     21  C   UNL     1       3.358   5.697  19.254  0.00  0.00    +0.000 C 
ATOM     22  C   UNL     1       2.516   4.711  18.453  0.00  0.00    +0.000 C 
ATOM     23  C   UNL     1       3.207   4.279  17.164  0.00  0.00    +0.000 C 
ATOM     24  C   UNL     1       4.665   3.854  17.373  0.00  0.00    +0.000 C 
ENDBRANCH  16  19
ENDBRANCH  14  17
ENDBRANCH   1  14
TORSDOF 6
ENDMDL
MODEL 8
REMARK VINA RESULT:      -6.8      2.306      6.955
REMARK  Name = 
REMARK  7 active torsions:
REMARK  status: ('A' for Active; 'I' for Inactive)
REMARK    1  A    between atoms: C_1  and  N_2
REMARK    2  A    between atoms: N_2  and  C_19
REMARK    3  A    between atoms: C_3  and  C_5
REMARK    4  A    between atoms: C_5  and  O_6
REMARK    5  A    between atoms: O_6  and  C_7
REMARK    6  A    between atoms: C_7  and  C_9
REMARK    7  A    between atoms: C_9  and  N_10
REMARK                            x       y       z     vdW  Elec       q    Type
REMARK                         _______ _______ _______ _____ _____    ______ ____
ROOT
ATOM      1  O   UNL     1       2.622   6.743  17.710  0.00  0.00    +0.000 OA
ENDROOT
BRANCH   1   2
ATOM      2  C   UNL     1       3.867   6.239  17.501  0.00  0.00    +0.000 C 
ATOM      3  O   UNL     1       4.903   6.888  17.497  0.00  0.00    +0.000 OA
BRANCH   2   4
ATOM      4  C   UNL     1       3.785   4.761  17.223  0.00  0.00    +0.000 C 
BRANCH   4   5
ATOM      5  N   UNL     1       3.879   3.995  18.445  0.00  0.00    +0.000 N 
ATOM      6  C   UNL     1       5.042   3.485  18.961  0.00  0.00    +0.000 A 
ATOM      7  N   UNL     1       4.832   2.861  20.097  0.00  0.00    +0.000 NA
ATOM      8  C   UNL     1       3.482   2.968  20.327  0.00  0.00    +0.000 A 
ATOM      9  C   UNL     1       2.720   2.482  21.398  0.00  0.00    +0.000 A 
ATOM     10  C   UNL     1       1.339   2.720  21.407  0.00  0.00    +0.000 A 
ATOM     11  C   UNL     1       0.731   3.426  20.371  0.00  0.00    +0.000 A 
ATOM     12  C   UNL     1       1.475   3.919  19.292  0.00  0.00    +0.000 A 
ATOM     13  C   UNL     1       2.854   3.674  19.302  0.00  0.00    +0.000 A 
ENDBRANCH   4   5
ENDBRANCH   2   4
ENDBRANCH   1   2
BRANCH   1  14
ATOM     14  C   UNL     1       2.458   7.553  18.879  0.00  0.00    +0.000 C 
BRANCH  14  17
ATOM     15  C   UNL     1       1.019   9.154  20.904  0.00  0.00    +0.000 C 
ATOM     16  N   UNL     1       1.072   9.576  19.509  0.00  0.00    +0.000 N 
ATOM     17  C   UNL     1       1.846   8.922  18.537  0.00  0.00    +0.000 C 
ATOM     18  O   UNL     1       2.042   9.417  17.423  0.00  0.00    +0.000 OA
BRANCH  16  19
ATOM     19  C   UNL     1       0.395  10.838  19.095  0.00  0.00    +0.000 C 
ATOM     20  C   UNL     1      -0.902  11.072  19.898  0.00  0.00    +0.000 C 
ATOM     21  C   UNL     1      -0.612  11.552  21.315  0.00  0.00    +0.000 C 
ATOM     22  C   UNL     1       0.145  12.875  21.291  0.00  0.00    +0.000 C 
ATOM     23  C   UNL     1       1.432  12.787  20.478  0.00  0.00    +0.000 C 
ATOM     24  C   UNL     1       1.237  12.136  19.105  0.00  0.00    +0.000 C 
ENDBRANCH  16  19
ENDBRANCH  14  17
ENDBRANCH   1  14
TORSDOF 6
ENDMDL
MODEL 9
REMARK VINA RESULT:      -6.8      2.758      4.674
REMARK  Name = 
REMARK  7 active torsions:
REMARK  status: ('A' for Active; 'I' for Inactive)
REMARK    1  A    between atoms: C_1  and  N_2
REMARK    2  A    between atoms: N_2  and  C_19
REMARK    3  A    between atoms: C_3  and  C_5
REMARK    4  A    between atoms: C_5  and  O_6
REMARK    5  A    between atoms: O_6  and  C_7
REMARK    6  A    between atoms: C_7  and  C_9
REMARK    7  A    between atoms: C_9  and  N_10
REMARK                            x       y       z     vdW  Elec       q    Type
REMARK                         _______ _______ _______ _____ _____    ______ ____
ROOT
ATOM      1  O   UNL     1       2.069   8.827  18.952  0.00  0.00    +0.000 OA
ENDROOT
BRANCH   1   2
ATOM      2  C   UNL     1       1.605   9.793  18.114  0.00  0.00    +0.000 C 
ATOM      3  O   UNL     1       2.299  10.563  17.466  0.00  0.00    +0.000 OA
BRANCH   2   4
ATOM      4  C   UNL     1       0.099   9.812  18.133  0.00  0.00    +0.000 C 
BRANCH   4   5
ATOM      5  N   UNL     1      -0.399  10.687  19.169  0.00  0.00    +0.000 N 
ATOM      6  C   UNL     1      -0.911  11.940  18.955  0.00  0.00    +0.000 A 
ATOM      7  N   UNL     1      -1.318  12.492  20.075  0.00  0.00    +0.000 NA
ATOM      8  C   UNL     1      -1.058  11.563  21.054  0.00  0.00    +0.000 A 
ATOM      9  C   UNL     1      -1.295  11.634  22.434  0.00  0.00    +0.000 A 
ATOM     10  C   UNL     1      -0.937  10.544  23.236  0.00  0.00    +0.000 A 
ATOM     11  C   UNL     1      -0.354   9.408  22.677  0.00  0.00    +0.000 A 
ATOM     12  C   UNL     1      -0.108   9.318  21.301  0.00  0.00    +0.000 A 
ATOM     13  C   UNL     1      -0.477  10.417  20.515  0.00  0.00    +0.000 A 
ENDBRANCH   4   5
ENDBRANCH   2   4
ENDBRANCH   1   2
BRANCH   1  14
ATOM     14  C   UNL     1       2.456   7.594  18.338  0.00  0.00    +0.000 C 
BRANCH  14  17
ATOM     15  C   UNL     1       3.845   5.045  17.785  0.00  0.00    +0.000 C 
ATOM     16  N   UNL     1       3.010   5.205  18.969  0.00  0.00    +0.000 N 
ATOM     17  C   UNL     1       2.434   6.430  19.343  0.00  0.00    +0.000 C 
ATOM     18  O   UNL     1       1.912   6.590  20.450  0.00  0.00    +0.000 OA
BRANCH  16  19
ATOM     19  C   UNL     1       2.856   4.069  19.921  0.00  0.00    +0.000 C 
ATOM     20  C   UNL     1       1.384   3.627  20.041  0.00  0.00    +0.000 C 
ATOM     21  C   UNL     1       0.932   2.826  18.826  0.00  0.00    +0.000 C 
ATOM     22  C   UNL     1       1.767   1.561  18.675  0.00  0.00    +0.000 C 
ATOM     23  C   UNL     1       3.260   1.862  18.596  0.00  0.00    +0.000 C 
ATOM     24  C   UNL     1       3.742   2.821  19.691  0.00  0.00    +0.000 C 
ENDBRANCH  16  19
ENDBRANCH  14  17
ENDBRANCH   1  14
TORSDOF 6
ENDMDL
