MODEL 1
REMARK VINA RESULT:      -7.4      0.000      0.000
REMARK  Name = 
REMARK  11 active torsions:
REMARK  status: ('A' for Active; 'I' for Inactive)
REMARK    1  A    between atoms: C_1  and  C_2
REMARK    2  A    between atoms: C_2  and  S_3
REMARK    3  A    between atoms: S_3  and  N_6
REMARK    4  A    between atoms: N_6  and  C_7
REMARK    5  A    between atoms: C_7  and  C_8
REMARK    6  A    between atoms: C_8  and  O_9
REMARK    7  A    between atoms: O_9  and  C_10
REMARK    8  A    between atoms: C_16  and  C_17
REMARK    9  A    between atoms: C_17  and  C_18
REMARK   10  A    between atoms: C_24  and  C_25
REMARK   11  A    between atoms: C_25  and  N_26
REMARK                            x       y       z     vdW  Elec       q    Type
REMARK                         _______ _______ _______ _____ _____    ______ ____
ROOT
ATOM      1  C   UNL     1       6.867   6.966  17.452  0.00  0.00    +0.000 A 
ATOM      2  C   UNL     1       7.612   5.832  17.764  0.00  0.00    +0.000 A 
ATOM      3  C   UNL     1       6.970   4.641  18.098  0.00  0.00    +0.000 A 
ATOM      4  C   UNL     1       5.570   4.569  18.131  0.00  0.00    +0.000 A 
ATOM      5  C   UNL     1       4.811   5.717  17.832  0.00  0.00    +0.000 A 
ATOM      6  C   UNL     1       5.472   6.909  17.485  0.00  0.00    +0.000 A 
ATOM      7  C   UNL     1       3.289   5.704  17.928  0.00  0.00    +0.000 C 
ATOM      8  C   UNL     1       2.761   4.267  17.677  0.00  0.00    +0.000 C 
ATOM      9  C   UNL     1       3.417   3.307  18.677  0.00  0.00    +0.000 C 
ATOM     10  C   UNL     1       4.925   3.243  18.450  0.00  0.00    +0.000 C 
ENDROOT
BRANCH   1  11
ATOM     11  O   UNL     1       7.591   8.065  17.070  0.00  0.00    +0.000 OA
BRANCH  11  12
ATOM     12  C   UNL     1       8.376   8.642  18.115  0.00  0.00    +0.000 C 
BRANCH  12  13
ATOM     13  C   UNL     1       8.340  10.159  17.972  0.00  0.00    +0.000 C 
BRANCH  13  14
ATOM     14  N   UNL     1       9.665  10.818  18.237  0.00  0.00    +0.000 NA
ATOM     15  H   UNL     1      10.006  10.513  19.150  0.00  0.00    +0.000 HD
BRANCH  14  16
ATOM     16  S   UNL     1       9.626  12.507  18.153  0.00  0.00    +0.000 S 
ATOM     17  O   UNL     1       9.802  12.975  19.515  0.00  0.00    +0.000 OA
ATOM     18  O   UNL     1       8.481  12.892  17.352  0.00  0.00    +0.000 OA
BRANCH  16  20
ATOM     19  C   UNL     1      11.162  14.368  16.939  0.00  0.00    +0.000 C 
ATOM     20  C   UNL     1      11.098  12.879  17.224  0.00  0.00    +0.000 C 
ENDBRANCH  16  20
ENDBRANCH  14  16
ENDBRANCH  13  14
ENDBRANCH  12  13
ENDBRANCH  11  12
ENDBRANCH   1  11
BRANCH   7  21
ATOM     21  C   UNL     1       2.768   6.425  19.210  0.00  0.00    +0.000 C 
BRANCH  21  22
ATOM     22  C   UNL     1       2.037   7.757  19.152  0.00  0.00    +0.000 A 
ATOM     23  C   UNL     1       1.435   8.338  20.280  0.00  0.00    +0.000 A 
ATOM     24  C   UNL     1       0.893   9.624  20.238  0.00  0.00    +0.000 A 
ATOM     25  C   UNL     1       1.003  10.385  19.080  0.00  0.00    +0.000 A 
ATOM     26  C   UNL     1       1.575   9.825  17.942  0.00  0.00    +0.000 A 
ATOM     27  C   UNL     1       2.058   8.512  17.968  0.00  0.00    +0.000 A 
ENDBRANCH  21  22
ENDBRANCH   7  21
BRANCH   8  28
ATOM     28  C   UNL     1       1.237   4.071  17.674  0.00  0.00    +0.000 C 
BRANCH  28  29
ATOM     29  N   UNL     1       0.787   2.863  18.363  0.00  0.00    +0.000 NA
ATOM     30  H   UNL     1       1.318   2.732  19.219  0.00  0.00    +0.000 HD
ATOM     31  H   UNL     1       1.010   2.050  17.788  0.00  0.00    +0.000 HD
ENDBRANCH  28  29
ENDBRANCH   8  28
TORSDOF 10
ENDMDL
MODEL 2
REMARK VINA RESULT:      -7.2      1.349      1.746
REMARK  Name = 
REMARK  11 active torsions:
REMARK  status: ('A' for Active; 'I' for Inactive)
REMARK    1  A    between atoms: C_1  and  C_2
REMARK    2  A    between atoms: C_2  and  S_3
REMARK    3  A    between atoms: S_3  and  N_6
REMARK    4  A    between atoms: N_6  and  C_7
REMARK    5  A    between atoms: C_7  and  C_8
REMARK    6  A    between atoms: C_8  and  O_9
REMARK    7  A    between atoms: O_9  and  C_10
REMARK    8  A    between atoms: C_16  and  C_17
REMARK    9  A    between atoms: C_17  and  C_18
REMARK   10  A    between atoms: C_24  and  C_25
REMARK   11  A    between atoms: C_25  and  N_26
REMARK                            x       y       z     vdW  Elec       q    Type
REMARK                         _______ _______ _______ _____ _____    ______ ____
ROOT
ATOM      1  C   UNL     1       6.498   6.885  17.635  0.00  0.00    +0.000 A 
ATOM      2  C   UNL     1       7.331   5.862  18.079  0.00  0.00    +0.000 A 
ATOM      3  C   UNL     1       6.786   4.697  18.615  0.00  0.00    +0.000 A 
ATOM      4  C   UNL     1       5.397   4.540  18.718  0.00  0.00    +0.000 A 
ATOM      5  C   UNL     1       4.549   5.578  18.285  0.00  0.00    +0.000 A 
ATOM      6  C   UNL     1       5.112   6.743  17.737  0.00  0.00    +0.000 A 
ATOM      7  C   UNL     1       3.035   5.480  18.449  0.00  0.00    +0.000 C 
ATOM      8  C   UNL     1       2.603   3.991  18.437  0.00  0.00    +0.000 C 
ATOM      9  C   UNL     1       3.358   3.239  19.540  0.00  0.00    +0.000 C 
ATOM     10  C   UNL     1       4.858   3.238  19.259  0.00  0.00    +0.000 C 
ENDROOT
BRANCH   1  11
ATOM     11  O   UNL     1       7.129   7.959  17.063  0.00  0.00    +0.000 OA
BRANCH  11  12
ATOM     12  C   UNL     1       8.285   8.406  17.773  0.00  0.00    +0.000 C 
BRANCH  12  13
ATOM     13  C   UNL     1       8.121   9.888  18.088  0.00  0.00    +0.000 C 
BRANCH  13  14
ATOM     14  N   UNL     1       9.399  10.671  17.968  0.00  0.00    +0.000 NA
ATOM     15  H   UNL     1      10.112  10.073  17.547  0.00  0.00    +0.000 HD
BRANCH  14  16
ATOM     16  S   UNL     1       9.955  11.314  19.430  0.00  0.00    +0.000 S 
ATOM     17  O   UNL     1      11.399  11.392  19.305  0.00  0.00    +0.000 OA
ATOM     18  O   UNL     1       9.319  10.589  20.512  0.00  0.00    +0.000 OA
BRANCH  16  20
ATOM     19  C   UNL     1       8.784  13.335  20.787  0.00  0.00    +0.000 C 
ATOM     20  C   UNL     1       9.287  12.963  19.404  0.00  0.00    +0.000 C 
ENDBRANCH  16  20
ENDBRANCH  14  16
ENDBRANCH  13  14
ENDBRANCH  12  13
ENDBRANCH  11  12
ENDBRANCH   1  11
BRANCH   7  21
ATOM     21  C   UNL     1       2.508   6.352  19.631  0.00  0.00    +0.000 C 
BRANCH  21  22
ATOM     22  C   UNL     1       1.980   7.764  19.426  0.00  0.00    +0.000 A 
ATOM     23  C   UNL     1       1.974   8.392  18.170  0.00  0.00    +0.000 A 
ATOM     24  C   UNL     1       1.357   9.631  17.977  0.00  0.00    +0.000 A 
ATOM     25  C   UNL     1       0.674  10.236  19.023  0.00  0.00    +0.000 A 
ATOM     26  C   UNL     1       0.683   9.644  20.284  0.00  0.00    +0.000 A 
ATOM     27  C   UNL     1       1.358   8.436  20.490  0.00  0.00    +0.000 A 
ENDBRANCH  21  22
ENDBRANCH   7  21
BRANCH   8  28
ATOM     28  C   UNL     1       1.097   3.699  18.529  0.00  0.00    +0.000 C 
BRANCH  28  29
ATOM     29  N   UNL     1       0.671   3.149  19.815  0.00  0.00    +0.000 NA
ATOM     30  H   UNL     1       1.473   2.784  20.320  0.00  0.00    +0.000 HD
ATOM     31  H   UNL     1       0.075   2.337  19.647  0.00  0.00    +0.000 HD
ENDBRANCH  28  29
ENDBRANCH   8  28
TORSDOF 10
ENDMDL
MODEL 3
REMARK VINA RESULT:      -7.2      4.700      6.812
REMARK  Name = 
REMARK  11 active torsions:
REMARK  status: ('A' for Active; 'I' for Inactive)
REMARK    1  A    between atoms: C_1  and  C_2
REMARK    2  A    between atoms: C_2  and  S_3
REMARK    3  A    between atoms: S_3  and  N_6
REMARK    4  A    between atoms: N_6  and  C_7
REMARK    5  A    between atoms: C_7  and  C_8
REMARK    6  A    between atoms: C_8  and  O_9
REMARK    7  A    between atoms: O_9  and  C_10
REMARK    8  A    between atoms: C_16  and  C_17
REMARK    9  A    between atoms: C_17  and  C_18
REMARK   10  A    between atoms: C_24  and  C_25
REMARK   11  A    between atoms: C_25  and  N_26
REMARK                            x       y       z     vdW  Elec       q    Type
REMARK                         _______ _______ _______ _____ _____    ______ ____
ROOT
ATOM      1  C   UNL     1       4.587   6.149  18.217  0.00  0.00    +0.000 A 
ATOM      2  C   UNL     1       4.364   7.035  17.166  0.00  0.00    +0.000 A 
ATOM      3  C   UNL     1       3.351   7.987  17.255  0.00  0.00    +0.000 A 
ATOM      4  C   UNL     1       2.541   8.064  18.396  0.00  0.00    +0.000 A 
ATOM      5  C   UNL     1       2.751   7.161  19.456  0.00  0.00    +0.000 A 
ATOM      6  C   UNL     1       3.784   6.212  19.358  0.00  0.00    +0.000 A 
ATOM      7  C   UNL     1       1.844   7.160  20.683  0.00  0.00    +0.000 C 
ATOM      8  C   UNL     1       1.258   8.580  20.901  0.00  0.00    +0.000 C 
ATOM      9  C   UNL     1       0.519   9.020  19.631  0.00  0.00    +0.000 C 
ATOM     10  C   UNL     1       1.491   9.146  18.461  0.00  0.00    +0.000 C 
ENDROOT
BRANCH   1  11
ATOM     11  O   UNL     1       5.650   5.298  18.061  0.00  0.00    +0.000 OA
BRANCH  11  12
ATOM     12  C   UNL     1       5.292   3.915  18.015  0.00  0.00    +0.000 C 
BRANCH  12  13
ATOM     13  C   UNL     1       4.909   3.558  16.584  0.00  0.00    +0.000 C 
BRANCH  13  14
ATOM     14  N   UNL     1       6.094   3.333  15.686  0.00  0.00    +0.000 NA
ATOM     15  H   UNL     1       6.913   3.138  16.265  0.00  0.00    +0.000 HD
BRANCH  14  16
ATOM     16  S   UNL     1       6.410   4.612  14.626  0.00  0.00    +0.000 S 
ATOM     17  O   UNL     1       7.679   5.174  15.051  0.00  0.00    +0.000 OA
ATOM     18  O   UNL     1       5.211   5.420  14.524  0.00  0.00    +0.000 OA
BRANCH  16  20
ATOM     19  C   UNL     1       5.297   3.473  12.444  0.00  0.00    +0.000 C 
ATOM     20  C   UNL     1       6.645   3.776  13.073  0.00  0.00    +0.000 C 
ENDBRANCH  16  20
ENDBRANCH  14  16
ENDBRANCH  13  14
ENDBRANCH  12  13
ENDBRANCH  11  12
ENDBRANCH   1  11
BRANCH   7  21
ATOM     21  C   UNL     1       0.826   5.978  20.669  0.00  0.00    +0.000 C 
BRANCH  21  22
ATOM     22  C   UNL     1       1.252   4.543  20.395  0.00  0.00    +0.000 A 
ATOM     23  C   UNL     1       1.102   3.940  19.137  0.00  0.00    +0.000 A 
ATOM     24  C   UNL     1       1.627   2.673  18.867  0.00  0.00    +0.000 A 
ATOM     25  C   UNL     1       2.373   2.012  19.835  0.00  0.00    +0.000 A 
ATOM     26  C   UNL     1       2.518   2.579  21.098  0.00  0.00    +0.000 A 
ATOM     27  C   UNL     1       1.935   3.819  21.385  0.00  0.00    +0.000 A 
ENDBRANCH  21  22
ENDBRANCH   7  21
BRANCH   8  28
ATOM     28  C   UNL     1       0.365   8.787  22.135  0.00  0.00    +0.000 C 
BRANCH  28  29
ATOM     29  N   UNL     1       0.961   9.628  23.171  0.00  0.00    +0.000 NA
ATOM     30  H   UNL     1       1.537  10.349  22.745  0.00  0.00    +0.000 HD
ATOM     31  H   UNL     1       1.610   9.066  23.722  0.00  0.00    +0.000 HD
ENDBRANCH  28  29
ENDBRANCH   8  28
TORSDOF 10
ENDMDL
MODEL 4
REMARK VINA RESULT:      -7.1      1.150      1.318
REMARK  Name = 
REMARK  11 active torsions:
REMARK  status: ('A' for Active; 'I' for Inactive)
REMARK    1  A    between atoms: C_1  and  C_2
REMARK    2  A    between atoms: C_2  and  S_3
REMARK    3  A    between atoms: S_3  and  N_6
REMARK    4  A    between atoms: N_6  and  C_7
REMARK    5  A    between atoms: C_7  and  C_8
REMARK    6  A    between atoms: C_8  and  O_9
REMARK    7  A    between atoms: O_9  and  C_10
REMARK    8  A    between atoms: C_16  and  C_17
REMARK    9  A    between atoms: C_17  and  C_18
REMARK   10  A    between atoms: C_24  and  C_25
REMARK   11  A    between atoms: C_25  and  N_26
REMARK                            x       y       z     vdW  Elec       q    Type
REMARK                         _______ _______ _______ _____ _____    ______ ____
ROOT
ATOM      1  C   UNL     1       7.004   7.018  17.522  0.00  0.00    +0.000 A 
ATOM      2  C   UNL     1       7.744   5.895  17.883  0.00  0.00    +0.000 A 
ATOM      3  C   UNL     1       7.097   4.716  18.249  0.00  0.00    +0.000 A 
ATOM      4  C   UNL     1       5.697   4.646  18.263  0.00  0.00    +0.000 A 
ATOM      5  C   UNL     1       4.943   5.783  17.915  0.00  0.00    +0.000 A 
ATOM      6  C   UNL     1       5.609   6.962  17.537  0.00  0.00    +0.000 A 
ATOM      7  C   UNL     1       3.419   5.772  17.991  0.00  0.00    +0.000 C 
ATOM      8  C   UNL     1       2.895   4.328  17.781  0.00  0.00    +0.000 C 
ATOM      9  C   UNL     1       3.536   3.402  18.822  0.00  0.00    +0.000 C 
ATOM     10  C   UNL     1       5.047   3.330  18.618  0.00  0.00    +0.000 C 
ENDROOT
BRANCH   1  11
ATOM     11  O   UNL     1       7.734   8.104  17.114  0.00  0.00    +0.000 OA
BRANCH  11  12
ATOM     12  C   UNL     1       7.637   9.235  17.981  0.00  0.00    +0.000 C 
BRANCH  12  13
ATOM     13  C   UNL     1       8.986   9.945  18.010  0.00  0.00    +0.000 C 
BRANCH  13  14
ATOM     14  N   UNL     1       9.287  10.606  19.326  0.00  0.00    +0.000 NA
ATOM     15  H   UNL     1       8.442  11.071  19.661  0.00  0.00    +0.000 HD
BRANCH  14  16
ATOM     16  S   UNL     1      10.580  11.695  19.272  0.00  0.00    +0.000 S 
ATOM     17  O   UNL     1      11.112  11.610  17.924  0.00  0.00    +0.000 OA
ATOM     18  O   UNL     1      11.410  11.469  20.438  0.00  0.00    +0.000 OA
BRANCH  16  20
ATOM     19  C   UNL     1      10.761  14.297  19.972  0.00  0.00    +0.000 C 
ATOM     20  C   UNL     1       9.768  13.266  19.469  0.00  0.00    +0.000 C 
ENDBRANCH  16  20
ENDBRANCH  14  16
ENDBRANCH  13  14
ENDBRANCH  12  13
ENDBRANCH  11  12
ENDBRANCH   1  11
BRANCH   7  21
ATOM     21  C   UNL     1       2.881   6.536  19.240  0.00  0.00    +0.000 C 
BRANCH  21  22
ATOM     22  C   UNL     1       2.098   7.835  19.122  0.00  0.00    +0.000 A 
ATOM     23  C   UNL     1       1.420   8.409  20.210  0.00  0.00    +0.000 A 
ATOM     24  C   UNL     1       0.827   9.670  20.117  0.00  0.00    +0.000 A 
ATOM     25  C   UNL     1       0.959  10.415  18.952  0.00  0.00    +0.000 A 
ATOM     26  C   UNL     1       1.608   9.860  17.852  0.00  0.00    +0.000 A 
ATOM     27  C   UNL     1       2.143   8.569  17.926  0.00  0.00    +0.000 A 
ENDBRANCH  21  22
ENDBRANCH   7  21
BRANCH   8  28
ATOM     28  C   UNL     1       1.371   4.131  17.762  0.00  0.00    +0.000 C 
BRANCH  28  29
ATOM     29  N   UNL     1       0.924   2.856  18.320  0.00  0.00    +0.000 NA
ATOM     30  H   UNL     1       0.627   2.982  19.283  0.00  0.00    +0.000 HD
ATOM     31  H   UNL     1       1.721   2.220  18.372  0.00  0.00    +0.000 HD
ENDBRANCH  28  29
ENDBRANCH   8  28
TORSDOF 10
ENDMDL
MODEL 5
REMARK VINA RESULT:      -7.1      0.764      1.243
REMARK  Name = 
REMARK  11 active torsions:
REMARK  status: ('A' for Active; 'I' for Inactive)
REMARK    1  A    between atoms: C_1  and  C_2
REMARK    2  A    between atoms: C_2  and  S_3
REMARK    3  A    between atoms: S_3  and  N_6
REMARK    4  A    between atoms: N_6  and  C_7
REMARK    5  A    between atoms: C_7  and  C_8
REMARK    6  A    between atoms: C_8  and  O_9
REMARK    7  A    between atoms: O_9  and  C_10
REMARK    8  A    between atoms: C_16  and  C_17
REMARK    9  A    between atoms: C_17  and  C_18
REMARK   10  A    between atoms: C_24  and  C_25
REMARK   11  A    between atoms: C_25  and  N_26
REMARK                            x       y       z     vdW  Elec       q    Type
REMARK                         _______ _______ _______ _____ _____    ______ ____
ROOT
ATOM      1  C   UNL     1       7.029   6.963  17.474  0.00  0.00    +0.000 A 
ATOM      2  C   UNL     1       7.743   5.806  17.774  0.00  0.00    +0.000 A 
ATOM      3  C   UNL     1       7.068   4.630  18.097  0.00  0.00    +0.000 A 
ATOM      4  C   UNL     1       5.668   4.596  18.129  0.00  0.00    +0.000 A 
ATOM      5  C   UNL     1       4.940   5.767  17.841  0.00  0.00    +0.000 A 
ATOM      6  C   UNL     1       5.633   6.944  17.506  0.00  0.00    +0.000 A 
ATOM      7  C   UNL     1       3.418   5.794  17.938  0.00  0.00    +0.000 C 
ATOM      8  C   UNL     1       2.852   4.374  17.673  0.00  0.00    +0.000 C 
ATOM      9  C   UNL     1       3.481   3.388  18.663  0.00  0.00    +0.000 C 
ATOM     10  C   UNL     1       4.987   3.284  18.435  0.00  0.00    +0.000 C 
ENDROOT
BRANCH   1  11
ATOM     11  O   UNL     1       7.783   8.046  17.103  0.00  0.00    +0.000 OA
BRANCH  11  12
ATOM     12  C   UNL     1       7.525   9.228  17.863  0.00  0.00    +0.000 C 
BRANCH  12  13
ATOM     13  C   UNL     1       8.805   9.633  18.584  0.00  0.00    +0.000 C 
BRANCH  13  14
ATOM     14  N   UNL     1       9.552  10.743  17.899  0.00  0.00    +0.000 NA
ATOM     15  H   UNL     1      10.309  10.338  17.346  0.00  0.00    +0.000 HD
BRANCH  14  16
ATOM     16  S   UNL     1      10.155  11.922  18.951  0.00  0.00    +0.000 S 
ATOM     17  O   UNL     1      11.474  11.463  19.347  0.00  0.00    +0.000 OA
ATOM     18  O   UNL     1       9.126  12.226  19.926  0.00  0.00    +0.000 OA
BRANCH  16  20
ATOM     19  C   UNL     1      11.583  14.110  18.267  0.00  0.00    +0.000 C 
ATOM     20  C   UNL     1      10.337  13.334  17.884  0.00  0.00    +0.000 C 
ENDBRANCH  16  20
ENDBRANCH  14  16
ENDBRANCH  13  14
ENDBRANCH  12  13
ENDBRANCH  11  12
ENDBRANCH   1  11
BRANCH   7  21
ATOM     21  C   UNL     1       2.917   6.516  19.227  0.00  0.00    +0.000 C 
BRANCH  21  22
ATOM     22  C   UNL     1       2.159   7.835  19.177  0.00  0.00    +0.000 A 
ATOM     23  C   UNL     1       1.942   8.535  17.979  0.00  0.00    +0.000 A 
ATOM     24  C   UNL     1       1.125   9.667  17.933  0.00  0.00    +0.000 A 
ATOM     25  C   UNL     1       0.452  10.083  19.075  0.00  0.00    +0.000 A 
ATOM     26  C   UNL     1       0.666   9.419  20.280  0.00  0.00    +0.000 A 
ATOM     27  C   UNL     1       1.538   8.325  20.337  0.00  0.00    +0.000 A 
ENDBRANCH  21  22
ENDBRANCH   7  21
BRANCH   8  28
ATOM     28  C   UNL     1       1.323   4.220  17.667  0.00  0.00    +0.000 C 
BRANCH  28  29
ATOM     29  N   UNL     1       0.845   2.971  18.257  0.00  0.00    +0.000 NA
ATOM     30  H   UNL     1       1.632   2.371  18.487  0.00  0.00    +0.000 HD
ATOM     31  H   UNL     1       0.316   2.453  17.554  0.00  0.00    +0.000 HD
ENDBRANCH  28  29
ENDBRANCH   8  28
TORSDOF 10
ENDMDL
MODEL 6
REMARK VINA RESULT:      -7.1      1.312      1.709
REMARK  Name = 
REMARK  11 active torsions:
REMARK  status: ('A' for Active; 'I' for Inactive)
REMARK    1  A    between atoms: C_1  and  C_2
REMARK    2  A    between atoms: C_2  and  S_3
REMARK    3  A    between atoms: S_3  and  N_6
REMARK    4  A    between atoms: N_6  and  C_7
REMARK    5  A    between atoms: C_7  and  C_8
REMARK    6  A    between atoms: C_8  and  O_9
REMARK    7  A    between atoms: O_9  and  C_10
REMARK    8  A    between atoms: C_16  and  C_17
REMARK    9  A    between atoms: C_17  and  C_18
REMARK   10  A    between atoms: C_24  and  C_25
REMARK   11  A    between atoms: C_25  and  N_26
REMARK                            x       y       z     vdW  Elec       q    Type
REMARK                         _______ _______ _______ _____ _____    ______ ____
ROOT
ATOM      1  C   UNL     1       6.884   6.901  17.438  0.00  0.00    +0.000 A 
ATOM      2  C   UNL     1       7.649   5.791  17.786  0.00  0.00    +0.000 A 
ATOM      3  C   UNL     1       7.028   4.608  18.184  0.00  0.00    +0.000 A 
ATOM      4  C   UNL     1       5.630   4.521  18.243  0.00  0.00    +0.000 A 
ATOM      5  C   UNL     1       4.851   5.645  17.907  0.00  0.00    +0.000 A 
ATOM      6  C   UNL     1       5.491   6.828  17.497  0.00  0.00    +0.000 A 
ATOM      7  C   UNL     1       3.331   5.617  18.031  0.00  0.00    +0.000 C 
ATOM      8  C   UNL     1       2.818   4.164  17.852  0.00  0.00    +0.000 C 
ATOM      9  C   UNL     1       3.503   3.258  18.882  0.00  0.00    +0.000 C 
ATOM     10  C   UNL     1       5.008   3.202  18.631  0.00  0.00    +0.000 C 
ENDROOT
BRANCH   1  11
ATOM     11  O   UNL     1       7.587   7.991  16.996  0.00  0.00    +0.000 OA
BRANCH  11  12
ATOM     12  C   UNL     1       7.480   9.140  17.839  0.00  0.00    +0.000 C 
BRANCH  12  13
ATOM     13  C   UNL     1       8.846   9.808  17.929  0.00  0.00    +0.000 C 
BRANCH  13  14
ATOM     14  N   UNL     1       9.188  10.290  19.311  0.00  0.00    +0.000 NA
ATOM     15  H   UNL     1       8.323  10.415  19.839  0.00  0.00    +0.000 HD
BRANCH  14  16
ATOM     16  S   UNL     1      10.108  11.710  19.340  0.00  0.00    +0.000 S 
ATOM     17  O   UNL     1       9.277  12.732  18.732  0.00  0.00    +0.000 OA
ATOM     18  O   UNL     1      11.431  11.400  18.837  0.00  0.00    +0.000 OA
BRANCH  16  20
ATOM     19  C   UNL     1       9.852  13.483  21.361  0.00  0.00    +0.000 C 
ATOM     20  C   UNL     1      10.245  12.043  21.082  0.00  0.00    +0.000 C 
ENDBRANCH  16  20
ENDBRANCH  14  16
ENDBRANCH  13  14
ENDBRANCH  12  13
ENDBRANCH  11  12
ENDBRANCH   1  11
BRANCH   7  21
ATOM     21  C   UNL     1       2.823   6.387  19.289  0.00  0.00    +0.000 C 
BRANCH  21  22
ATOM     22  C   UNL     1       2.164   7.755  19.192  0.00  0.00    +0.000 A 
ATOM     23  C   UNL     1       2.048   8.453  17.979  0.00  0.00    +0.000 A 
ATOM     24  C   UNL     1       1.317   9.639  17.886  0.00  0.00    +0.000 A 
ATOM     25  C   UNL     1       0.627  10.117  18.993  0.00  0.00    +0.000 A 
ATOM     26  C   UNL     1       0.742   9.456  20.213  0.00  0.00    +0.000 A 
ATOM     27  C   UNL     1       1.529   8.303  20.319  0.00  0.00    +0.000 A 
ENDBRANCH  21  22
ENDBRANCH   7  21
BRANCH   8  28
ATOM     28  C   UNL     1       1.297   3.950  17.883  0.00  0.00    +0.000 C 
BRANCH  28  29
ATOM     29  N   UNL     1       0.868   2.822  18.709  0.00  0.00    +0.000 NA
ATOM     30  H   UNL     1       0.934   1.958  18.178  0.00  0.00    +0.000 HD
ATOM     31  H   UNL     1      -0.125   2.925  18.920  0.00  0.00    +0.000 HD
ENDBRANCH  28  29
ENDBRANCH   8  28
TORSDOF 10
ENDMDL
MODEL 7
REMARK VINA RESULT:      -6.9      4.409      6.458
REMARK  Name = 
REMARK  11 active torsions:
REMARK  status: ('A' for Active; 'I' for Inactive)
REMARK    1  A    between atoms: C_1  and  C_2
REMARK    2  A    between atoms: C_2  and  S_3
REMARK    3  A    between atoms: S_3  and  N_6
REMARK    4  A    between atoms: N_6  and  C_7
REMARK    5  A    between atoms: C_7  and  C_8
REMARK    6  A    between atoms: C_8  and  O_9
REMARK    7  A    between atoms: O_9  and  C_10
REMARK    8  A    between atoms: C_16  and  C_17
REMARK    9  A    between atoms: C_17  and  C_18
REMARK   10  A    between atoms: C_24  and  C_25
REMARK   11  A    between atoms: C_25  and  N_26
REMARK                            x       y       z     vdW  Elec       q    Type
REMARK                         _______ _______ _______ _____ _____    ______ ____
ROOT
ATOM      1  C   UNL     1       4.554   5.915  18.215  0.00  0.00    +0.000 A 
ATOM      2  C   UNL     1       4.322   6.742  17.119  0.00  0.00    +0.000 A 
ATOM      3  C   UNL     1       3.341   7.731  17.182  0.00  0.00    +0.000 A 
ATOM      4  C   UNL     1       2.575   7.904  18.343  0.00  0.00    +0.000 A 
ATOM      5  C   UNL     1       2.794   7.060  19.449  0.00  0.00    +0.000 A 
ATOM      6  C   UNL     1       3.794   6.074  19.376  0.00  0.00    +0.000 A 
ATOM      7  C   UNL     1       1.932   7.164  20.704  0.00  0.00    +0.000 C 
ATOM      8  C   UNL     1       1.398   8.612  20.853  0.00  0.00    +0.000 C 
ATOM      9  C   UNL     1       0.629   8.999  19.584  0.00  0.00    +0.000 C 
ATOM     10  C   UNL     1       1.562   9.022  18.377  0.00  0.00    +0.000 C 
ENDROOT
BRANCH   1  11
ATOM     11  O   UNL     1       5.583   5.021  18.077  0.00  0.00    +0.000 OA
BRANCH  11  12
ATOM     12  C   UNL     1       6.872   5.560  18.376  0.00  0.00    +0.000 C 
BRANCH  12  13
ATOM     13  C   UNL     1       7.594   5.855  17.067  0.00  0.00    +0.000 C 
BRANCH  13  14
ATOM     14  N   UNL     1       7.529   4.723  16.080  0.00  0.00    +0.000 NA
ATOM     15  H   UNL     1       8.460   4.314  15.988  0.00  0.00    +0.000 HD
BRANCH  14  16
ATOM     16  S   UNL     1       6.925   5.164  14.562  0.00  0.00    +0.000 S 
ATOM     17  O   UNL     1       8.085   5.493  13.754  0.00  0.00    +0.000 OA
ATOM     18  O   UNL     1       5.842   6.106  14.765  0.00  0.00    +0.000 OA
BRANCH  16  20
ATOM     19  C   UNL     1       6.341   3.576  12.457  0.00  0.00    +0.000 C 
ATOM     20  C   UNL     1       6.226   3.639  13.969  0.00  0.00    +0.000 C 
ENDBRANCH  16  20
ENDBRANCH  14  16
ENDBRANCH  13  14
ENDBRANCH  12  13
ENDBRANCH  11  12
ENDBRANCH   1  11
BRANCH   7  21
ATOM     21  C   UNL     1       0.878   6.017  20.797  0.00  0.00    +0.000 C 
BRANCH  21  22
ATOM     22  C   UNL     1       1.223   4.570  20.477  0.00  0.00    +0.000 A 
ATOM     23  C   UNL     1       1.764   3.695  21.432  0.00  0.00    +0.000 A 
ATOM     24  C   UNL     1       1.940   2.336  21.160  0.00  0.00    +0.000 A 
ATOM     25  C   UNL     1       1.514   1.811  19.947  0.00  0.00    +0.000 A 
ATOM     26  C   UNL     1       0.994   2.660  18.975  0.00  0.00    +0.000 A 
ATOM     27  C   UNL     1       0.879   4.033  19.226  0.00  0.00    +0.000 A 
ENDBRANCH  21  22
ENDBRANCH   7  21
BRANCH   8  28
ATOM     28  C   UNL     1       0.556   8.923  22.100  0.00  0.00    +0.000 C 
BRANCH  28  29
ATOM     29  N   UNL     1       0.497  10.342  22.445  0.00  0.00    +0.000 NA
ATOM     30  H   UNL     1       1.396  10.781  22.267  0.00  0.00    +0.000 HD
ATOM     31  H   UNL     1       0.356  10.433  23.452  0.00  0.00    +0.000 HD
ENDBRANCH  28  29
ENDBRANCH   8  28
TORSDOF 10
ENDMDL
MODEL 8
REMARK VINA RESULT:      -6.8      5.222      8.384
REMARK  Name = 
REMARK  11 active torsions:
REMARK  status: ('A' for Active; 'I' for Inactive)
REMARK    1  A    between atoms: C_1  and  C_2
REMARK    2  A    between atoms: C_2  and  S_3
REMARK    3  A    between atoms: S_3  and  N_6
REMARK    4  A    between atoms: N_6  and  C_7
REMARK    5  A    between atoms: C_7  and  C_8
REMARK    6  A    between atoms: C_8  and  O_9
REMARK    7  A    between atoms: O_9  and  C_10
REMARK    8  A    between atoms: C_16  and  C_17
REMARK    9  A    between atoms: C_17  and  C_18
REMARK   10  A    between atoms: C_24  and  C_25
REMARK   11  A    between atoms: C_25  and  N_26
REMARK                            x       y       z     vdW  Elec       q    Type
REMARK                         _______ _______ _______ _____ _____    ______ ____
ROOT
ATOM      1  C   UNL     1       2.825   7.297  18.371  0.00  0.00    +0.000 A 
ATOM      2  C   UNL     1       2.519   6.836  19.648  0.00  0.00    +0.000 A 
ATOM      3  C   UNL     1       1.681   7.578  20.479  0.00  0.00    +0.000 A 
ATOM      4  C   UNL     1       1.140   8.796  20.045  0.00  0.00    +0.000 A 
ATOM      5  C   UNL     1       1.459   9.275  18.759  0.00  0.00    +0.000 A 
ATOM      6  C   UNL     1       2.297   8.511  17.928  0.00  0.00    +0.000 A 
ATOM      7  C   UNL     1       0.954  10.631  18.275  0.00  0.00    +0.000 C 
ATOM      8  C   UNL     1      -0.380  10.977  18.987  0.00  0.00    +0.000 C 
ATOM      9  C   UNL     1      -0.165  10.943  20.504  0.00  0.00    +0.000 C 
ATOM     10  C   UNL     1       0.198   9.534  20.964  0.00  0.00    +0.000 C 
ENDROOT
BRANCH   1  11
ATOM     11  O   UNL     1       3.601   6.463  17.609  0.00  0.00    +0.000 OA
BRANCH  11  12
ATOM     12  C   UNL     1       3.758   5.150  18.151  0.00  0.00    +0.000 C 
BRANCH  12  13
ATOM     13  C   UNL     1       3.054   4.156  17.236  0.00  0.00    +0.000 C 
BRANCH  13  14
ATOM     14  N   UNL     1       1.619   3.911  17.610  0.00  0.00    +0.000 NA
ATOM     15  H   UNL     1       1.214   4.784  17.951  0.00  0.00    +0.000 HD
BRANCH  14  16
ATOM     16  S   UNL     1       1.403   2.676  18.747  0.00  0.00    +0.000 S 
ATOM     17  O   UNL     1       2.678   1.988  18.830  0.00  0.00    +0.000 OA
ATOM     18  O   UNL     1       0.175   1.977  18.426  0.00  0.00    +0.000 OA
BRANCH  16  20
ATOM     19  C   UNL     1       1.438   2.693  21.447  0.00  0.00    +0.000 C 
ATOM     20  C   UNL     1       1.142   3.584  20.255  0.00  0.00    +0.000 C 
ENDBRANCH  16  20
ENDBRANCH  14  16
ENDBRANCH  13  14
ENDBRANCH  12  13
ENDBRANCH  11  12
ENDBRANCH   1  11
BRANCH   7  21
ATOM     21  C   UNL     1       2.066  11.725  18.306  0.00  0.00    +0.000 C 
BRANCH  21  22
ATOM     22  C   UNL     1       1.917  13.012  19.103  0.00  0.00    +0.000 A 
ATOM     23  C   UNL     1       2.219  13.091  20.472  0.00  0.00    +0.000 A 
ATOM     24  C   UNL     1       2.212  14.311  21.152  0.00  0.00    +0.000 A 
ATOM     25  C   UNL     1       1.967  15.490  20.458  0.00  0.00    +0.000 A 
ATOM     26  C   UNL     1       1.644  15.437  19.105  0.00  0.00    +0.000 A 
ATOM     27  C   UNL     1       1.588  14.206  18.441  0.00  0.00    +0.000 A 
ENDBRANCH  21  22
ENDBRANCH   7  21
BRANCH   8  28
ATOM     28  C   UNL     1      -1.074  12.285  18.577  0.00  0.00    +0.000 C 
BRANCH  28  29
ATOM     29  N   UNL     1      -1.604  12.280  17.214  0.00  0.00    +0.000 NA
ATOM     30  H   UNL     1      -0.999  11.735  16.607  0.00  0.00    +0.000 HD
ATOM     31  H   UNL     1      -1.566  13.229  16.840  0.00  0.00    +0.000 HD
ENDBRANCH  28  29
ENDBRANCH   8  28
TORSDOF 10
ENDMDL
MODEL 9
REMARK VINA RESULT:      -6.8      4.213      7.367
REMARK  Name = 
REMARK  11 active torsions:
REMARK  status: ('A' for Active; 'I' for Inactive)
REMARK    1  A    between atoms: C_1  and  C_2
REMARK    2  A    between atoms: C_2  and  S_3
REMARK    3  A    between atoms: S_3  and  N_6
REMARK    4  A    between atoms: N_6  and  C_7
REMARK    5  A    between atoms: C_7  and  C_8
REMARK    6  A    between atoms: C_8  and  O_9
REMARK    7  A    between atoms: O_9  and  C_10
REMARK    8  A    between atoms: C_16  and  C_17
REMARK    9  A    between atoms: C_17  and  C_18
REMARK   10  A    between atoms: C_24  and  C_25
REMARK   11  A    between atoms: C_25  and  N_26
REMARK                            x       y       z     vdW  Elec       q    Type
REMARK                         _______ _______ _______ _____ _____    ______ ____
ROOT
ATOM      1  C   UNL     1       2.111   8.276  18.863  0.00  0.00    +0.000 A 
ATOM      2  C   UNL     1       2.002   7.345  19.893  0.00  0.00    +0.000 A 
ATOM      3  C   UNL     1       1.301   7.663  21.055  0.00  0.00    +0.000 A 
ATOM      4  C   UNL     1       0.702   8.921  21.205  0.00  0.00    +0.000 A 
ATOM      5  C   UNL     1       0.822   9.873  20.174  0.00  0.00    +0.000 A 
ATOM      6  C   UNL     1       1.523   9.535  19.003  0.00  0.00    +0.000 A 
ATOM      7  C   UNL     1       0.251  11.280  20.328  0.00  0.00    +0.000 C 
ATOM      8  C   UNL     1      -0.958  11.250  21.298  0.00  0.00    +0.000 C 
ATOM      9  C   UNL     1      -0.515  10.651  22.638  0.00  0.00    +0.000 C 
ATOM     10  C   UNL     1      -0.088   9.197  22.462  0.00  0.00    +0.000 C 
ENDROOT
BRANCH   1  11
ATOM     11  O   UNL     1       2.761   7.843  17.737  0.00  0.00    +0.000 OA
BRANCH  11  12
ATOM     12  C   UNL     1       3.289   6.519  17.837  0.00  0.00    +0.000 C 
BRANCH  12  13
ATOM     13  C   UNL     1       4.705   6.515  17.274  0.00  0.00    +0.000 C 
BRANCH  13  14
ATOM     14  N   UNL     1       5.620   5.540  17.961  0.00  0.00    +0.000 NA
ATOM     15  H   UNL     1       5.893   5.928  18.866  0.00  0.00    +0.000 HD
BRANCH  14  16
ATOM     16  S   UNL     1       6.989   5.125  17.059  0.00  0.00    +0.000 S 
ATOM     17  O   UNL     1       7.857   4.398  17.968  0.00  0.00    +0.000 OA
ATOM     18  O   UNL     1       7.440   6.307  16.352  0.00  0.00    +0.000 OA
BRANCH  16  20
ATOM     19  C   UNL     1       6.583   4.509  14.461  0.00  0.00    +0.000 C 
ATOM     20  C   UNL     1       6.330   3.985  15.862  0.00  0.00    +0.000 C 
ENDBRANCH  16  20
ENDBRANCH  14  16
ENDBRANCH  13  14
ENDBRANCH  12  13
ENDBRANCH  11  12
ENDBRANCH   1  11
BRANCH   7  21
ATOM     21  C   UNL     1       1.357  12.341  20.622  0.00  0.00    +0.000 C 
BRANCH  21  22
ATOM     22  C   UNL     1       1.613  13.524  19.700  0.00  0.00    +0.000 A 
ATOM     23  C   UNL     1       0.905  14.731  19.809  0.00  0.00    +0.000 A 
ATOM     24  C   UNL     1       1.251  15.851  19.048  0.00  0.00    +0.000 A 
ATOM     25  C   UNL     1       2.358  15.805  18.211  0.00  0.00    +0.000 A 
ATOM     26  C   UNL     1       3.064  14.613  18.070  0.00  0.00    +0.000 A 
ATOM     27  C   UNL     1       2.675  13.474  18.783  0.00  0.00    +0.000 A 
ENDBRANCH  21  22
ENDBRANCH   7  21
BRANCH   8  28
ATOM     28  C   UNL     1      -1.705  12.573  21.528  0.00  0.00    +0.000 C 
BRANCH  28  29
ATOM     29  N   UNL     1      -1.437  13.195  22.824  0.00  0.00    +0.000 NA
ATOM     30  H   UNL     1      -1.294  12.478  23.530  0.00  0.00    +0.000 HD
ATOM     31  H   UNL     1      -2.271  13.700  23.128  0.00  0.00    +0.000 HD
ENDBRANCH  28  29
ENDBRANCH   8  28
TORSDOF 10
ENDMDL
