MODEL 1
REMARK VINA RESULT:      -7.9      0.000      0.000
REMARK  Name = 
REMARK  1 active torsions:
REMARK  status: ('A' for Active; 'I' for Inactive)
REMARK    1  A    between atoms: N_1  and  C_2
REMARK                            x       y       z     vdW  Elec       q    Type
REMARK                         _______ _______ _______ _____ _____    ______ ____
ROOT
ATOM      1  C   UNL     1       1.861   9.519  18.392  0.00  0.00    +0.000 A 
ATOM      2  C   UNL     1       1.145   9.496  19.588  0.00  0.00    +0.000 A 
ATOM      3  C   UNL     1       1.125   8.347  20.377  0.00  0.00    +0.000 A 
ATOM      4  C   UNL     1       1.860   7.225  19.988  0.00  0.00    +0.000 A 
ATOM      5  N   UNL     1       1.834   6.098  20.824  0.00  0.00    +0.000 N 
ATOM      6  C   UNL     1       2.536   4.942  20.570  0.00  0.00    +0.000 A 
ATOM      7  O   UNL     1       2.465   4.005  21.365  0.00  0.00    +0.000 OA
ATOM      8  C   UNL     1       3.311   4.963  19.347  0.00  0.00    +0.000 A 
ATOM      9  S   UNL     1       4.220   3.613  18.887  0.00  0.00    +0.000 S 
ATOM     10  C   UNL     1       4.775   4.384  17.458  0.00  0.00    +0.000 A 
ATOM     11  C   UNL     1       5.643   3.812  16.501  0.00  0.00    +0.000 A 
ATOM     12  C   UNL     1       6.014   4.552  15.382  0.00  0.00    +0.000 A 
ATOM     13  C   UNL     1       5.534   5.837  15.215  0.00  0.00    +0.000 A 
ATOM     14  C   UNL     1       4.672   6.399  16.166  0.00  0.00    +0.000 A 
ATOM     15  C   UNL     1       4.264   5.685  17.328  0.00  0.00    +0.000 A 
ATOM     16  C   UNL     1       3.401   6.021  18.455  0.00  0.00    +0.000 A 
ATOM     17  C   UNL     1       2.629   7.230  18.805  0.00  0.00    +0.000 A 
ATOM     18  C   UNL     1       2.630   8.402  18.040  0.00  0.00    +0.000 A 
ATOM     19  H   UNL     1       1.296   6.099  21.679  0.00  0.00    +0.000 HD
ENDROOT
BRANCH   1  20
ATOM     20  N   UNL     1       2.005  10.717  17.682  0.00  0.00    +0.000 N 
ATOM     21  H   UNL     1       2.922  11.144  17.763  0.00  0.00    +0.000 HD
ATOM     22  H   UNL     1       1.255  11.387  17.833  0.00  0.00    +0.000 HD
ENDBRANCH   1  20
TORSDOF 1
ENDMDL
MODEL 2
REMARK VINA RESULT:      -7.8      4.125      6.388
REMARK  Name = 
REMARK  1 active torsions:
REMARK  status: ('A' for Active; 'I' for Inactive)
REMARK    1  A    between atoms: N_1  and  C_2
REMARK                            x       y       z     vdW  Elec       q    Type
REMARK                         _______ _______ _______ _____ _____    ______ ____
ROOT
ATOM      1  C   UNL     1       5.933   3.614  13.071  0.00  0.00    +0.000 A 
ATOM      2  C   UNL     1       7.051   4.400  12.801  0.00  0.00    +0.000 A 
ATOM      3  C   UNL     1       7.578   5.240  13.782  0.00  0.00    +0.000 A 
ATOM      4  C   UNL     1       7.006   5.264  15.056  0.00  0.00    +0.000 A 
ATOM      5  N   UNL     1       7.583   6.104  16.021  0.00  0.00    +0.000 N 
ATOM      6  C   UNL     1       7.134   6.197  17.318  0.00  0.00    +0.000 A 
ATOM      7  O   UNL     1       7.708   6.951  18.103  0.00  0.00    +0.000 OA
ATOM      8  C   UNL     1       5.991   5.361  17.623  0.00  0.00    +0.000 A 
ATOM      9  S   UNL     1       5.312   5.372  19.172  0.00  0.00    +0.000 S 
ATOM     10  C   UNL     1       4.114   4.225  18.733  0.00  0.00    +0.000 A 
ATOM     11  C   UNL     1       3.113   3.716  19.589  0.00  0.00    +0.000 A 
ATOM     12  C   UNL     1       2.199   2.786  19.101  0.00  0.00    +0.000 A 
ATOM     13  C   UNL     1       2.278   2.367  17.787  0.00  0.00    +0.000 A 
ATOM     14  C   UNL     1       3.272   2.876  16.941  0.00  0.00    +0.000 A 
ATOM     15  C   UNL     1       4.231   3.826  17.392  0.00  0.00    +0.000 A 
ATOM     16  C   UNL     1       5.350   4.502  16.743  0.00  0.00    +0.000 A 
ATOM     17  C   UNL     1       5.899   4.448  15.374  0.00  0.00    +0.000 A 
ATOM     18  C   UNL     1       5.399   3.614  14.368  0.00  0.00    +0.000 A 
ATOM     19  H   UNL     1       8.385   6.676  15.797  0.00  0.00    +0.000 HD
ENDROOT
BRANCH   1  20
ATOM     20  N   UNL     1       5.501   2.661  12.140  0.00  0.00    +0.000 N 
ATOM     21  H   UNL     1       5.401   1.724  12.515  0.00  0.00    +0.000 HD
ATOM     22  H   UNL     1       6.015   2.671  11.263  0.00  0.00    +0.000 HD
ENDBRANCH   1  20
TORSDOF 1
ENDMDL
MODEL 3
REMARK VINA RESULT:      -7.1      2.913      6.102
REMARK  Name = 
REMARK  1 active torsions:
REMARK  status: ('A' for Active; 'I' for Inactive)
REMARK    1  A    between atoms: N_1  and  C_2
REMARK                            x       y       z     vdW  Elec       q    Type
REMARK                         _______ _______ _______ _____ _____    ______ ____
ROOT
ATOM      1  C   UNL     1       2.352   3.294  21.075  0.00  0.00    +0.000 A 
ATOM      2  C   UNL     1       3.255   2.616  20.258  0.00  0.00    +0.000 A 
ATOM      3  C   UNL     1       3.817   3.250  19.150  0.00  0.00    +0.000 A 
ATOM      4  C   UNL     1       3.505   4.584  18.880  0.00  0.00    +0.000 A 
ATOM      5  N   UNL     1       4.111   5.191  17.770  0.00  0.00    +0.000 N 
ATOM      6  C   UNL     1       3.911   6.505  17.414  0.00  0.00    +0.000 A 
ATOM      7  O   UNL     1       4.495   6.960  16.430  0.00  0.00    +0.000 OA
ATOM      8  C   UNL     1       3.000   7.231  18.274  0.00  0.00    +0.000 A 
ATOM      9  S   UNL     1       2.640   8.854  17.962  0.00  0.00    +0.000 S 
ATOM     10  C   UNL     1       1.582   8.953  19.310  0.00  0.00    +0.000 A 
ATOM     11  C   UNL     1       0.861  10.101  19.704  0.00  0.00    +0.000 A 
ATOM     12  C   UNL     1       0.034  10.043  20.822  0.00  0.00    +0.000 A 
ATOM     13  C   UNL     1      -0.075   8.866  21.537  0.00  0.00    +0.000 A 
ATOM     14  C   UNL     1       0.642   7.729  21.142  0.00  0.00    +0.000 A 
ATOM     15  C   UNL     1       1.502   7.737  20.008  0.00  0.00    +0.000 A 
ATOM     16  C   UNL     1       2.350   6.724  19.389  0.00  0.00    +0.000 A 
ATOM     17  C   UNL     1       2.627   5.310  19.713  0.00  0.00    +0.000 A 
ATOM     18  C   UNL     1       2.085   4.646  20.819  0.00  0.00    +0.000 A 
ATOM     19  H   UNL     1       4.752   4.675  17.183  0.00  0.00    +0.000 HD
ENDROOT
BRANCH   1  20
ATOM     20  N   UNL     1       1.910   2.710  22.269  0.00  0.00    +0.000 N 
ATOM     21  H   UNL     1       1.128   3.189  22.705  0.00  0.00    +0.000 HD
ATOM     22  H   UNL     1       2.651   2.503  22.933  0.00  0.00    +0.000 HD
ENDBRANCH   1  20
TORSDOF 1
ENDMDL
MODEL 4
REMARK VINA RESULT:      -6.9      2.279      4.002
REMARK  Name = 
REMARK  1 active torsions:
REMARK  status: ('A' for Active; 'I' for Inactive)
REMARK    1  A    between atoms: N_1  and  C_2
REMARK                            x       y       z     vdW  Elec       q    Type
REMARK                         _______ _______ _______ _____ _____    ______ ____
ROOT
ATOM      1  C   UNL     1       1.003   9.081  19.844  0.00  0.00    +0.000 A 
ATOM      2  C   UNL     1       1.370   9.909  18.784  0.00  0.00    +0.000 A 
ATOM      3  C   UNL     1       2.299   9.475  17.839  0.00  0.00    +0.000 A 
ATOM      4  C   UNL     1       2.835   8.188  17.931  0.00  0.00    +0.000 A 
ATOM      5  N   UNL     1       3.747   7.782  16.946  0.00  0.00    +0.000 N 
ATOM      6  C   UNL     1       4.323   6.533  16.906  0.00  0.00    +0.000 A 
ATOM      7  O   UNL     1       5.105   6.257  15.997  0.00  0.00    +0.000 OA
ATOM      8  C   UNL     1       3.925   5.651  17.984  0.00  0.00    +0.000 A 
ATOM      9  S   UNL     1       4.555   4.085  18.083  0.00  0.00    +0.000 S 
ATOM     10  C   UNL     1       3.668   3.741  19.511  0.00  0.00    +0.000 A 
ATOM     11  C   UNL     1       3.698   2.521  20.222  0.00  0.00    +0.000 A 
ATOM     12  C   UNL     1       2.926   2.377  21.371  0.00  0.00    +0.000 A 
ATOM     13  C   UNL     1       2.137   3.424  21.807  0.00  0.00    +0.000 A 
ATOM     14  C   UNL     1       2.112   4.633  21.100  0.00  0.00    +0.000 A 
ATOM     15  C   UNL     1       2.881   4.830  19.918  0.00  0.00    +0.000 A 
ATOM     16  C   UNL     1       3.037   5.956  19.003  0.00  0.00    +0.000 A 
ATOM     17  C   UNL     1       2.451   7.311  18.968  0.00  0.00    +0.000 A 
ATOM     18  C   UNL     1       1.514   7.777  19.896  0.00  0.00    +0.000 A 
ATOM     19  H   UNL     1       4.010   8.405  16.194  0.00  0.00    +0.000 HD
ENDROOT
BRANCH   1  20
ATOM     20  N   UNL     1      -0.040   9.457  20.700  0.00  0.00    +0.000 N 
ATOM     21  H   UNL     1       0.113   9.221  21.675  0.00  0.00    +0.000 HD
ATOM     22  H   UNL     1      -0.965   9.184  20.379  0.00  0.00    +0.000 HD
ENDBRANCH   1  20
TORSDOF 1
ENDMDL
MODEL 5
REMARK VINA RESULT:      -6.9      2.149      5.022
REMARK  Name = 
REMARK  1 active torsions:
REMARK  status: ('A' for Active; 'I' for Inactive)
REMARK    1  A    between atoms: N_1  and  C_2
REMARK                            x       y       z     vdW  Elec       q    Type
REMARK                         _______ _______ _______ _____ _____    ______ ____
ROOT
ATOM      1  C   UNL     1       5.186   5.472  16.204  0.00  0.00    +0.000 A 
ATOM      2  C   UNL     1       5.447   4.174  16.639  0.00  0.00    +0.000 A 
ATOM      3  C   UNL     1       4.892   3.703  17.828  0.00  0.00    +0.000 A 
ATOM      4  C   UNL     1       4.036   4.522  18.568  0.00  0.00    +0.000 A 
ATOM      5  N   UNL     1       3.478   4.000  19.745  0.00  0.00    +0.000 N 
ATOM      6  C   UNL     1       2.599   4.693  20.546  0.00  0.00    +0.000 A 
ATOM      7  O   UNL     1       2.149   4.153  21.555  0.00  0.00    +0.000 OA
ATOM      8  C   UNL     1       2.293   6.033  20.088  0.00  0.00    +0.000 A 
ATOM      9  S   UNL     1       1.239   7.017  20.970  0.00  0.00    +0.000 S 
ATOM     10  C   UNL     1       1.407   8.315  19.860  0.00  0.00    +0.000 A 
ATOM     11  C   UNL     1       0.765   9.569  19.961  0.00  0.00    +0.000 A 
ATOM     12  C   UNL     1       0.992  10.537  18.987  0.00  0.00    +0.000 A 
ATOM     13  C   UNL     1       1.840  10.265  17.930  0.00  0.00    +0.000 A 
ATOM     14  C   UNL     1       2.475   9.020  17.835  0.00  0.00    +0.000 A 
ATOM     15  C   UNL     1       2.275   7.996  18.804  0.00  0.00    +0.000 A 
ATOM     16  C   UNL     1       2.792   6.639  18.945  0.00  0.00    +0.000 A 
ATOM     17  C   UNL     1       3.718   5.826  18.132  0.00  0.00    +0.000 A 
ATOM     18  C   UNL     1       4.289   6.265  16.932  0.00  0.00    +0.000 A 
ATOM     19  H   UNL     1       3.694   3.061  20.048  0.00  0.00    +0.000 HD
ENDROOT
BRANCH   1  20
ATOM     20  N   UNL     1       5.617   5.889  14.938  0.00  0.00    +0.000 N 
ATOM     21  H   UNL     1       5.880   5.132  14.315  0.00  0.00    +0.000 HD
ATOM     22  H   UNL     1       6.312   6.631  14.956  0.00  0.00    +0.000 HD
ENDBRANCH   1  20
TORSDOF 1
ENDMDL
MODEL 6
REMARK VINA RESULT:      -6.7      2.102      5.051
REMARK  Name = 
REMARK  1 active torsions:
REMARK  status: ('A' for Active; 'I' for Inactive)
REMARK    1  A    between atoms: N_1  and  C_2
REMARK                            x       y       z     vdW  Elec       q    Type
REMARK                         _______ _______ _______ _____ _____    ______ ____
ROOT
ATOM      1  C   UNL     1       5.210   6.070  15.582  0.00  0.00    +0.000 A 
ATOM      2  C   UNL     1       5.812   4.823  15.429  0.00  0.00    +0.000 A 
ATOM      3  C   UNL     1       5.641   3.832  16.395  0.00  0.00    +0.000 A 
ATOM      4  C   UNL     1       4.829   4.077  17.505  0.00  0.00    +0.000 A 
ATOM      5  N   UNL     1       4.663   3.045  18.441  0.00  0.00    +0.000 N 
ATOM      6  C   UNL     1       3.867   3.148  19.558  0.00  0.00    +0.000 A 
ATOM      7  O   UNL     1       3.769   2.188  20.321  0.00  0.00    +0.000 OA
ATOM      8  C   UNL     1       3.208   4.429  19.714  0.00  0.00    +0.000 A 
ATOM      9  S   UNL     1       2.205   4.719  21.044  0.00  0.00    +0.000 S 
ATOM     10  C   UNL     1       1.861   6.318  20.527  0.00  0.00    +0.000 A 
ATOM     11  C   UNL     1       1.024   7.236  21.200  0.00  0.00    +0.000 A 
ATOM     12  C   UNL     1       0.832   8.508  20.668  0.00  0.00    +0.000 A 
ATOM     13  C   UNL     1       1.458   8.863  19.489  0.00  0.00    +0.000 A 
ATOM     14  C   UNL     1       2.288   7.950  18.826  0.00  0.00    +0.000 A 
ATOM     15  C   UNL     1       2.516   6.637  19.327  0.00  0.00    +0.000 A 
ATOM     16  C   UNL     1       3.308   5.509  18.850  0.00  0.00    +0.000 A 
ATOM     17  C   UNL     1       4.171   5.315  17.667  0.00  0.00    +0.000 A 
ATOM     18  C   UNL     1       4.360   6.284  16.676  0.00  0.00    +0.000 A 
ATOM     19  H   UNL     1       5.121   2.153  18.316  0.00  0.00    +0.000 HD
ENDROOT
BRANCH   1  20
ATOM     20  N   UNL     1       5.256   7.005  14.541  0.00  0.00    +0.000 N 
ATOM     21  H   UNL     1       5.904   6.771  13.796  0.00  0.00    +0.000 HD
ATOM     22  H   UNL     1       5.357   7.969  14.848  0.00  0.00    +0.000 HD
ENDBRANCH   1  20
TORSDOF 1
ENDMDL
MODEL 7
REMARK VINA RESULT:      -6.7      2.679      4.169
REMARK  Name = 
REMARK  1 active torsions:
REMARK  status: ('A' for Active; 'I' for Inactive)
REMARK    1  A    between atoms: N_1  and  C_2
REMARK                            x       y       z     vdW  Elec       q    Type
REMARK                         _______ _______ _______ _____ _____    ______ ____
ROOT
ATOM      1  C   UNL     1       0.241   8.916  21.713  0.00  0.00    +0.000 A 
ATOM      2  C   UNL     1       0.276  10.045  20.897  0.00  0.00    +0.000 A 
ATOM      3  C   UNL     1       1.009  10.036  19.710  0.00  0.00    +0.000 A 
ATOM      4  C   UNL     1       1.679   8.876  19.316  0.00  0.00    +0.000 A 
ATOM      5  N   UNL     1       2.383   8.901  18.103  0.00  0.00    +0.000 N 
ATOM      6  C   UNL     1       3.058   7.818  17.589  0.00  0.00    +0.000 A 
ATOM      7  O   UNL     1       3.639   7.926  16.509  0.00  0.00    +0.000 OA
ATOM      8  C   UNL     1       3.003   6.627  18.411  0.00  0.00    +0.000 A 
ATOM      9  S   UNL     1       3.795   5.214  17.923  0.00  0.00    +0.000 S 
ATOM     10  C   UNL     1       3.290   4.362  19.325  0.00  0.00    +0.000 A 
ATOM     11  C   UNL     1       3.602   3.018  19.624  0.00  0.00    +0.000 A 
ATOM     12  C   UNL     1       3.126   2.448  20.801  0.00  0.00    +0.000 A 
ATOM     13  C   UNL     1       2.353   3.199  21.667  0.00  0.00    +0.000 A 
ATOM     14  C   UNL     1       2.048   4.532  21.366  0.00  0.00    +0.000 A 
ATOM     15  C   UNL     1       2.508   5.161  20.175  0.00  0.00    +0.000 A 
ATOM     16  C   UNL     1       2.340   6.500  19.622  0.00  0.00    +0.000 A 
ATOM     17  C   UNL     1       1.628   7.703  20.100  0.00  0.00    +0.000 A 
ATOM     18  C   UNL     1       0.880   7.745  21.281  0.00  0.00    +0.000 A 
ATOM     19  H   UNL     1       2.406   9.736  17.534  0.00  0.00    +0.000 HD
ENDROOT
BRANCH   1  20
ATOM     20  N   UNL     1      -0.615   8.875  22.821  0.00  0.00    +0.000 N 
ATOM     21  H   UNL     1      -0.277   9.386  23.630  0.00  0.00    +0.000 HD
ATOM     22  H   UNL     1      -0.942   7.943  23.063  0.00  0.00    +0.000 HD
ENDBRANCH   1  20
TORSDOF 1
ENDMDL
MODEL 8
REMARK VINA RESULT:      -6.6      2.775      5.423
REMARK  Name = 
REMARK  1 active torsions:
REMARK  status: ('A' for Active; 'I' for Inactive)
REMARK    1  A    between atoms: N_1  and  C_2
REMARK                            x       y       z     vdW  Elec       q    Type
REMARK                         _______ _______ _______ _____ _____    ______ ____
ROOT
ATOM      1  C   UNL     1       5.571   4.344  15.773  0.00  0.00    +0.000 A 
ATOM      2  C   UNL     1       5.727   5.593  15.175  0.00  0.00    +0.000 A 
ATOM      3  C   UNL     1       5.042   6.703  15.669  0.00  0.00    +0.000 A 
ATOM      4  C   UNL     1       4.226   6.571  16.795  0.00  0.00    +0.000 A 
ATOM      5  N   UNL     1       3.576   7.718  17.275  0.00  0.00    +0.000 N 
ATOM      6  C   UNL     1       2.770   7.729  18.390  0.00  0.00    +0.000 A 
ATOM      7  O   UNL     1       2.248   8.784  18.747  0.00  0.00    +0.000 OA
ATOM      8  C   UNL     1       2.624   6.443  19.041  0.00  0.00    +0.000 A 
ATOM      9  S   UNL     1       1.655   6.288  20.419  0.00  0.00    +0.000 S 
ATOM     10  C   UNL     1       1.984   4.609  20.548  0.00  0.00    +0.000 A 
ATOM     11  C   UNL     1       1.472   3.747  21.543  0.00  0.00    +0.000 A 
ATOM     12  C   UNL     1       1.820   2.399  21.530  0.00  0.00    +0.000 A 
ATOM     13  C   UNL     1       2.662   1.915  20.547  0.00  0.00    +0.000 A 
ATOM     14  C   UNL     1       3.166   2.773  19.561  0.00  0.00    +0.000 A 
ATOM     15  C   UNL     1       2.842   4.159  19.532  0.00  0.00    +0.000 A 
ATOM     16  C   UNL     1       3.220   5.256  18.647  0.00  0.00    +0.000 A 
ATOM     17  C   UNL     1       4.081   5.329  17.449  0.00  0.00    +0.000 A 
ATOM     18  C   UNL     1       4.786   4.238  16.930  0.00  0.00    +0.000 A 
ATOM     19  H   UNL     1       3.693   8.611  16.815  0.00  0.00    +0.000 HD
ENDROOT
BRANCH   1  20
ATOM     20  N   UNL     1       6.374   3.268  15.374  0.00  0.00    +0.000 N 
ATOM     21  H   UNL     1       6.926   2.858  16.121  0.00  0.00    +0.000 HD
ATOM     22  H   UNL     1       6.926   3.445  14.540  0.00  0.00    +0.000 HD
ENDBRANCH   1  20
TORSDOF 1
ENDMDL
MODEL 9
REMARK VINA RESULT:      -6.5      2.904      5.473
REMARK  Name = 
REMARK  1 active torsions:
REMARK  status: ('A' for Active; 'I' for Inactive)
REMARK    1  A    between atoms: N_1  and  C_2
REMARK                            x       y       z     vdW  Elec       q    Type
REMARK                         _______ _______ _______ _____ _____    ______ ____
ROOT
ATOM      1  C   UNL     1       7.085   4.931  17.528  0.00  0.00    +0.000 A 
ATOM      2  C   UNL     1       7.150   6.126  16.815  0.00  0.00    +0.000 A 
ATOM      3  C   UNL     1       6.067   7.006  16.812  0.00  0.00    +0.000 A 
ATOM      4  C   UNL     1       4.927   6.706  17.560  0.00  0.00    +0.000 A 
ATOM      5  N   UNL     1       3.871   7.630  17.550  0.00  0.00    +0.000 N 
ATOM      6  C   UNL     1       2.707   7.468  18.266  0.00  0.00    +0.000 A 
ATOM      7  O   UNL     1       1.837   8.336  18.209  0.00  0.00    +0.000 OA
ATOM      8  C   UNL     1       2.639   6.244  19.038  0.00  0.00    +0.000 A 
ATOM      9  S   UNL     1       1.268   5.891  19.963  0.00  0.00    +0.000 S 
ATOM     10  C   UNL     1       1.928   4.403  20.504  0.00  0.00    +0.000 A 
ATOM     11  C   UNL     1       1.292   3.493  21.377  0.00  0.00    +0.000 A 
ATOM     12  C   UNL     1       1.943   2.316  21.737  0.00  0.00    +0.000 A 
ATOM     13  C   UNL     1       3.204   2.048  21.240  0.00  0.00    +0.000 A 
ATOM     14  C   UNL     1       3.830   2.953  20.373  0.00  0.00    +0.000 A 
ATOM     15  C   UNL     1       3.208   4.171  19.977  0.00  0.00    +0.000 A 
ATOM     16  C   UNL     1       3.623   5.270  19.112  0.00  0.00    +0.000 A 
ATOM     17  C   UNL     1       4.847   5.524  18.326  0.00  0.00    +0.000 A 
ATOM     18  C   UNL     1       5.952   4.666  18.310  0.00  0.00    +0.000 A 
ATOM     19  H   UNL     1       3.934   8.484  17.014  0.00  0.00    +0.000 HD
ENDROOT
BRANCH   1  20
ATOM     20  N   UNL     1       8.224   4.126  17.655  0.00  0.00    +0.000 N 
ATOM     21  H   UNL     1       8.099   3.314  18.252  0.00  0.00    +0.000 HD
ATOM     22  H   UNL     1       9.075   4.636  17.874  0.00  0.00    +0.000 HD
ENDBRANCH   1  20
TORSDOF 1
ENDMDL
