MODEL 1
REMARK VINA RESULT:      -6.7      0.000      0.000
REMARK  Name = 
REMARK  10 active torsions:
REMARK  status: ('A' for Active; 'I' for Inactive)
REMARK    1  A    between atoms: C_1  and  C_2
REMARK    2  A    between atoms: C_2  and  C_3
REMARK    3  A    between atoms: C_3  and  C_4
REMARK    4  A    between atoms: C_4  and  C_5
REMARK    5  A    between atoms: C_10  and  C_11
REMARK    6  A    between atoms: C_14  and  O_15
REMARK    7  A    between atoms: O_15  and  C_16
REMARK    8  A    between atoms: C_16  and  C_17
REMARK    9  A    between atoms: C_17  and  O_18
REMARK   10  A    between atoms: O_18  and  C_19
REMARK                            x       y       z     vdW  Elec       q    Type
REMARK                         _______ _______ _______ _____ _____    ______ ____
ROOT
ATOM      1  C   UNL     1       6.242   5.793  16.567  0.00  0.00    +0.000 A 
ATOM      2  C   UNL     1       6.862   4.944  17.634  0.00  0.00    +0.000 A 
ATOM      3  C   UNL     1       7.679   5.547  18.505  0.00  0.00    +0.000 A 
ATOM      4  C   UNL     1       7.908   6.935  18.389  0.00  0.00    +0.000 A 
ATOM      5  N   UNL     1       8.685   7.755  19.066  0.00  0.00    +0.000 NA
ATOM      6  C   UNL     1       8.489   8.986  18.484  0.00  0.00    +0.000 A 
ATOM      7  C   UNL     1       7.584   8.907  17.453  0.00  0.00    +0.000 A 
ATOM      8  N   UNL     1       7.221   7.603  17.390  0.00  0.00    +0.000 N 
ATOM      9  N   UNL     1       6.382   7.076  16.467  0.00  0.00    +0.000 NA
ENDROOT
BRANCH   6  10
ATOM     10  C   UNL     1       9.196  10.189  18.875  0.00  0.00    +0.000 A 
ATOM     11  C   UNL     1       9.778  11.002  17.900  0.00  0.00    +0.000 A 
ATOM     12  C   UNL     1      10.484  12.100  18.278  0.00  0.00    +0.000 A 
ATOM     13  C   UNL     1      10.641  12.471  19.605  0.00  0.00    +0.000 A 
ATOM     14  C   UNL     1      10.043  11.670  20.609  0.00  0.00    +0.000 A 
ATOM     15  C   UNL     1       9.316  10.533  20.220  0.00  0.00    +0.000 A 
BRANCH  13  16
ATOM     16  O   UNL     1      11.365  13.596  19.940  0.00  0.00    +0.000 OA
BRANCH  16  17
ATOM     17  C   UNL     1      11.386  14.587  18.885  0.00  0.00    +0.000 C 
BRANCH  17  18
ATOM     18  C   UNL     1      10.777  15.879  19.383  0.00  0.00    +0.000 C 
BRANCH  18  19
ATOM     19  O   UNL     1       9.356  15.804  19.292  0.00  0.00    +0.000 OA
ATOM     20  C   UNL     1       8.933  15.676  17.942  0.00  0.00    +0.000 C 
ENDBRANCH  18  19
ENDBRANCH  17  18
ENDBRANCH  16  17
ENDBRANCH  13  16
ENDBRANCH   6  10
BRANCH   1  21
ATOM     21  C   UNL     1       5.415   5.089  15.508  0.00  0.00    +0.000 C 
BRANCH  21  22
ATOM     22  C   UNL     1       6.214   3.903  14.969  0.00  0.00    +0.000 C 
BRANCH  22  24
ATOM     23  C   UNL     1       5.388   3.461  12.646  0.00  0.00    +0.000 C 
ATOM     24  C   UNL     1       6.518   4.039  13.483  0.00  0.00    +0.000 C 
ENDBRANCH  22  24
ENDBRANCH  21  22
ENDBRANCH   1  21
TORSDOF 8
ENDMDL
MODEL 2
REMARK VINA RESULT:      -6.5      7.677      8.898
REMARK  Name = 
REMARK  10 active torsions:
REMARK  status: ('A' for Active; 'I' for Inactive)
REMARK    1  A    between atoms: C_1  and  C_2
REMARK    2  A    between atoms: C_2  and  C_3
REMARK    3  A    between atoms: C_3  and  C_4
REMARK    4  A    between atoms: C_4  and  C_5
REMARK    5  A    between atoms: C_10  and  C_11
REMARK    6  A    between atoms: C_14  and  O_15
REMARK    7  A    between atoms: O_15  and  C_16
REMARK    8  A    between atoms: C_16  and  C_17
REMARK    9  A    between atoms: C_17  and  O_18
REMARK   10  A    between atoms: O_18  and  C_19
REMARK                            x       y       z     vdW  Elec       q    Type
REMARK                         _______ _______ _______ _____ _____    ______ ____
ROOT
ATOM      1  C   UNL     1       4.406   5.332  17.411  0.00  0.00    +0.000 A 
ATOM      2  C   UNL     1       4.186   4.272  18.445  0.00  0.00    +0.000 A 
ATOM      3  C   UNL     1       3.398   4.576  19.483  0.00  0.00    +0.000 A 
ATOM      4  C   UNL     1       2.811   5.859  19.550  0.00  0.00    +0.000 A 
ATOM      5  N   UNL     1       2.050   6.427  20.462  0.00  0.00    +0.000 NA
ATOM      6  C   UNL     1       1.798   7.689  19.974  0.00  0.00    +0.000 A 
ATOM      7  C   UNL     1       2.407   7.878  18.756  0.00  0.00    +0.000 A 
ATOM      8  N   UNL     1       3.055   6.717  18.492  0.00  0.00    +0.000 N 
ATOM      9  N   UNL     1       3.837   6.495  17.409  0.00  0.00    +0.000 NA
ENDROOT
BRANCH   6  10
ATOM     10  C   UNL     1       1.041   8.697  20.687  0.00  0.00    +0.000 A 
ATOM     11  C   UNL     1       0.440   9.742  19.982  0.00  0.00    +0.000 A 
ATOM     12  C   UNL     1      -0.225  10.713  20.663  0.00  0.00    +0.000 A 
ATOM     13  C   UNL     1      -0.355  10.706  22.045  0.00  0.00    +0.000 A 
ATOM     14  C   UNL     1       0.231   9.645  22.776  0.00  0.00    +0.000 A 
ATOM     15  C   UNL     1       0.921   8.642  22.074  0.00  0.00    +0.000 A 
BRANCH  13  16
ATOM     16  O   UNL     1      -1.042  11.712  22.690  0.00  0.00    +0.000 OA
BRANCH  16  17
ATOM     17  C   UNL     1      -2.042  12.341  21.854  0.00  0.00    +0.000 C 
BRANCH  17  18
ATOM     18  C   UNL     1      -3.222  12.768  22.699  0.00  0.00    +0.000 C 
BRANCH  18  19
ATOM     19  O   UNL     1      -3.442  11.811  23.732  0.00  0.00    +0.000 OA
ATOM     20  C   UNL     1      -4.291  12.334  24.744  0.00  0.00    +0.000 C 
ENDBRANCH  18  19
ENDBRANCH  17  18
ENDBRANCH  16  17
ENDBRANCH  13  16
ENDBRANCH   6  10
BRANCH   1  21
ATOM     21  C   UNL     1       5.394   5.029  16.300  0.00  0.00    +0.000 C 
BRANCH  21  22
ATOM     22  C   UNL     1       6.791   4.903  16.907  0.00  0.00    +0.000 C 
BRANCH  22  24
ATOM     23  C   UNL     1       7.775   6.105  18.873  0.00  0.00    +0.000 C 
ATOM     24  C   UNL     1       7.316   6.234  17.429  0.00  0.00    +0.000 C 
ENDBRANCH  22  24
ENDBRANCH  21  22
ENDBRANCH   1  21
TORSDOF 8
ENDMDL
MODEL 3
REMARK VINA RESULT:      -6.4      1.166      1.723
REMARK  Name = 
REMARK  10 active torsions:
REMARK  status: ('A' for Active; 'I' for Inactive)
REMARK    1  A    between atoms: C_1  and  C_2
REMARK    2  A    between atoms: C_2  and  C_3
REMARK    3  A    between atoms: C_3  and  C_4
REMARK    4  A    between atoms: C_4  and  C_5
REMARK    5  A    between atoms: C_10  and  C_11
REMARK    6  A    between atoms: C_14  and  O_15
REMARK    7  A    between atoms: O_15  and  C_16
REMARK    8  A    between atoms: C_16  and  C_17
REMARK    9  A    between atoms: C_17  and  O_18
REMARK   10  A    between atoms: O_18  and  C_19
REMARK                            x       y       z     vdW  Elec       q    Type
REMARK                         _______ _______ _______ _____ _____    ______ ____
ROOT
ATOM      1  C   UNL     1       6.183   5.810  16.835  0.00  0.00    +0.000 A 
ATOM      2  C   UNL     1       6.915   4.982  17.845  0.00  0.00    +0.000 A 
ATOM      3  C   UNL     1       7.797   5.607  18.633  0.00  0.00    +0.000 A 
ATOM      4  C   UNL     1       7.989   6.998  18.486  0.00  0.00    +0.000 A 
ATOM      5  N   UNL     1       8.809   7.838  19.083  0.00  0.00    +0.000 NA
ATOM      6  C   UNL     1       8.537   9.060  18.513  0.00  0.00    +0.000 A 
ATOM      7  C   UNL     1       7.541   8.956  17.571  0.00  0.00    +0.000 A 
ATOM      8  N   UNL     1       7.199   7.645  17.551  0.00  0.00    +0.000 N 
ATOM      9  N   UNL     1       6.288   7.095  16.714  0.00  0.00    +0.000 NA
ENDROOT
BRANCH   6  10
ATOM     10  C   UNL     1       9.254  10.279  18.828  0.00  0.00    +0.000 A 
ATOM     11  C   UNL     1       9.843  11.024  17.805  0.00  0.00    +0.000 A 
ATOM     12  C   UNL     1      10.559  12.138  18.114  0.00  0.00    +0.000 A 
ATOM     13  C   UNL     1      10.719  12.590  19.416  0.00  0.00    +0.000 A 
ATOM     14  C   UNL     1      10.113  11.859  20.467  0.00  0.00    +0.000 A 
ATOM     15  C   UNL     1       9.376  10.706  20.150  0.00  0.00    +0.000 A 
BRANCH  13  16
ATOM     16  O   UNL     1      11.452  13.727  19.679  0.00  0.00    +0.000 OA
BRANCH  16  17
ATOM     17  C   UNL     1      11.877  14.416  18.479  0.00  0.00    +0.000 C 
BRANCH  17  18
ATOM     18  C   UNL     1      11.794  15.912  18.689  0.00  0.00    +0.000 C 
BRANCH  18  19
ATOM     19  O   UNL     1      10.438  16.289  18.913  0.00  0.00    +0.000 OA
ATOM     20  C   UNL     1       9.663  16.146  17.731  0.00  0.00    +0.000 C 
ENDBRANCH  18  19
ENDBRANCH  17  18
ENDBRANCH  16  17
ENDBRANCH  13  16
ENDBRANCH   6  10
BRANCH   1  21
ATOM     21  C   UNL     1       5.274   5.082  15.862  0.00  0.00    +0.000 C 
BRANCH  21  22
ATOM     22  C   UNL     1       4.492   4.015  16.627  0.00  0.00    +0.000 C 
BRANCH  22  24
ATOM     23  C   UNL     1       2.133   3.904  17.465  0.00  0.00    +0.000 C 
ATOM     24  C   UNL     1       3.470   4.621  17.580  0.00  0.00    +0.000 C 
ENDBRANCH  22  24
ENDBRANCH  21  22
ENDBRANCH   1  21
TORSDOF 8
ENDMDL
MODEL 4
REMARK VINA RESULT:      -6.4      9.169     10.242
REMARK  Name = 
REMARK  10 active torsions:
REMARK  status: ('A' for Active; 'I' for Inactive)
REMARK    1  A    between atoms: C_1  and  C_2
REMARK    2  A    between atoms: C_2  and  C_3
REMARK    3  A    between atoms: C_3  and  C_4
REMARK    4  A    between atoms: C_4  and  C_5
REMARK    5  A    between atoms: C_10  and  C_11
REMARK    6  A    between atoms: C_14  and  O_15
REMARK    7  A    between atoms: O_15  and  C_16
REMARK    8  A    between atoms: C_16  and  C_17
REMARK    9  A    between atoms: C_17  and  O_18
REMARK   10  A    between atoms: O_18  and  C_19
REMARK                            x       y       z     vdW  Elec       q    Type
REMARK                         _______ _______ _______ _____ _____    ______ ____
ROOT
ATOM      1  C   UNL     1       2.887   5.607  18.994  0.00  0.00    +0.000 A 
ATOM      2  C   UNL     1       3.196   6.494  17.828  0.00  0.00    +0.000 A 
ATOM      3  C   UNL     1       2.754   7.755  17.878  0.00  0.00    +0.000 A 
ATOM      4  C   UNL     1       2.036   8.190  19.013  0.00  0.00    +0.000 A 
ATOM      5  N   UNL     1       1.457   9.339  19.298  0.00  0.00    +0.000 NA
ATOM      6  C   UNL     1       0.909   9.157  20.547  0.00  0.00    +0.000 A 
ATOM      7  C   UNL     1       1.166   7.892  21.020  0.00  0.00    +0.000 A 
ATOM      8  N   UNL     1       1.875   7.278  20.042  0.00  0.00    +0.000 N 
ATOM      9  N   UNL     1       2.285   5.987  20.076  0.00  0.00    +0.000 NA
ENDROOT
BRANCH   6  10
ATOM     10  C   UNL     1       0.117  10.154  21.237  0.00  0.00    +0.000 A 
ATOM     11  C   UNL     1      -0.230   9.962  22.576  0.00  0.00    +0.000 A 
ATOM     12  C   UNL     1      -1.018  10.877  23.201  0.00  0.00    +0.000 A 
ATOM     13  C   UNL     1      -1.486  12.021  22.570  0.00  0.00    +0.000 A 
ATOM     14  C   UNL     1      -1.130  12.243  21.218  0.00  0.00    +0.000 A 
ATOM     15  C   UNL     1      -0.318  11.298  20.569  0.00  0.00    +0.000 A 
BRANCH  13  16
ATOM     16  O   UNL     1      -2.280  12.921  23.247  0.00  0.00    +0.000 OA
BRANCH  16  17
ATOM     17  C   UNL     1      -3.688  12.586  23.191  0.00  0.00    +0.000 C 
BRANCH  17  18
ATOM     18  C   UNL     1      -4.253  12.508  24.592  0.00  0.00    +0.000 C 
BRANCH  18  19
ATOM     19  O   UNL     1      -5.544  11.905  24.555  0.00  0.00    +0.000 OA
ATOM     20  C   UNL     1      -6.492  12.757  23.929  0.00  0.00    +0.000 C 
ENDBRANCH  18  19
ENDBRANCH  17  18
ENDBRANCH  16  17
ENDBRANCH  13  16
ENDBRANCH   6  10
BRANCH   1  21
ATOM     21  C   UNL     1       3.281   4.146  18.884  0.00  0.00    +0.000 C 
BRANCH  21  22
ATOM     22  C   UNL     1       2.897   3.435  20.181  0.00  0.00    +0.000 C 
BRANCH  22  24
ATOM     23  C   UNL     1       1.103   2.585  18.652  0.00  0.00    +0.000 C 
ATOM     24  C   UNL     1       1.850   2.351  19.956  0.00  0.00    +0.000 C 
ENDBRANCH  22  24
ENDBRANCH  21  22
ENDBRANCH   1  21
TORSDOF 8
ENDMDL
MODEL 5
REMARK VINA RESULT:      -6.4      7.762      8.972
REMARK  Name = 
REMARK  10 active torsions:
REMARK  status: ('A' for Active; 'I' for Inactive)
REMARK    1  A    between atoms: C_1  and  C_2
REMARK    2  A    between atoms: C_2  and  C_3
REMARK    3  A    between atoms: C_3  and  C_4
REMARK    4  A    between atoms: C_4  and  C_5
REMARK    5  A    between atoms: C_10  and  C_11
REMARK    6  A    between atoms: C_14  and  O_15
REMARK    7  A    between atoms: O_15  and  C_16
REMARK    8  A    between atoms: C_16  and  C_17
REMARK    9  A    between atoms: C_17  and  O_18
REMARK   10  A    between atoms: O_18  and  C_19
REMARK                            x       y       z     vdW  Elec       q    Type
REMARK                         _______ _______ _______ _____ _____    ______ ____
ROOT
ATOM      1  C   UNL     1       4.127   4.744  17.784  0.00  0.00    +0.000 A 
ATOM      2  C   UNL     1       3.776   3.835  18.920  0.00  0.00    +0.000 A 
ATOM      3  C   UNL     1       3.015   4.336  19.899  0.00  0.00    +0.000 A 
ATOM      4  C   UNL     1       2.576   5.676  19.814  0.00  0.00    +0.000 A 
ATOM      5  N   UNL     1       1.873   6.422  20.641  0.00  0.00    +0.000 NA
ATOM      6  C   UNL     1       1.772   7.643  20.015  0.00  0.00    +0.000 A 
ATOM      7  C   UNL     1       2.414   7.628  18.799  0.00  0.00    +0.000 A 
ATOM      8  N   UNL     1       2.929   6.381  18.677  0.00  0.00    +0.000 N 
ATOM      9  N   UNL     1       3.694   5.956  17.643  0.00  0.00    +0.000 NA
ENDROOT
BRANCH   6  10
ATOM     10  C   UNL     1       1.126   8.801  20.596  0.00  0.00    +0.000 A 
ATOM     11  C   UNL     1       0.758   8.789  21.943  0.00  0.00    +0.000 A 
ATOM     12  C   UNL     1       0.105   9.860  22.468  0.00  0.00    +0.000 A 
ATOM     13  C   UNL     1      -0.202  10.991  21.725  0.00  0.00    +0.000 A 
ATOM     14  C   UNL     1       0.180  11.030  20.362  0.00  0.00    +0.000 A 
ATOM     15  C   UNL     1       0.852   9.924  19.816  0.00  0.00    +0.000 A 
BRANCH  13  16
ATOM     16  O   UNL     1      -0.863  12.053  22.303  0.00  0.00    +0.000 OA
BRANCH  16  17
ATOM     17  C   UNL     1      -1.907  11.639  23.216  0.00  0.00    +0.000 C 
BRANCH  17  18
ATOM     18  C   UNL     1      -2.940  12.737  23.346  0.00  0.00    +0.000 C 
BRANCH  18  19
ATOM     19  O   UNL     1      -4.232  12.161  23.523  0.00  0.00    +0.000 OA
ATOM     20  C   UNL     1      -4.696  12.338  24.854  0.00  0.00    +0.000 C 
ENDBRANCH  18  19
ENDBRANCH  17  18
ENDBRANCH  16  17
ENDBRANCH  13  16
ENDBRANCH   6  10
BRANCH   1  21
ATOM     21  C   UNL     1       5.089   4.213  16.736  0.00  0.00    +0.000 C 
BRANCH  21  22
ATOM     22  C   UNL     1       6.516   4.549  17.166  0.00  0.00    +0.000 C 
BRANCH  22  24
ATOM     23  C   UNL     1       7.385   6.857  17.608  0.00  0.00    +0.000 C 
ATOM     24  C   UNL     1       7.020   5.841  16.536  0.00  0.00    +0.000 C 
ENDBRANCH  22  24
ENDBRANCH  21  22
ENDBRANCH   1  21
TORSDOF 8
ENDMDL
MODEL 6
REMARK VINA RESULT:      -6.4      6.239      7.285
REMARK  Name = 
REMARK  10 active torsions:
REMARK  status: ('A' for Active; 'I' for Inactive)
REMARK    1  A    between atoms: C_1  and  C_2
REMARK    2  A    between atoms: C_2  and  C_3
REMARK    3  A    between atoms: C_3  and  C_4
REMARK    4  A    between atoms: C_4  and  C_5
REMARK    5  A    between atoms: C_10  and  C_11
REMARK    6  A    between atoms: C_14  and  O_15
REMARK    7  A    between atoms: O_15  and  C_16
REMARK    8  A    between atoms: C_16  and  C_17
REMARK    9  A    between atoms: C_17  and  O_18
REMARK   10  A    between atoms: O_18  and  C_19
REMARK                            x       y       z     vdW  Elec       q    Type
REMARK                         _______ _______ _______ _____ _____    ______ ____
ROOT
ATOM      1  C   UNL     1       5.550   4.873  15.826  0.00  0.00    +0.000 A 
ATOM      2  C   UNL     1       4.994   3.666  16.516  0.00  0.00    +0.000 A 
ATOM      3  C   UNL     1       4.054   3.865  17.446  0.00  0.00    +0.000 A 
ATOM      4  C   UNL     1       3.626   5.181  17.724  0.00  0.00    +0.000 A 
ATOM      5  N   UNL     1       2.769   5.657  18.604  0.00  0.00    +0.000 NA
ATOM      6  C   UNL     1       2.779   7.019  18.404  0.00  0.00    +0.000 A 
ATOM      7  C   UNL     1       3.643   7.363  17.392  0.00  0.00    +0.000 A 
ATOM      8  N   UNL     1       4.185   6.196  16.967  0.00  0.00    +0.000 N 
ATOM      9  N   UNL     1       5.139   6.087  16.012  0.00  0.00    +0.000 NA
ENDROOT
BRANCH   6  10
ATOM     10  C   UNL     1       2.020   7.960  19.201  0.00  0.00    +0.000 A 
ATOM     11  C   UNL     1       1.708   7.655  20.528  0.00  0.00    +0.000 A 
ATOM     12  C   UNL     1       0.952   8.521  21.254  0.00  0.00    +0.000 A 
ATOM     13  C   UNL     1       0.483   9.721  20.740  0.00  0.00    +0.000 A 
ATOM     14  C   UNL     1       0.805  10.058  19.402  0.00  0.00    +0.000 A 
ATOM     15  C   UNL     1       1.584   9.164  18.650  0.00  0.00    +0.000 A 
BRANCH  13  16
ATOM     16  O   UNL     1      -0.279  10.568  21.516  0.00  0.00    +0.000 OA
BRANCH  16  17
ATOM     17  C   UNL     1      -0.514  11.851  20.888  0.00  0.00    +0.000 C 
BRANCH  17  18
ATOM     18  C   UNL     1      -0.296  12.961  21.892  0.00  0.00    +0.000 C 
BRANCH  18  19
ATOM     19  O   UNL     1       1.055  13.410  21.823  0.00  0.00    +0.000 OA
ATOM     20  C   UNL     1       1.465  13.602  20.476  0.00  0.00    +0.000 C 
ENDBRANCH  18  19
ENDBRANCH  17  18
ENDBRANCH  16  17
ENDBRANCH  13  16
ENDBRANCH   6  10
BRANCH   1  21
ATOM     21  C   UNL     1       6.701   4.658  14.861  0.00  0.00    +0.000 C 
BRANCH  21  22
ATOM     22  C   UNL     1       6.186   3.881  13.650  0.00  0.00    +0.000 C 
BRANCH  22  24
ATOM     23  C   UNL     1       7.876   5.345  12.519  0.00  0.00    +0.000 C 
ATOM     24  C   UNL     1       7.086   4.047  12.432  0.00  0.00    +0.000 C 
ENDBRANCH  22  24
ENDBRANCH  21  22
ENDBRANCH   1  21
TORSDOF 8
ENDMDL
MODEL 7
REMARK VINA RESULT:      -6.4      6.964     10.121
REMARK  Name = 
REMARK  10 active torsions:
REMARK  status: ('A' for Active; 'I' for Inactive)
REMARK    1  A    between atoms: C_1  and  C_2
REMARK    2  A    between atoms: C_2  and  C_3
REMARK    3  A    between atoms: C_3  and  C_4
REMARK    4  A    between atoms: C_4  and  C_5
REMARK    5  A    between atoms: C_10  and  C_11
REMARK    6  A    between atoms: C_14  and  O_15
REMARK    7  A    between atoms: O_15  and  C_16
REMARK    8  A    between atoms: C_16  and  C_17
REMARK    9  A    between atoms: C_17  and  O_18
REMARK   10  A    between atoms: O_18  and  C_19
REMARK                            x       y       z     vdW  Elec       q    Type
REMARK                         _______ _______ _______ _____ _____    ______ ____
ROOT
ATOM      1  C   UNL     1       0.397   9.943  20.173  0.00  0.00    +0.000 A 
ATOM      2  C   UNL     1       0.475   9.017  21.347  0.00  0.00    +0.000 A 
ATOM      3  C   UNL     1       1.214   7.910  21.212  0.00  0.00    +0.000 A 
ATOM      4  C   UNL     1       1.885   7.673  19.993  0.00  0.00    +0.000 A 
ATOM      5  N   UNL     1       2.624   6.664  19.582  0.00  0.00    +0.000 NA
ATOM      6  C   UNL     1       2.995   6.999  18.300  0.00  0.00    +0.000 A 
ATOM      7  C   UNL     1       2.480   8.222  17.940  0.00  0.00    +0.000 A 
ATOM      8  N   UNL     1       1.770   8.645  19.014  0.00  0.00    +0.000 N 
ATOM      9  N   UNL     1       1.046   9.788  19.063  0.00  0.00    +0.000 NA
ENDROOT
BRANCH   6  10
ATOM     10  C   UNL     1       3.775   6.141  17.431  0.00  0.00    +0.000 A 
ATOM     11  C   UNL     1       3.604   4.757  17.486  0.00  0.00    +0.000 A 
ATOM     12  C   UNL     1       4.377   3.955  16.704  0.00  0.00    +0.000 A 
ATOM     13  C   UNL     1       5.328   4.455  15.826  0.00  0.00    +0.000 A 
ATOM     14  C   UNL     1       5.502   5.857  15.742  0.00  0.00    +0.000 A 
ATOM     15  C   UNL     1       4.708   6.687  16.550  0.00  0.00    +0.000 A 
BRANCH  13  16
ATOM     16  O   UNL     1       6.085   3.602  15.052  0.00  0.00    +0.000 OA
BRANCH  16  17
ATOM     17  C   UNL     1       6.507   4.198  13.803  0.00  0.00    +0.000 C 
BRANCH  17  18
ATOM     18  C   UNL     1       6.053   3.338  12.645  0.00  0.00    +0.000 C 
BRANCH  18  19
ATOM     19  O   UNL     1       4.895   3.914  12.045  0.00  0.00    +0.000 OA
ATOM     20  C   UNL     1       4.180   2.953  11.280  0.00  0.00    +0.000 C 
ENDBRANCH  18  19
ENDBRANCH  17  18
ENDBRANCH  16  17
ENDBRANCH  13  16
ENDBRANCH   6  10
BRANCH   1  21
ATOM     21  C   UNL     1      -0.537  11.133  20.283  0.00  0.00    +0.000 C 
BRANCH  21  22
ATOM     22  C   UNL     1       0.264  12.410  20.029  0.00  0.00    +0.000 C 
BRANCH  22  24
ATOM     23  C   UNL     1      -0.828  14.656  19.825  0.00  0.00    +0.000 C 
ATOM     24  C   UNL     1      -0.463  13.371  19.097  0.00  0.00    +0.000 C 
ENDBRANCH  22  24
ENDBRANCH  21  22
ENDBRANCH   1  21
TORSDOF 8
ENDMDL
MODEL 8
REMARK VINA RESULT:      -6.4      7.036     10.143
REMARK  Name = 
REMARK  10 active torsions:
REMARK  status: ('A' for Active; 'I' for Inactive)
REMARK    1  A    between atoms: C_1  and  C_2
REMARK    2  A    between atoms: C_2  and  C_3
REMARK    3  A    between atoms: C_3  and  C_4
REMARK    4  A    between atoms: C_4  and  C_5
REMARK    5  A    between atoms: C_10  and  C_11
REMARK    6  A    between atoms: C_14  and  O_15
REMARK    7  A    between atoms: O_15  and  C_16
REMARK    8  A    between atoms: C_16  and  C_17
REMARK    9  A    between atoms: C_17  and  O_18
REMARK   10  A    between atoms: O_18  and  C_19
REMARK                            x       y       z     vdW  Elec       q    Type
REMARK                         _______ _______ _______ _____ _____    ______ ____
ROOT
ATOM      1  C   UNL     1       0.124  10.270  20.342  0.00  0.00    +0.000 A 
ATOM      2  C   UNL     1       0.218   9.405  21.560  0.00  0.00    +0.000 A 
ATOM      3  C   UNL     1       0.962   8.297  21.474  0.00  0.00    +0.000 A 
ATOM      4  C   UNL     1       1.623   8.002  20.261  0.00  0.00    +0.000 A 
ATOM      5  N   UNL     1       2.364   6.977  19.893  0.00  0.00    +0.000 NA
ATOM      6  C   UNL     1       2.720   7.250  18.593  0.00  0.00    +0.000 A 
ATOM      7  C   UNL     1       2.195   8.451  18.177  0.00  0.00    +0.000 A 
ATOM      8  N   UNL     1       1.493   8.923  19.236  0.00  0.00    +0.000 N 
ATOM      9  N   UNL     1       0.763  10.064  19.234  0.00  0.00    +0.000 NA
ENDROOT
BRANCH   6  10
ATOM     10  C   UNL     1       3.496   6.353  17.760  0.00  0.00    +0.000 A 
ATOM     11  C   UNL     1       3.225   4.984  17.772  0.00  0.00    +0.000 A 
ATOM     12  C   UNL     1       3.991   4.143  17.028  0.00  0.00    +0.000 A 
ATOM     13  C   UNL     1       5.034   4.588  16.228  0.00  0.00    +0.000 A 
ATOM     14  C   UNL     1       5.314   5.975  16.188  0.00  0.00    +0.000 A 
ATOM     15  C   UNL     1       4.525   6.846  16.958  0.00  0.00    +0.000 A 
BRANCH  13  16
ATOM     16  O   UNL     1       5.782   3.696  15.489  0.00  0.00    +0.000 OA
BRANCH  16  17
ATOM     17  C   UNL     1       6.517   4.330  14.415  0.00  0.00    +0.000 C 
BRANCH  17  18
ATOM     18  C   UNL     1       6.223   3.628  13.108  0.00  0.00    +0.000 C 
BRANCH  18  19
ATOM     19  O   UNL     1       7.041   4.175  12.076  0.00  0.00    +0.000 OA
ATOM     20  C   UNL     1       7.867   5.218  12.574  0.00  0.00    +0.000 C 
ENDBRANCH  18  19
ENDBRANCH  17  18
ENDBRANCH  16  17
ENDBRANCH  13  16
ENDBRANCH   6  10
BRANCH   1  21
ATOM     21  C   UNL     1      -0.816  11.461  20.401  0.00  0.00    +0.000 C 
BRANCH  21  22
ATOM     22  C   UNL     1      -0.424  12.335  21.592  0.00  0.00    +0.000 C 
BRANCH  22  24
ATOM     23  C   UNL     1      -2.897  12.713  21.444  0.00  0.00    +0.000 C 
ATOM     24  C   UNL     1      -1.612  13.102  22.159  0.00  0.00    +0.000 C 
ENDBRANCH  22  24
ENDBRANCH  21  22
ENDBRANCH   1  21
TORSDOF 8
ENDMDL
MODEL 9
REMARK VINA RESULT:      -6.4      7.439      8.573
REMARK  Name = 
REMARK  10 active torsions:
REMARK  status: ('A' for Active; 'I' for Inactive)
REMARK    1  A    between atoms: C_1  and  C_2
REMARK    2  A    between atoms: C_2  and  C_3
REMARK    3  A    between atoms: C_3  and  C_4
REMARK    4  A    between atoms: C_4  and  C_5
REMARK    5  A    between atoms: C_10  and  C_11
REMARK    6  A    between atoms: C_14  and  O_15
REMARK    7  A    between atoms: O_15  and  C_16
REMARK    8  A    between atoms: C_16  and  C_17
REMARK    9  A    between atoms: C_17  and  O_18
REMARK   10  A    between atoms: O_18  and  C_19
REMARK                            x       y       z     vdW  Elec       q    Type
REMARK                         _______ _______ _______ _____ _____    ______ ____
ROOT
ATOM      1  C   UNL     1       4.294   4.500  17.556  0.00  0.00    +0.000 A 
ATOM      2  C   UNL     1       3.942   3.562  18.668  0.00  0.00    +0.000 A 
ATOM      3  C   UNL     1       3.186   4.040  19.662  0.00  0.00    +0.000 A 
ATOM      4  C   UNL     1       2.752   5.383  19.615  0.00  0.00    +0.000 A 
ATOM      5  N   UNL     1       2.054   6.110  20.463  0.00  0.00    +0.000 NA
ATOM      6  C   UNL     1       1.957   7.347  19.869  0.00  0.00    +0.000 A 
ATOM      7  C   UNL     1       2.595   7.363  18.652  0.00  0.00    +0.000 A 
ATOM      8  N   UNL     1       3.105   6.117  18.495  0.00  0.00    +0.000 N 
ATOM      9  N   UNL     1       3.865   5.717  17.448  0.00  0.00    +0.000 NA
ENDROOT
BRANCH   6  10
ATOM     10  C   UNL     1       1.317   8.492  20.483  0.00  0.00    +0.000 A 
ATOM     11  C   UNL     1       1.090   8.507  21.861  0.00  0.00    +0.000 A 
ATOM     12  C   UNL     1       0.441   9.562  22.422  0.00  0.00    +0.000 A 
ATOM     13  C   UNL     1       0.004  10.653  21.684  0.00  0.00    +0.000 A 
ATOM     14  C   UNL     1       0.242  10.666  20.288  0.00  0.00    +0.000 A 
ATOM     15  C   UNL     1       0.909   9.576  19.706  0.00  0.00    +0.000 A 
BRANCH  13  16
ATOM     16  O   UNL     1      -0.647  11.701  22.298  0.00  0.00    +0.000 OA
BRANCH  16  17
ATOM     17  C   UNL     1      -1.758  12.208  21.522  0.00  0.00    +0.000 C 
BRANCH  17  18
ATOM     18  C   UNL     1      -2.678  13.017  22.411  0.00  0.00    +0.000 C 
BRANCH  18  19
ATOM     19  O   UNL     1      -3.677  12.165  22.967  0.00  0.00    +0.000 OA
ATOM     20  C   UNL     1      -3.982  12.537  24.304  0.00  0.00    +0.000 C 
ENDBRANCH  18  19
ENDBRANCH  17  18
ENDBRANCH  16  17
ENDBRANCH  13  16
ENDBRANCH   6  10
BRANCH   1  21
ATOM     21  C   UNL     1       5.251   3.993  16.492  0.00  0.00    +0.000 C 
BRANCH  21  22
ATOM     22  C   UNL     1       5.426   5.081  15.432  0.00  0.00    +0.000 C 
BRANCH  22  24
ATOM     23  C   UNL     1       6.145   3.818  13.391  0.00  0.00    +0.000 C 
ATOM     24  C   UNL     1       6.580   4.782  14.484  0.00  0.00    +0.000 C 
ENDBRANCH  22  24
ENDBRANCH  21  22
ENDBRANCH   1  21
TORSDOF 8
ENDMDL
