MODEL 1
REMARK VINA RESULT:      -6.4      0.000      0.000
REMARK  Name = 
REMARK  3 active torsions:
REMARK  status: ('A' for Active; 'I' for Inactive)
REMARK    1  A    between atoms: C_8  and  O_9
REMARK    2  A    between atoms: O_9  and  C_10
REMARK    3  A    between atoms: C_10  and  C_11
REMARK                            x       y       z     vdW  Elec       q    Type
REMARK                         _______ _______ _______ _____ _____    ______ ____
ROOT
ATOM      1  O   UNL     1       8.273   4.145  17.361  0.00  0.00    +0.000 OA
ATOM      2  C   UNL     1       7.211   4.752  17.442  0.00  0.00    +0.000 A 
ATOM      3  C   UNL     1       6.910   5.866  16.526  0.00  0.00    +0.000 A 
ATOM      4  C   UNL     1       5.779   6.574  16.604  0.00  0.00    +0.000 A 
ATOM      5  C   UNL     1       4.798   6.245  17.624  0.00  0.00    +0.000 A 
ATOM      6  C   UNL     1       3.613   6.961  17.780  0.00  0.00    +0.000 A 
ATOM      7  C   UNL     1       2.701   6.591  18.778  0.00  0.00    +0.000 A 
ATOM      8  C   UNL     1       2.959   5.505  19.623  0.00  0.00    +0.000 A 
ATOM      9  C   UNL     1       4.146   4.791  19.470  0.00  0.00    +0.000 A 
ATOM     10  C   UNL     1       5.048   5.174  18.478  0.00  0.00    +0.000 A 
ATOM     11  O   UNL     1       6.241   4.429  18.380  0.00  0.00    +0.000 OA
ENDROOT
BRANCH   8  12
ATOM     12  O   UNL     1       1.986   5.248  20.549  0.00  0.00    +0.000 OA
BRANCH  12  13
ATOM     13  C   UNL     1       2.240   4.177  21.460  0.00  0.00    +0.000 C 
BRANCH  13  14
ATOM     14  C   UNL     1       1.312   3.019  21.145  0.00  0.00    +0.000 C 
ATOM     15  F   UNL     1       1.559   2.000  22.011  0.00  0.00    +0.000 F 
ENDBRANCH  13  14
ENDBRANCH  12  13
ENDBRANCH   8  12
TORSDOF 3
ENDMDL
MODEL 2
REMARK VINA RESULT:      -6.4      2.980      5.704
REMARK  Name = 
REMARK  3 active torsions:
REMARK  status: ('A' for Active; 'I' for Inactive)
REMARK    1  A    between atoms: C_8  and  O_9
REMARK    2  A    between atoms: O_9  and  C_10
REMARK    3  A    between atoms: C_10  and  C_11
REMARK                            x       y       z     vdW  Elec       q    Type
REMARK                         _______ _______ _______ _____ _____    ______ ____
ROOT
ATOM      1  O   UNL     1       1.480   2.485  22.230  0.00  0.00    +0.000 OA
ATOM      2  C   UNL     1       1.831   2.902  21.132  0.00  0.00    +0.000 A 
ATOM      3  C   UNL     1       0.842   3.143  20.068  0.00  0.00    +0.000 A 
ATOM      4  C   UNL     1       1.187   3.565  18.848  0.00  0.00    +0.000 A 
ATOM      5  C   UNL     1       2.588   3.803  18.544  0.00  0.00    +0.000 A 
ATOM      6  C   UNL     1       3.021   4.214  17.284  0.00  0.00    +0.000 A 
ATOM      7  C   UNL     1       4.385   4.435  17.054  0.00  0.00    +0.000 A 
ATOM      8  C   UNL     1       5.327   4.253  18.074  0.00  0.00    +0.000 A 
ATOM      9  C   UNL     1       4.896   3.838  19.332  0.00  0.00    +0.000 A 
ATOM     10  C   UNL     1       3.536   3.615  19.546  0.00  0.00    +0.000 A 
ATOM     11  O   UNL     1       3.157   3.177  20.832  0.00  0.00    +0.000 OA
ENDROOT
BRANCH   8  12
ATOM     12  O   UNL     1       6.624   4.508  17.717  0.00  0.00    +0.000 OA
BRANCH  12  13
ATOM     13  C   UNL     1       7.396   5.284  18.636  0.00  0.00    +0.000 C 
BRANCH  13  14
ATOM     14  C   UNL     1       7.569   6.687  18.086  0.00  0.00    +0.000 C 
ATOM     15  F   UNL     1       7.557   6.639  16.727  0.00  0.00    +0.000 F 
ENDBRANCH  13  14
ENDBRANCH  12  13
ENDBRANCH   8  12
TORSDOF 3
ENDMDL
MODEL 3
REMARK VINA RESULT:      -6.4      1.694      1.866
REMARK  Name = 
REMARK  3 active torsions:
REMARK  status: ('A' for Active; 'I' for Inactive)
REMARK    1  A    between atoms: C_8  and  O_9
REMARK    2  A    between atoms: O_9  and  C_10
REMARK    3  A    between atoms: C_10  and  C_11
REMARK                            x       y       z     vdW  Elec       q    Type
REMARK                         _______ _______ _______ _____ _____    ______ ____
ROOT
ATOM      1  O   UNL     1       7.449   4.725  15.497  0.00  0.00    +0.000 OA
ATOM      2  C   UNL     1       6.381   4.960  16.050  0.00  0.00    +0.000 A 
ATOM      3  C   UNL     1       5.859   6.335  16.123  0.00  0.00    +0.000 A 
ATOM      4  C   UNL     1       4.716   6.638  16.746  0.00  0.00    +0.000 A 
ATOM      5  C   UNL     1       3.947   5.581  17.381  0.00  0.00    +0.000 A 
ATOM      6  C   UNL     1       2.763   5.831  18.074  0.00  0.00    +0.000 A 
ATOM      7  C   UNL     1       2.061   4.769  18.659  0.00  0.00    +0.000 A 
ATOM      8  C   UNL     1       2.527   3.453  18.555  0.00  0.00    +0.000 A 
ATOM      9  C   UNL     1       3.712   3.203  17.867  0.00  0.00    +0.000 A 
ATOM     10  C   UNL     1       4.405   4.269  17.295  0.00  0.00    +0.000 A 
ATOM     11  O   UNL     1       5.608   3.963  16.627  0.00  0.00    +0.000 OA
ENDROOT
BRANCH   8  12
ATOM     12  O   UNL     1       1.744   2.511  19.167  0.00  0.00    +0.000 OA
BRANCH  12  13
ATOM     13  C   UNL     1       0.960   2.956  20.275  0.00  0.00    +0.000 C 
BRANCH  13  14
ATOM     14  C   UNL     1       1.698   2.654  21.565  0.00  0.00    +0.000 C 
ATOM     15  F   UNL     1       2.297   3.789  22.014  0.00  0.00    +0.000 F 
ENDBRANCH  13  14
ENDBRANCH  12  13
ENDBRANCH   8  12
TORSDOF 3
ENDMDL
MODEL 4
REMARK VINA RESULT:      -6.3      1.090      1.117
REMARK  Name = 
REMARK  3 active torsions:
REMARK  status: ('A' for Active; 'I' for Inactive)
REMARK    1  A    between atoms: C_8  and  O_9
REMARK    2  A    between atoms: O_9  and  C_10
REMARK    3  A    between atoms: C_10  and  C_11
REMARK                            x       y       z     vdW  Elec       q    Type
REMARK                         _______ _______ _______ _____ _____    ______ ____
ROOT
ATOM      1  O   UNL     1       8.016   4.389  16.513  0.00  0.00    +0.000 OA
ATOM      2  C   UNL     1       6.950   4.907  16.829  0.00  0.00    +0.000 A 
ATOM      3  C   UNL     1       6.769   6.366  16.743  0.00  0.00    +0.000 A 
ATOM      4  C   UNL     1       5.636   6.972  17.110  0.00  0.00    +0.000 A 
ATOM      5  C   UNL     1       4.530   6.175  17.613  0.00  0.00    +0.000 A 
ATOM      6  C   UNL     1       3.332   6.744  18.042  0.00  0.00    +0.000 A 
ATOM      7  C   UNL     1       2.298   5.923  18.510  0.00  0.00    +0.000 A 
ATOM      8  C   UNL     1       2.446   4.531  18.552  0.00  0.00    +0.000 A 
ATOM      9  C   UNL     1       3.644   3.961  18.128  0.00  0.00    +0.000 A 
ATOM     10  C   UNL     1       4.668   4.790  17.671  0.00  0.00    +0.000 A 
ATOM     11  O   UNL     1       5.867   4.163  17.272  0.00  0.00    +0.000 OA
ENDROOT
BRANCH   8  12
ATOM     12  O   UNL     1       1.359   3.847  19.026  0.00  0.00    +0.000 OA
BRANCH  12  13
ATOM     13  C   UNL     1       1.010   4.074  20.392  0.00  0.00    +0.000 C 
BRANCH  13  14
ATOM     14  C   UNL     1       1.837   3.162  21.280  0.00  0.00    +0.000 C 
ATOM     15  F   UNL     1       1.012   2.507  22.139  0.00  0.00    +0.000 F 
ENDBRANCH  13  14
ENDBRANCH  12  13
ENDBRANCH   8  12
TORSDOF 3
ENDMDL
MODEL 5
REMARK VINA RESULT:      -6.3      2.789      5.674
REMARK  Name = 
REMARK  3 active torsions:
REMARK  status: ('A' for Active; 'I' for Inactive)
REMARK    1  A    between atoms: C_8  and  O_9
REMARK    2  A    between atoms: O_9  and  C_10
REMARK    3  A    between atoms: C_10  and  C_11
REMARK                            x       y       z     vdW  Elec       q    Type
REMARK                         _______ _______ _______ _____ _____    ______ ____
ROOT
ATOM      1  O   UNL     1       1.763   2.178  22.205  0.00  0.00    +0.000 OA
ATOM      2  C   UNL     1       2.021   2.855  21.217  0.00  0.00    +0.000 A 
ATOM      3  C   UNL     1       0.967   3.629  20.539  0.00  0.00    +0.000 A 
ATOM      4  C   UNL     1       1.201   4.352  19.440  0.00  0.00    +0.000 A 
ATOM      5  C   UNL     1       2.542   4.388  18.880  0.00  0.00    +0.000 A 
ATOM      6  C   UNL     1       2.849   5.097  17.720  0.00  0.00    +0.000 A 
ATOM      7  C   UNL     1       4.163   5.101  17.233  0.00  0.00    +0.000 A 
ATOM      8  C   UNL     1       5.180   4.405  17.897  0.00  0.00    +0.000 A 
ATOM      9  C   UNL     1       4.873   3.693  19.054  0.00  0.00    +0.000 A 
ATOM     10  C   UNL     1       3.560   3.691  19.525  0.00  0.00    +0.000 A 
ATOM     11  O   UNL     1       3.301   2.939  20.689  0.00  0.00    +0.000 OA
ENDROOT
BRANCH   8  12
ATOM     12  O   UNL     1       6.417   4.496  17.318  0.00  0.00    +0.000 OA
BRANCH  12  13
ATOM     13  C   UNL     1       6.529   5.359  16.186  0.00  0.00    +0.000 C 
BRANCH  13  14
ATOM     14  C   UNL     1       6.947   4.547  14.975  0.00  0.00    +0.000 C 
ATOM     15  F   UNL     1       6.157   3.444  14.882  0.00  0.00    +0.000 F 
ENDBRANCH  13  14
ENDBRANCH  12  13
ENDBRANCH   8  12
TORSDOF 3
ENDMDL
MODEL 6
REMARK VINA RESULT:      -6.3      1.387      1.390
REMARK  Name = 
REMARK  3 active torsions:
REMARK  status: ('A' for Active; 'I' for Inactive)
REMARK    1  A    between atoms: C_8  and  O_9
REMARK    2  A    between atoms: O_9  and  C_10
REMARK    3  A    between atoms: C_10  and  C_11
REMARK                            x       y       z     vdW  Elec       q    Type
REMARK                         _______ _______ _______ _____ _____    ______ ____
ROOT
ATOM      1  O   UNL     1       8.603   5.315  20.028  0.00  0.00    +0.000 OA
ATOM      2  C   UNL     1       7.569   5.537  19.408  0.00  0.00    +0.000 A 
ATOM      3  C   UNL     1       7.575   6.417  18.227  0.00  0.00    +0.000 A 
ATOM      4  C   UNL     1       6.464   6.711  17.545  0.00  0.00    +0.000 A 
ATOM      5  C   UNL     1       5.194   6.147  17.970  0.00  0.00    +0.000 A 
ATOM      6  C   UNL     1       3.994   6.436  17.323  0.00  0.00    +0.000 A 
ATOM      7  C   UNL     1       2.801   5.855  17.774  0.00  0.00    +0.000 A 
ATOM      8  C   UNL     1       2.794   4.981  18.868  0.00  0.00    +0.000 A 
ATOM      9  C   UNL     1       3.993   4.695  19.518  0.00  0.00    +0.000 A 
ATOM     10  C   UNL     1       5.172   5.285  19.063  0.00  0.00    +0.000 A 
ATOM     11  O   UNL     1       6.353   4.977  19.769  0.00  0.00    +0.000 OA
ENDROOT
BRANCH   8  12
ATOM     12  O   UNL     1       1.565   4.481  19.202  0.00  0.00    +0.000 OA
BRANCH  12  13
ATOM     13  C   UNL     1       1.298   4.324  20.596  0.00  0.00    +0.000 C 
BRANCH  13  14
ATOM     14  C   UNL     1       1.169   2.847  20.920  0.00  0.00    +0.000 C 
ATOM     15  F   UNL     1       1.862   2.577  22.058  0.00  0.00    +0.000 F 
ENDBRANCH  13  14
ENDBRANCH  12  13
ENDBRANCH   8  12
TORSDOF 3
ENDMDL
MODEL 7
REMARK VINA RESULT:      -6.2      3.101      5.585
REMARK  Name = 
REMARK  3 active torsions:
REMARK  status: ('A' for Active; 'I' for Inactive)
REMARK    1  A    between atoms: C_8  and  O_9
REMARK    2  A    between atoms: O_9  and  C_10
REMARK    3  A    between atoms: C_10  and  C_11
REMARK                            x       y       z     vdW  Elec       q    Type
REMARK                         _______ _______ _______ _____ _____    ______ ____
ROOT
ATOM      1  O   UNL     1       1.077   3.041  20.919  0.00  0.00    +0.000 OA
ATOM      2  C   UNL     1       1.790   3.304  19.957  0.00  0.00    +0.000 A 
ATOM      3  C   UNL     1       1.242   3.293  18.590  0.00  0.00    +0.000 A 
ATOM      4  C   UNL     1       1.993   3.541  17.513  0.00  0.00    +0.000 A 
ATOM      5  C   UNL     1       3.406   3.837  17.680  0.00  0.00    +0.000 A 
ATOM      6  C   UNL     1       4.252   4.075  16.598  0.00  0.00    +0.000 A 
ATOM      7  C   UNL     1       5.605   4.362  16.822  0.00  0.00    +0.000 A 
ATOM      8  C   UNL     1       6.124   4.420  18.121  0.00  0.00    +0.000 A 
ATOM      9  C   UNL     1       5.280   4.178  19.203  0.00  0.00    +0.000 A 
ATOM     10  C   UNL     1       3.937   3.886  18.966  0.00  0.00    +0.000 A 
ATOM     11  O   UNL     1       3.131   3.631  20.094  0.00  0.00    +0.000 OA
ENDROOT
BRANCH   8  12
ATOM     12  O   UNL     1       7.458   4.716  18.200  0.00  0.00    +0.000 OA
BRANCH  12  13
ATOM     13  C   UNL     1       7.817   5.824  19.027  0.00  0.00    +0.000 C 
BRANCH  13  14
ATOM     14  C   UNL     1       7.731   7.103  18.216  0.00  0.00    +0.000 C 
ATOM     15  F   UNL     1       7.819   6.801  16.893  0.00  0.00    +0.000 F 
ENDBRANCH  13  14
ENDBRANCH  12  13
ENDBRANCH   8  12
TORSDOF 3
ENDMDL
MODEL 8
REMARK VINA RESULT:      -6.2      3.109      5.762
REMARK  Name = 
REMARK  3 active torsions:
REMARK  status: ('A' for Active; 'I' for Inactive)
REMARK    1  A    between atoms: C_8  and  O_9
REMARK    2  A    between atoms: O_9  and  C_10
REMARK    3  A    between atoms: C_10  and  C_11
REMARK                            x       y       z     vdW  Elec       q    Type
REMARK                         _______ _______ _______ _____ _____    ______ ____
ROOT
ATOM      1  O   UNL     1       1.823   2.572  21.962  0.00  0.00    +0.000 OA
ATOM      2  C   UNL     1       2.235   3.325  21.087  0.00  0.00    +0.000 A 
ATOM      3  C   UNL     1       1.854   4.748  21.077  0.00  0.00    +0.000 A 
ATOM      4  C   UNL     1       2.254   5.592  20.123  0.00  0.00    +0.000 A 
ATOM      5  C   UNL     1       3.100   5.105  19.046  0.00  0.00    +0.000 A 
ATOM      6  C   UNL     1       3.528   5.924  18.002  0.00  0.00    +0.000 A 
ATOM      7  C   UNL     1       4.350   5.399  16.996  0.00  0.00    +0.000 A 
ATOM      8  C   UNL     1       4.754   4.059  17.022  0.00  0.00    +0.000 A 
ATOM      9  C   UNL     1       4.323   3.238  18.063  0.00  0.00    +0.000 A 
ATOM     10  C   UNL     1       3.500   3.772  19.054  0.00  0.00    +0.000 A 
ATOM     11  O   UNL     1       3.077   2.893  20.073  0.00  0.00    +0.000 OA
ENDROOT
BRANCH   8  12
ATOM     12  O   UNL     1       5.559   3.676  15.984  0.00  0.00    +0.000 OA
BRANCH  12  13
ATOM     13  C   UNL     1       6.727   4.467  15.758  0.00  0.00    +0.000 C 
BRANCH  13  14
ATOM     14  C   UNL     1       6.859   4.755  14.274  0.00  0.00    +0.000 C 
ATOM     15  F   UNL     1       6.519   3.641  13.571  0.00  0.00    +0.000 F 
ENDBRANCH  13  14
ENDBRANCH  12  13
ENDBRANCH   8  12
TORSDOF 3
ENDMDL
MODEL 9
REMARK VINA RESULT:      -6.2      1.508      1.597
REMARK  Name = 
REMARK  3 active torsions:
REMARK  status: ('A' for Active; 'I' for Inactive)
REMARK    1  A    between atoms: C_8  and  O_9
REMARK    2  A    between atoms: O_9  and  C_10
REMARK    3  A    between atoms: C_10  and  C_11
REMARK                            x       y       z     vdW  Elec       q    Type
REMARK                         _______ _______ _______ _____ _____    ______ ____
ROOT
ATOM      1  O   UNL     1       8.159   4.497  17.027  0.00  0.00    +0.000 OA
ATOM      2  C   UNL     1       6.939   4.392  17.062  0.00  0.00    +0.000 A 
ATOM      3  C   UNL     1       6.174   4.104  15.837  0.00  0.00    +0.000 A 
ATOM      4  C   UNL     1       4.840   4.015  15.827  0.00  0.00    +0.000 A 
ATOM      5  C   UNL     1       4.102   4.207  17.064  0.00  0.00    +0.000 A 
ATOM      6  C   UNL     1       2.710   4.158  17.119  0.00  0.00    +0.000 A 
ATOM      7  C   UNL     1       2.054   4.343  18.344  0.00  0.00    +0.000 A 
ATOM      8  C   UNL     1       2.776   4.572  19.521  0.00  0.00    +0.000 A 
ATOM      9  C   UNL     1       4.168   4.625  19.466  0.00  0.00    +0.000 A 
ATOM     10  C   UNL     1       4.808   4.447  18.240  0.00  0.00    +0.000 A 
ATOM     11  O   UNL     1       6.216   4.529  18.238  0.00  0.00    +0.000 OA
ENDROOT
BRANCH   8  12
ATOM     12  O   UNL     1       2.015   4.730  20.647  0.00  0.00    +0.000 OA
BRANCH  12  13
ATOM     13  C   UNL     1       2.322   3.875  21.749  0.00  0.00    +0.000 C 
BRANCH  13  14
ATOM     14  C   UNL     1       1.562   2.570  21.600  0.00  0.00    +0.000 C 
ATOM     15  F   UNL     1       0.520   2.756  20.746  0.00  0.00    +0.000 F 
ENDBRANCH  13  14
ENDBRANCH  12  13
ENDBRANCH   8  12
TORSDOF 3
ENDMDL
