MODEL 1
REMARK VINA RESULT:      -7.5      0.000      0.000
REMARK  Name = 
REMARK  7 active torsions:
REMARK  status: ('A' for Active; 'I' for Inactive)
REMARK    1  A    between atoms: C_1  and  O_2
REMARK    2  A    between atoms: O_2  and  C_3
REMARK    3  A    between atoms: C_6  and  C_7
REMARK    4  A    between atoms: C_10  and  C_11
REMARK    5  A    between atoms: C_17  and  N_18
REMARK    6  A    between atoms: C_23  and  O_24
REMARK    7  A    between atoms: O_24  and  C_25
REMARK                            x       y       z     vdW  Elec       q    Type
REMARK                         _______ _______ _______ _____ _____    ______ ____
ROOT
ATOM      1  C   UNL     1       1.563   8.542  19.382  0.00  0.00    +0.000 A 
ATOM      2  N   UNL     1       1.852   7.719  20.404  0.00  0.00    +0.000 NA
ATOM      3  O   UNL     1       2.637   6.734  19.825  0.00  0.00    +0.000 OA
ATOM      4  C   UNL     1       2.756   7.053  18.504  0.00  0.00    +0.000 A 
ATOM      5  N   UNL     1       2.106   8.143  18.175  0.00  0.00    +0.000 NA
ENDROOT
BRANCH   4   6
ATOM      6  C   UNL     1       3.629   6.197  17.721  0.00  0.00    +0.000 A 
ATOM      7  C   UNL     1       4.780   6.754  17.132  0.00  0.00    +0.000 A 
ATOM      8  C   UNL     1       5.624   5.988  16.325  0.00  0.00    +0.000 A 
ATOM      9  C   UNL     1       5.334   4.643  16.093  0.00  0.00    +0.000 A 
ATOM     10 CL   UNL     1       6.381   3.709  15.101  0.00  0.00    +0.000 Cl
ATOM     11  C   UNL     1       4.206   4.060  16.658  0.00  0.00    +0.000 A 
ATOM     12  C   UNL     1       3.364   4.844  17.462  0.00  0.00    +0.000 A 
BRANCH  12  13
ATOM     13  N   UNL     1       2.218   4.181  18.062  0.00  0.00    +0.000 N 
ATOM     14  O   UNL     1       2.406   3.595  19.132  0.00  0.00    +0.000 OA
ATOM     15  O   UNL     1       1.165   4.195  17.413  0.00  0.00    +0.000 OA
ENDBRANCH  12  13
ENDBRANCH   4   6
BRANCH   1  19
ATOM     16  C   UNL     1      -0.922  11.989  19.848  0.00  0.00    +0.000 A 
ATOM     17  C   UNL     1      -0.631  11.482  18.571  0.00  0.00    +0.000 A 
ATOM     18  C   UNL     1       0.185  10.360  18.412  0.00  0.00    +0.000 A 
ATOM     19  C   UNL     1       0.760   9.748  19.526  0.00  0.00    +0.000 A 
ATOM     20  C   UNL     1       0.547  10.318  20.788  0.00  0.00    +0.000 A 
ATOM     21  C   UNL     1      -0.280  11.438  20.965  0.00  0.00    +0.000 A 
BRANCH  16  23
ATOM     22  C   UNL     1      -3.138  12.652  20.335  0.00  0.00    +0.000 C 
ATOM     23  O   UNL     1      -1.800  13.027  20.004  0.00  0.00    +0.000 OA
ENDBRANCH  16  23
BRANCH  21  24
ATOM     24  O   UNL     1      -0.348  11.818  22.279  0.00  0.00    +0.000 OA
ATOM     25  C   UNL     1      -1.198  11.107  23.163  0.00  0.00    +0.000 C 
ENDBRANCH  21  24
ENDBRANCH   1  19
TORSDOF 5
ENDMDL
MODEL 2
REMARK VINA RESULT:      -7.4      3.575      8.255
REMARK  Name = 
REMARK  7 active torsions:
REMARK  status: ('A' for Active; 'I' for Inactive)
REMARK    1  A    between atoms: C_1  and  O_2
REMARK    2  A    between atoms: O_2  and  C_3
REMARK    3  A    between atoms: C_6  and  C_7
REMARK    4  A    between atoms: C_10  and  C_11
REMARK    5  A    between atoms: C_17  and  N_18
REMARK    6  A    between atoms: C_23  and  O_24
REMARK    7  A    between atoms: O_24  and  C_25
REMARK                            x       y       z     vdW  Elec       q    Type
REMARK                         _______ _______ _______ _____ _____    ______ ____
ROOT
ATOM      1  C   UNL     1       2.958   6.084  19.122  0.00  0.00    +0.000 A 
ATOM      2  N   UNL     1       2.243   5.383  20.016  0.00  0.00    +0.000 NA
ATOM      3  O   UNL     1       1.527   6.351  20.702  0.00  0.00    +0.000 OA
ATOM      4  C   UNL     1       1.871   7.553  20.157  0.00  0.00    +0.000 A 
ATOM      5  N   UNL     1       2.755   7.450  19.194  0.00  0.00    +0.000 NA
ENDROOT
BRANCH   4   6
ATOM      6  C   UNL     1       1.155   8.710  20.666  0.00  0.00    +0.000 A 
ATOM      7  C   UNL     1       0.816   8.754  22.031  0.00  0.00    +0.000 A 
ATOM      8  C   UNL     1       0.082   9.818  22.561  0.00  0.00    +0.000 A 
ATOM      9  C   UNL     1      -0.325  10.864  21.733  0.00  0.00    +0.000 A 
ATOM     10 CL   UNL     1      -1.225  12.169  22.396  0.00  0.00    +0.000 Cl
ATOM     11  C   UNL     1      -0.008  10.852  20.380  0.00  0.00    +0.000 A 
ATOM     12  C   UNL     1       0.725   9.774  19.861  0.00  0.00    +0.000 A 
BRANCH  12  13
ATOM     13  N   UNL     1       1.065   9.826  18.448  0.00  0.00    +0.000 N 
ATOM     14  O   UNL     1       2.086  10.448  18.140  0.00  0.00    +0.000 OA
ATOM     15  O   UNL     1       0.263   9.305  17.664  0.00  0.00    +0.000 OA
ENDBRANCH  12  13
ENDBRANCH   4   6
BRANCH   1  19
ATOM     16  C   UNL     1       5.532   4.370  16.170  0.00  0.00    +0.000 A 
ATOM     17  C   UNL     1       4.435   3.651  16.670  0.00  0.00    +0.000 A 
ATOM     18  C   UNL     1       3.594   4.203  17.639  0.00  0.00    +0.000 A 
ATOM     19  C   UNL     1       3.859   5.471  18.157  0.00  0.00    +0.000 A 
ATOM     20  C   UNL     1       5.012   6.142  17.727  0.00  0.00    +0.000 A 
ATOM     21  C   UNL     1       5.859   5.605  16.746  0.00  0.00    +0.000 A 
BRANCH  16  23
ATOM     22  C   UNL     1       5.804   4.123  13.835  0.00  0.00    +0.000 C 
ATOM     23  O   UNL     1       6.295   3.865  15.152  0.00  0.00    +0.000 OA
ENDBRANCH  16  23
BRANCH  21  24
ATOM     24  O   UNL     1       6.916   6.434  16.478  0.00  0.00    +0.000 OA
ATOM     25  C   UNL     1       7.425   7.263  17.509  0.00  0.00    +0.000 C 
ENDBRANCH  21  24
ENDBRANCH   1  19
TORSDOF 5
ENDMDL
MODEL 3
REMARK VINA RESULT:      -7.4      0.886      1.904
REMARK  Name = 
REMARK  7 active torsions:
REMARK  status: ('A' for Active; 'I' for Inactive)
REMARK    1  A    between atoms: C_1  and  O_2
REMARK    2  A    between atoms: O_2  and  C_3
REMARK    3  A    between atoms: C_6  and  C_7
REMARK    4  A    between atoms: C_10  and  C_11
REMARK    5  A    between atoms: C_17  and  N_18
REMARK    6  A    between atoms: C_23  and  O_24
REMARK    7  A    between atoms: O_24  and  C_25
REMARK                            x       y       z     vdW  Elec       q    Type
REMARK                         _______ _______ _______ _____ _____    ______ ____
ROOT
ATOM      1  C   UNL     1       1.498   8.574  19.372  0.00  0.00    +0.000 A 
ATOM      2  N   UNL     1       1.824   7.781  20.406  0.00  0.00    +0.000 NA
ATOM      3  O   UNL     1       2.627   6.805  19.836  0.00  0.00    +0.000 OA
ATOM      4  C   UNL     1       2.717   7.100  18.507  0.00  0.00    +0.000 A 
ATOM      5  N   UNL     1       2.034   8.165  18.165  0.00  0.00    +0.000 NA
ENDROOT
BRANCH   4   6
ATOM      6  C   UNL     1       3.601   6.251  17.728  0.00  0.00    +0.000 A 
ATOM      7  C   UNL     1       4.746   6.820  17.138  0.00  0.00    +0.000 A 
ATOM      8  C   UNL     1       5.601   6.060  16.335  0.00  0.00    +0.000 A 
ATOM      9  C   UNL     1       5.327   4.711  16.108  0.00  0.00    +0.000 A 
ATOM     10 CL   UNL     1       6.386   3.786  15.121  0.00  0.00    +0.000 Cl
ATOM     11  C   UNL     1       4.205   4.117  16.674  0.00  0.00    +0.000 A 
ATOM     12  C   UNL     1       3.353   4.894  17.474  0.00  0.00    +0.000 A 
BRANCH  12  13
ATOM     13  N   UNL     1       2.214   4.220  18.075  0.00  0.00    +0.000 N 
ATOM     14  O   UNL     1       2.408   3.640  19.148  0.00  0.00    +0.000 OA
ATOM     15  O   UNL     1       1.162   4.219  17.425  0.00  0.00    +0.000 OA
ENDBRANCH  12  13
ENDBRANCH   4   6
BRANCH   1  19
ATOM     16  C   UNL     1      -0.837  12.143  19.668  0.00  0.00    +0.000 A 
ATOM     17  C   UNL     1      -0.033  11.721  20.739  0.00  0.00    +0.000 A 
ATOM     18  C   UNL     1       0.728  10.553  20.651  0.00  0.00    +0.000 A 
ATOM     19  C   UNL     1       0.665   9.761  19.504  0.00  0.00    +0.000 A 
ATOM     20  C   UNL     1      -0.215  10.135  18.480  0.00  0.00    +0.000 A 
ATOM     21  C   UNL     1      -0.976  11.311  18.549  0.00  0.00    +0.000 A 
BRANCH  16  23
ATOM     22  C   UNL     1      -2.663  13.353  20.556  0.00  0.00    +0.000 C 
ATOM     23  O   UNL     1      -1.504  13.337  19.722  0.00  0.00    +0.000 OA
ENDBRANCH  16  23
BRANCH  21  24
ATOM     24  O   UNL     1      -1.759  11.477  17.437  0.00  0.00    +0.000 OA
ATOM     25  C   UNL     1      -2.472  10.367  16.919  0.00  0.00    +0.000 C 
ENDBRANCH  21  24
ENDBRANCH   1  19
TORSDOF 5
ENDMDL
MODEL 4
REMARK VINA RESULT:      -7.3      1.058      1.974
REMARK  Name = 
REMARK  7 active torsions:
REMARK  status: ('A' for Active; 'I' for Inactive)
REMARK    1  A    between atoms: C_1  and  O_2
REMARK    2  A    between atoms: O_2  and  C_3
REMARK    3  A    between atoms: C_6  and  C_7
REMARK    4  A    between atoms: C_10  and  C_11
REMARK    5  A    between atoms: C_17  and  N_18
REMARK    6  A    between atoms: C_23  and  O_24
REMARK    7  A    between atoms: O_24  and  C_25
REMARK                            x       y       z     vdW  Elec       q    Type
REMARK                         _______ _______ _______ _____ _____    ______ ____
ROOT
ATOM      1  C   UNL     1       1.615   7.666  20.300  0.00  0.00    +0.000 A 
ATOM      2  N   UNL     1       1.722   6.482  20.926  0.00  0.00    +0.000 NA
ATOM      3  O   UNL     1       2.485   5.716  20.058  0.00  0.00    +0.000 OA
ATOM      4  C   UNL     1       2.775   6.509  18.986  0.00  0.00    +0.000 A 
ATOM      5  N   UNL     1       2.254   7.709  19.075  0.00  0.00    +0.000 NA
ENDROOT
BRANCH   4   6
ATOM      6  C   UNL     1       3.658   5.931  17.989  0.00  0.00    +0.000 A 
ATOM      7  C   UNL     1       4.750   6.689  17.525  0.00  0.00    +0.000 A 
ATOM      8  C   UNL     1       5.599   6.200  16.529  0.00  0.00    +0.000 A 
ATOM      9  C   UNL     1       5.373   4.939  15.977  0.00  0.00    +0.000 A 
ATOM     10 CL   UNL     1       6.425   4.349  14.754  0.00  0.00    +0.000 Cl
ATOM     11  C   UNL     1       4.304   4.165  16.411  0.00  0.00    +0.000 A 
ATOM     12  C   UNL     1       3.456   4.670  17.408  0.00  0.00    +0.000 A 
BRANCH  12  13
ATOM     13  N   UNL     1       2.375   3.808  17.856  0.00  0.00    +0.000 N 
ATOM     14  O   UNL     1       2.675   2.878  18.612  0.00  0.00    +0.000 OA
ATOM     15  O   UNL     1       1.254   4.031  17.384  0.00  0.00    +0.000 OA
ENDBRANCH  12  13
ENDBRANCH   4   6
BRANCH   1  19
ATOM     16  C   UNL     1      -0.342  11.089  21.953  0.00  0.00    +0.000 A 
ATOM     17  C   UNL     1      -0.113   9.946  22.736  0.00  0.00    +0.000 A 
ATOM     18  C   UNL     1       0.520   8.822  22.200  0.00  0.00    +0.000 A 
ATOM     19  C   UNL     1       0.899   8.805  20.857  0.00  0.00    +0.000 A 
ATOM     20  C   UNL     1       0.578   9.909  20.057  0.00  0.00    +0.000 A 
ATOM     21  C   UNL     1      -0.047  11.050  20.584  0.00  0.00    +0.000 A 
BRANCH  16  23
ATOM     22  C   UNL     1      -2.251  12.135  22.872  0.00  0.00    +0.000 C 
ATOM     23  O   UNL     1      -0.873  12.222  22.508  0.00  0.00    +0.000 OA
ENDBRANCH  16  23
BRANCH  21  24
ATOM     24  O   UNL     1      -0.257  12.004  19.624  0.00  0.00    +0.000 OA
ATOM     25  C   UNL     1      -1.301  11.821  18.682  0.00  0.00    +0.000 C 
ENDBRANCH  21  24
ENDBRANCH   1  19
TORSDOF 5
ENDMDL
MODEL 5
REMARK VINA RESULT:      -7.3      1.190      2.079
REMARK  Name = 
REMARK  7 active torsions:
REMARK  status: ('A' for Active; 'I' for Inactive)
REMARK    1  A    between atoms: C_1  and  O_2
REMARK    2  A    between atoms: O_2  and  C_3
REMARK    3  A    between atoms: C_6  and  C_7
REMARK    4  A    between atoms: C_10  and  C_11
REMARK    5  A    between atoms: C_17  and  N_18
REMARK    6  A    between atoms: C_23  and  O_24
REMARK    7  A    between atoms: O_24  and  C_25
REMARK                            x       y       z     vdW  Elec       q    Type
REMARK                         _______ _______ _______ _____ _____    ______ ____
ROOT
ATOM      1  C   UNL     1       1.505   8.910  19.149  0.00  0.00    +0.000 A 
ATOM      2  N   UNL     1       1.444   9.361  17.886  0.00  0.00    +0.000 NA
ATOM      3  O   UNL     1       2.290   8.513  17.189  0.00  0.00    +0.000 OA
ATOM      4  C   UNL     1       2.784   7.621  18.094  0.00  0.00    +0.000 A 
ATOM      5  N   UNL     1       2.348   7.826  19.314  0.00  0.00    +0.000 NA
ENDROOT
BRANCH   4   6
ATOM      6  C   UNL     1       3.626   6.568  17.554  0.00  0.00    +0.000 A 
ATOM      7  C   UNL     1       4.852   6.916  16.956  0.00  0.00    +0.000 A 
ATOM      8  C   UNL     1       5.674   5.948  16.374  0.00  0.00    +0.000 A 
ATOM      9  C   UNL     1       5.286   4.608  16.382  0.00  0.00    +0.000 A 
ATOM     10 CL   UNL     1       6.306   3.426  15.666  0.00  0.00    +0.000 Cl
ATOM     11  C   UNL     1       4.082   4.229  16.963  0.00  0.00    +0.000 A 
ATOM     12  C   UNL     1       3.263   5.213  17.539  0.00  0.00    +0.000 A 
BRANCH  12  13
ATOM     13  N   UNL     1       2.032   4.764  18.168  0.00  0.00    +0.000 N 
ATOM     14  O   UNL     1       2.053   4.608  19.393  0.00  0.00    +0.000 OA
ATOM     15  O   UNL     1       1.086   4.504  17.415  0.00  0.00    +0.000 OA
ENDBRANCH  12  13
ENDBRANCH   4   6
BRANCH   1  19
ATOM     16  C   UNL     1      -0.567  10.682  22.442  0.00  0.00    +0.000 A 
ATOM     17  C   UNL     1      -0.364   9.294  22.386  0.00  0.00    +0.000 A 
ATOM     18  C   UNL     1       0.307   8.708  21.310  0.00  0.00    +0.000 A 
ATOM     19  C   UNL     1       0.751   9.497  20.248  0.00  0.00    +0.000 A 
ATOM     20  C   UNL     1       0.457  10.866  20.262  0.00  0.00    +0.000 A 
ATOM     21  C   UNL     1      -0.205  11.471  21.342  0.00  0.00    +0.000 A 
BRANCH  16  23
ATOM     22  C   UNL     1      -2.443  11.803  23.341  0.00  0.00    +0.000 C 
ATOM     23  O   UNL     1      -1.137  11.262  23.543  0.00  0.00    +0.000 OA
ENDBRANCH  16  23
BRANCH  21  24
ATOM     24  O   UNL     1      -0.379  12.815  21.144  0.00  0.00    +0.000 OA
ATOM     25  C   UNL     1      -1.073  13.261  19.991  0.00  0.00    +0.000 C 
ENDBRANCH  21  24
ENDBRANCH   1  19
TORSDOF 5
ENDMDL
MODEL 6
REMARK VINA RESULT:      -7.3      3.534      8.346
REMARK  Name = 
REMARK  7 active torsions:
REMARK  status: ('A' for Active; 'I' for Inactive)
REMARK    1  A    between atoms: C_1  and  O_2
REMARK    2  A    between atoms: O_2  and  C_3
REMARK    3  A    between atoms: C_6  and  C_7
REMARK    4  A    between atoms: C_10  and  C_11
REMARK    5  A    between atoms: C_17  and  N_18
REMARK    6  A    between atoms: C_23  and  O_24
REMARK    7  A    between atoms: O_24  and  C_25
REMARK                            x       y       z     vdW  Elec       q    Type
REMARK                         _______ _______ _______ _____ _____    ______ ____
ROOT
ATOM      1  C   UNL     1       2.458   6.475  19.430  0.00  0.00    +0.000 A 
ATOM      2  N   UNL     1       1.875   5.799  20.434  0.00  0.00    +0.000 NA
ATOM      3  O   UNL     1       1.196   6.776  21.144  0.00  0.00    +0.000 OA
ATOM      4  C   UNL     1       1.425   7.958  20.502  0.00  0.00    +0.000 A 
ATOM      5  N   UNL     1       2.204   7.834  19.453  0.00  0.00    +0.000 NA
ENDROOT
BRANCH   4   6
ATOM      6  C   UNL     1       0.719   9.113  21.026  0.00  0.00    +0.000 A 
ATOM      7  C   UNL     1       0.360   9.131  22.387  0.00  0.00    +0.000 A 
ATOM      8  C   UNL     1      -0.367  10.194  22.930  0.00  0.00    +0.000 A 
ATOM      9  C   UNL     1      -0.746  11.265  22.120  0.00  0.00    +0.000 A 
ATOM     10 CL   UNL     1      -1.637  12.567  22.798  0.00  0.00    +0.000 Cl
ATOM     11  C   UNL     1      -0.409  11.279  20.772  0.00  0.00    +0.000 A 
ATOM     12  C   UNL     1       0.316  10.202  20.239  0.00  0.00    +0.000 A 
BRANCH  12  13
ATOM     13  N   UNL     1       0.679  10.280  18.834  0.00  0.00    +0.000 N 
ATOM     14  O   UNL     1       1.715  10.892  18.555  0.00  0.00    +0.000 OA
ATOM     15  O   UNL     1      -0.119   9.790  18.025  0.00  0.00    +0.000 OA
ENDBRANCH  12  13
ENDBRANCH   4   6
BRANCH   1  19
ATOM     16  C   UNL     1       4.972   4.587  16.534  0.00  0.00    +0.000 A 
ATOM     17  C   UNL     1       4.889   5.987  16.609  0.00  0.00    +0.000 A 
ATOM     18  C   UNL     1       4.065   6.610  17.548  0.00  0.00    +0.000 A 
ATOM     19  C   UNL     1       3.275   5.843  18.405  0.00  0.00    +0.000 A 
ATOM     20  C   UNL     1       3.286   4.449  18.258  0.00  0.00    +0.000 A 
ATOM     21  C   UNL     1       4.118   3.809  17.326  0.00  0.00    +0.000 A 
BRANCH  16  23
ATOM     22  C   UNL     1       5.667   4.286  14.295  0.00  0.00    +0.000 C 
ATOM     23  O   UNL     1       5.853   3.983  15.678  0.00  0.00    +0.000 OA
ENDBRANCH  16  23
BRANCH  21  24
ATOM     24  O   UNL     1       3.968   2.448  17.362  0.00  0.00    +0.000 OA
ATOM     25  C   UNL     1       3.487   1.835  18.546  0.00  0.00    +0.000 C 
ENDBRANCH  21  24
ENDBRANCH   1  19
TORSDOF 5
ENDMDL
MODEL 7
REMARK VINA RESULT:      -7.3      0.712      1.091
REMARK  Name = 
REMARK  7 active torsions:
REMARK  status: ('A' for Active; 'I' for Inactive)
REMARK    1  A    between atoms: C_1  and  O_2
REMARK    2  A    between atoms: O_2  and  C_3
REMARK    3  A    between atoms: C_6  and  C_7
REMARK    4  A    between atoms: C_10  and  C_11
REMARK    5  A    between atoms: C_17  and  N_18
REMARK    6  A    between atoms: C_23  and  O_24
REMARK    7  A    between atoms: O_24  and  C_25
REMARK                            x       y       z     vdW  Elec       q    Type
REMARK                         _______ _______ _______ _____ _____    ______ ____
ROOT
ATOM      1  C   UNL     1       1.507   8.627  19.286  0.00  0.00    +0.000 A 
ATOM      2  N   UNL     1       1.837   7.861  20.338  0.00  0.00    +0.000 NA
ATOM      3  O   UNL     1       2.638   6.871  19.791  0.00  0.00    +0.000 OA
ATOM      4  C   UNL     1       2.725   7.132  18.455  0.00  0.00    +0.000 A 
ATOM      5  N   UNL     1       2.039   8.188  18.088  0.00  0.00    +0.000 NA
ENDROOT
BRANCH   4   6
ATOM      6  C   UNL     1       3.607   6.264  17.694  0.00  0.00    +0.000 A 
ATOM      7  C   UNL     1       4.766   6.812  17.113  0.00  0.00    +0.000 A 
ATOM      8  C   UNL     1       5.620   6.033  16.328  0.00  0.00    +0.000 A 
ATOM      9  C   UNL     1       5.331   4.686  16.111  0.00  0.00    +0.000 A 
ATOM     10 CL   UNL     1       6.389   3.738  15.145  0.00  0.00    +0.000 Cl
ATOM     11  C   UNL     1       4.194   4.113  16.668  0.00  0.00    +0.000 A 
ATOM     12  C   UNL     1       3.343   4.908  17.450  0.00  0.00    +0.000 A 
BRANCH  12  13
ATOM     13  N   UNL     1       2.188   4.255  18.043  0.00  0.00    +0.000 N 
ATOM     14  O   UNL     1       1.134   4.287  17.400  0.00  0.00    +0.000 OA
ATOM     15  O   UNL     1       2.337   3.784  19.177  0.00  0.00    +0.000 OA
ENDBRANCH  12  13
ENDBRANCH   4   6
BRANCH   1  19
ATOM     16  C   UNL     1      -1.028  12.043  19.708  0.00  0.00    +0.000 A 
ATOM     17  C   UNL     1      -1.188  11.161  18.628  0.00  0.00    +0.000 A 
ATOM     18  C   UNL     1      -0.359  10.046  18.481  0.00  0.00    +0.000 A 
ATOM     19  C   UNL     1       0.674   9.817  19.390  0.00  0.00    +0.000 A 
ATOM     20  C   UNL     1       0.891  10.755  20.408  0.00  0.00    +0.000 A 
ATOM     21  C   UNL     1       0.059  11.873  20.575  0.00  0.00    +0.000 A 
BRANCH  16  23
ATOM     22  C   UNL     1      -3.267  12.696  20.093  0.00  0.00    +0.000 C 
ATOM     23  O   UNL     1      -1.904  13.078  19.901  0.00  0.00    +0.000 OA
ENDBRANCH  16  23
BRANCH  21  24
ATOM     24  O   UNL     1       0.454  12.647  21.634  0.00  0.00    +0.000 OA
ATOM     25  C   UNL     1       1.159  13.851  21.387  0.00  0.00    +0.000 C 
ENDBRANCH  21  24
ENDBRANCH   1  19
TORSDOF 5
ENDMDL
MODEL 8
REMARK VINA RESULT:      -7.2      3.623      8.305
REMARK  Name = 
REMARK  7 active torsions:
REMARK  status: ('A' for Active; 'I' for Inactive)
REMARK    1  A    between atoms: C_1  and  O_2
REMARK    2  A    between atoms: O_2  and  C_3
REMARK    3  A    between atoms: C_6  and  C_7
REMARK    4  A    between atoms: C_10  and  C_11
REMARK    5  A    between atoms: C_17  and  N_18
REMARK    6  A    between atoms: C_23  and  O_24
REMARK    7  A    between atoms: O_24  and  C_25
REMARK                            x       y       z     vdW  Elec       q    Type
REMARK                         _______ _______ _______ _____ _____    ______ ____
ROOT
ATOM      1  C   UNL     1       2.717   6.134  19.572  0.00  0.00    +0.000 A 
ATOM      2  N   UNL     1       1.914   5.498  20.441  0.00  0.00    +0.000 NA
ATOM      3  O   UNL     1       1.198   6.521  21.041  0.00  0.00    +0.000 OA
ATOM      4  C   UNL     1       1.628   7.685  20.477  0.00  0.00    +0.000 A 
ATOM      5  N   UNL     1       2.569   7.509  19.580  0.00  0.00    +0.000 NA
ENDROOT
BRANCH   4   6
ATOM      6  C   UNL     1       0.932   8.889  20.895  0.00  0.00    +0.000 A 
ATOM      7  C   UNL     1       0.542   9.018  22.241  0.00  0.00    +0.000 A 
ATOM      8  C   UNL     1      -0.177  10.132  22.684  0.00  0.00    +0.000 A 
ATOM      9  C   UNL     1      -0.517  11.143  21.785  0.00  0.00    +0.000 A 
ATOM     10 CL   UNL     1      -1.399  12.508  22.340  0.00  0.00    +0.000 Cl
ATOM     11  C   UNL     1      -0.150  11.047  20.448  0.00  0.00    +0.000 A 
ATOM     12  C   UNL     1       0.567   9.921  20.017  0.00  0.00    +0.000 A 
BRANCH  12  13
ATOM     13  N   UNL     1       0.963   9.885  18.619  0.00  0.00    +0.000 N 
ATOM     14  O   UNL     1       0.226   9.269  17.843  0.00  0.00    +0.000 OA
ATOM     15  O   UNL     1       2.045  10.412  18.333  0.00  0.00    +0.000 OA
ENDBRANCH  12  13
ENDBRANCH   4   6
BRANCH   1  19
ATOM     16  C   UNL     1       5.510   4.262  16.932  0.00  0.00    +0.000 A 
ATOM     17  C   UNL     1       4.140   4.285  16.627  0.00  0.00    +0.000 A 
ATOM     18  C   UNL     1       3.221   4.889  17.488  0.00  0.00    +0.000 A 
ATOM     19  C   UNL     1       3.652   5.447  18.693  0.00  0.00    +0.000 A 
ATOM     20  C   UNL     1       5.005   5.332  19.037  0.00  0.00    +0.000 A 
ATOM     21  C   UNL     1       5.941   4.738  18.177  0.00  0.00    +0.000 A 
BRANCH  16  23
ATOM     22  C   UNL     1       6.960   4.702  15.118  0.00  0.00    +0.000 C 
ATOM     23  O   UNL     1       6.417   3.756  16.040  0.00  0.00    +0.000 OA
ENDBRANCH  16  23
BRANCH  21  24
ATOM     24  O   UNL     1       7.201   4.742  18.715  0.00  0.00    +0.000 OA
ATOM     25  C   UNL     1       7.814   5.980  19.035  0.00  0.00    +0.000 C 
ENDBRANCH  21  24
ENDBRANCH   1  19
TORSDOF 5
ENDMDL
MODEL 9
REMARK VINA RESULT:      -7.1      1.170      1.825
REMARK  Name = 
REMARK  7 active torsions:
REMARK  status: ('A' for Active; 'I' for Inactive)
REMARK    1  A    between atoms: C_1  and  O_2
REMARK    2  A    between atoms: O_2  and  C_3
REMARK    3  A    between atoms: C_6  and  C_7
REMARK    4  A    between atoms: C_10  and  C_11
REMARK    5  A    between atoms: C_17  and  N_18
REMARK    6  A    between atoms: C_23  and  O_24
REMARK    7  A    between atoms: O_24  and  C_25
REMARK                            x       y       z     vdW  Elec       q    Type
REMARK                         _______ _______ _______ _____ _____    ______ ____
ROOT
ATOM      1  C   UNL     1       1.580   8.649  19.300  0.00  0.00    +0.000 A 
ATOM      2  N   UNL     1       1.824   7.832  20.337  0.00  0.00    +0.000 NA
ATOM      3  O   UNL     1       2.595   6.819  19.789  0.00  0.00    +0.000 OA
ATOM      4  C   UNL     1       2.753   7.118  18.468  0.00  0.00    +0.000 A 
ATOM      5  N   UNL     1       2.140   8.221  18.110  0.00  0.00    +0.000 NA
ENDROOT
BRANCH   4   6
ATOM      6  C   UNL     1       3.620   6.229  17.715  0.00  0.00    +0.000 A 
ATOM      7  C   UNL     1       4.786   6.754  17.125  0.00  0.00    +0.000 A 
ATOM      8  C   UNL     1       5.626   5.954  16.347  0.00  0.00    +0.000 A 
ATOM      9  C   UNL     1       5.317   4.609  16.145  0.00  0.00    +0.000 A 
ATOM     10 CL   UNL     1       6.359   3.635  15.187  0.00  0.00    +0.000 Cl
ATOM     11  C   UNL     1       4.174   4.058  16.711  0.00  0.00    +0.000 A 
ATOM     12  C   UNL     1       3.336   4.875  17.486  0.00  0.00    +0.000 A 
BRANCH  12  13
ATOM     13  N   UNL     1       2.173   4.245  18.089  0.00  0.00    +0.000 N 
ATOM     14  O   UNL     1       2.344   3.669  19.168  0.00  0.00    +0.000 OA
ATOM     15  O   UNL     1       1.124   4.274  17.435  0.00  0.00    +0.000 OA
ENDBRANCH  12  13
ENDBRANCH   4   6
BRANCH   1  19
ATOM     16  C   UNL     1      -0.593  12.302  19.749  0.00  0.00    +0.000 A 
ATOM     17  C   UNL     1      -1.107  11.096  20.252  0.00  0.00    +0.000 A 
ATOM     18  C   UNL     1      -0.405   9.898  20.103  0.00  0.00    +0.000 A 
ATOM     19  C   UNL     1       0.807   9.877  19.410  0.00  0.00    +0.000 A 
ATOM     20  C   UNL     1       1.264  11.066  18.826  0.00  0.00    +0.000 A 
ATOM     21  C   UNL     1       0.575  12.279  18.977  0.00  0.00    +0.000 A 
BRANCH  16  23
ATOM     22  C   UNL     1      -2.539  13.372  20.559  0.00  0.00    +0.000 C 
ATOM     23  O   UNL     1      -1.237  13.488  19.983  0.00  0.00    +0.000 OA
ENDBRANCH  16  23
BRANCH  21  24
ATOM     24  O   UNL     1       1.207  13.307  18.328  0.00  0.00    +0.000 OA
ATOM     25  C   UNL     1       2.611  13.253  18.148  0.00  0.00    +0.000 C 
ENDBRANCH  21  24
ENDBRANCH   1  19
TORSDOF 5
ENDMDL
