MODEL 1
REMARK VINA RESULT:      -8.0      0.000      0.000
REMARK  Name = 
REMARK  6 active torsions:
REMARK  status: ('A' for Active; 'I' for Inactive)
REMARK    1  A    between atoms: C_1  and  C_2
REMARK    2  A    between atoms: C_5  and  C_7
REMARK    3  A    between atoms: C_12  and  C_13
REMARK    4  A    between atoms: C_19  and  C_20
REMARK    5  A    between atoms: C_20  and  O_21
REMARK    6  A    between atoms: O_21  and  C_22
REMARK                            x       y       z     vdW  Elec       q    Type
REMARK                         _______ _______ _______ _____ _____    ______ ____
ROOT
ATOM      1  C   UNL     1      -0.396   8.526  21.878  0.00  0.00    +0.000 C 
ATOM      2  C   UNL     1       0.549   9.601  21.330  0.00  0.00    +0.000 C 
ATOM      3  C   UNL     1      -0.198  10.910  21.274  0.00  0.00    +0.000 C 
ATOM      4  N   UNL     1      -0.162  11.796  20.119  0.00  0.00    +0.000 N 
ATOM      5  C   UNL     1      -0.920  12.987  20.050  0.00  0.00    +0.000 C 
ATOM      6  O   UNL     1      -0.910  13.715  19.054  0.00  0.00    +0.000 OA
ATOM      7  C   UNL     1       0.243  11.264  18.826  0.00  0.00    +0.000 C 
ATOM      8  C   UNL     1       0.998   9.998  18.920  0.00  0.00    +0.000 A 
ATOM      9  C   UNL     1       1.680   9.274  17.965  0.00  0.00    +0.000 A 
ATOM     10  C   UNL     1       2.195   8.139  18.639  0.00  0.00    +0.000 A 
ATOM     11  N   UNL     1       1.850   8.153  19.933  0.00  0.00    +0.000 NA
ATOM     12  N   UNL     1       1.114   9.264  20.058  0.00  0.00    +0.000 N 
ENDROOT
BRANCH   5  13
ATOM     13  C   UNL     1      -1.893  13.340  21.139  0.00  0.00    +0.000 A 
ATOM     14  C   UNL     1      -3.180  12.817  21.083  0.00  0.00    +0.000 A 
ATOM     15  C   UNL     1      -4.039  13.015  22.168  0.00  0.00    +0.000 A 
ATOM     16  F   UNL     1      -5.277  12.512  22.121  0.00  0.00    +0.000 F 
ATOM     17  C   UNL     1      -3.627  13.680  23.320  0.00  0.00    +0.000 A 
ATOM     18  C   UNL     1      -2.363  14.223  23.377  0.00  0.00    +0.000 A 
ATOM     19  C   UNL     1      -1.550  14.109  22.262  0.00  0.00    +0.000 A 
BRANCH  18  20
ATOM     20  C   UNL     1      -1.857  14.849  24.569  0.00  0.00    +0.000 C 
ATOM     21  N   UNL     1      -1.505  15.350  25.539  0.00  0.00    +0.000 NA
ENDBRANCH  18  20
ENDBRANCH   5  13
BRANCH  10  22
ATOM     22  C   UNL     1       3.006   7.018  18.062  0.00  0.00    +0.000 C 
BRANCH  22  23
ATOM     23  O   UNL     1       3.306   6.049  19.071  0.00  0.00    +0.000 OA
BRANCH  23  24
ATOM     24  C   UNL     1       2.479   4.966  19.160  0.00  0.00    +0.000 A 
ATOM     25  C   UNL     1       2.033   4.685  20.452  0.00  0.00    +0.000 A 
ATOM     26  C   UNL     1       1.207   3.588  20.700  0.00  0.00    +0.000 A 
ATOM     27  C   UNL     1       0.799   2.778  19.645  0.00  0.00    +0.000 A 
ATOM     28  C   UNL     1       1.217   3.069  18.345  0.00  0.00    +0.000 A 
ATOM     29  C   UNL     1       2.056   4.163  18.100  0.00  0.00    +0.000 A 
ENDBRANCH  23  24
ENDBRANCH  22  23
ENDBRANCH  10  22
TORSDOF 5
ENDMDL
MODEL 2
REMARK VINA RESULT:      -8.0      0.902      1.161
REMARK  Name = 
REMARK  6 active torsions:
REMARK  status: ('A' for Active; 'I' for Inactive)
REMARK    1  A    between atoms: C_1  and  C_2
REMARK    2  A    between atoms: C_5  and  C_7
REMARK    3  A    between atoms: C_12  and  C_13
REMARK    4  A    between atoms: C_19  and  C_20
REMARK    5  A    between atoms: C_20  and  O_21
REMARK    6  A    between atoms: O_21  and  C_22
REMARK                            x       y       z     vdW  Elec       q    Type
REMARK                         _______ _______ _______ _____ _____    ______ ____
ROOT
ATOM      1  C   UNL     1      -0.196   8.360  21.869  0.00  0.00    +0.000 C 
ATOM      2  C   UNL     1       0.782   9.340  21.211  0.00  0.00    +0.000 C 
ATOM      3  C   UNL     1       0.086  10.667  21.040  0.00  0.00    +0.000 C 
ATOM      4  N   UNL     1       0.139  11.438  19.806  0.00  0.00    +0.000 N 
ATOM      5  C   UNL     1      -0.573  12.647  19.634  0.00  0.00    +0.000 C 
ATOM      6  O   UNL     1      -0.550  13.278  18.573  0.00  0.00    +0.000 OA
ATOM      7  C   UNL     1       0.503  10.772  18.565  0.00  0.00    +0.000 C 
ATOM      8  C   UNL     1       1.210   9.491  18.769  0.00  0.00    +0.000 A 
ATOM      9  C   UNL     1       1.849   8.653  17.879  0.00  0.00    +0.000 A 
ATOM     10  C   UNL     1       2.329   7.567  18.652  0.00  0.00    +0.000 A 
ATOM     11  N   UNL     1       2.004   7.716  19.943  0.00  0.00    +0.000 NA
ATOM     12  N   UNL     1       1.315   8.863  19.970  0.00  0.00    +0.000 N 
ENDROOT
BRANCH   5  13
ATOM     13  C   UNL     1      -1.515  13.140  20.695  0.00  0.00    +0.000 A 
ATOM     14  C   UNL     1      -2.852  12.762  20.632  0.00  0.00    +0.000 A 
ATOM     15  C   UNL     1      -3.698  13.088  21.697  0.00  0.00    +0.000 A 
ATOM     16  F   UNL     1      -4.984  12.726  21.643  0.00  0.00    +0.000 F 
ATOM     17  C   UNL     1      -3.229  13.737  22.836  0.00  0.00    +0.000 A 
ATOM     18  C   UNL     1      -1.913  14.137  22.898  0.00  0.00    +0.000 A 
ATOM     19  C   UNL     1      -1.104  13.899  21.801  0.00  0.00    +0.000 A 
BRANCH  18  20
ATOM     20  C   UNL     1      -1.357  14.739  24.081  0.00  0.00    +0.000 C 
ATOM     21  N   UNL     1      -0.947  15.189  25.054  0.00  0.00    +0.000 NA
ENDBRANCH  18  20
ENDBRANCH   5  13
BRANCH  10  22
ATOM     22  C   UNL     1       3.087   6.365  18.174  0.00  0.00    +0.000 C 
BRANCH  22  23
ATOM     23  O   UNL     1       2.222   5.228  18.099  0.00  0.00    +0.000 OA
BRANCH  23  24
ATOM     24  C   UNL     1       2.211   4.381  19.171  0.00  0.00    +0.000 A 
ATOM     25  C   UNL     1       3.395   3.666  19.352  0.00  0.00    +0.000 A 
ATOM     26  C   UNL     1       3.518   2.739  20.389  0.00  0.00    +0.000 A 
ATOM     27  C   UNL     1       2.460   2.544  21.270  0.00  0.00    +0.000 A 
ATOM     28  C   UNL     1       1.282   3.277  21.113  0.00  0.00    +0.000 A 
ATOM     29  C   UNL     1       1.156   4.197  20.065  0.00  0.00    +0.000 A 
ENDBRANCH  23  24
ENDBRANCH  22  23
ENDBRANCH  10  22
TORSDOF 5
ENDMDL
MODEL 3
REMARK VINA RESULT:      -7.9      0.597      1.097
REMARK  Name = 
REMARK  6 active torsions:
REMARK  status: ('A' for Active; 'I' for Inactive)
REMARK    1  A    between atoms: C_1  and  C_2
REMARK    2  A    between atoms: C_5  and  C_7
REMARK    3  A    between atoms: C_12  and  C_13
REMARK    4  A    between atoms: C_19  and  C_20
REMARK    5  A    between atoms: C_20  and  O_21
REMARK    6  A    between atoms: O_21  and  C_22
REMARK                            x       y       z     vdW  Elec       q    Type
REMARK                         _______ _______ _______ _____ _____    ______ ____
ROOT
ATOM      1  C   UNL     1      -0.346   8.850  22.317  0.00  0.00    +0.000 C 
ATOM      2  C   UNL     1       0.575   9.891  21.672  0.00  0.00    +0.000 C 
ATOM      3  C   UNL     1      -0.122  11.229  21.702  0.00  0.00    +0.000 C 
ATOM      4  N   UNL     1      -0.178  12.120  20.552  0.00  0.00    +0.000 N 
ATOM      5  C   UNL     1      -0.891  13.341  20.569  0.00  0.00    +0.000 C 
ATOM      6  O   UNL     1      -0.962  14.075  19.580  0.00  0.00    +0.000 OA
ATOM      7  C   UNL     1       0.063  11.582  19.221  0.00  0.00    +0.000 C 
ATOM      8  C   UNL     1       0.774  10.288  19.229  0.00  0.00    +0.000 A 
ATOM      9  C   UNL     1       1.318   9.544  18.203  0.00  0.00    +0.000 A 
ATOM     10  C   UNL     1       1.858   8.385  18.814  0.00  0.00    +0.000 A 
ATOM     11  N   UNL     1       1.657   8.403  20.138  0.00  0.00    +0.000 NA
ATOM     12  N   UNL     1       0.984   9.542  20.346  0.00  0.00    +0.000 N 
ENDROOT
BRANCH   5  13
ATOM     13  C   UNL     1      -1.726  13.723  21.759  0.00  0.00    +0.000 A 
ATOM     14  C   UNL     1      -3.021  13.230  21.855  0.00  0.00    +0.000 A 
ATOM     15  C   UNL     1      -3.746  13.455  23.030  0.00  0.00    +0.000 A 
ATOM     16  F   UNL     1      -4.992  12.980  23.130  0.00  0.00    +0.000 F 
ATOM     17  C   UNL     1      -3.190  14.118  24.121  0.00  0.00    +0.000 A 
ATOM     18  C   UNL     1      -1.916  14.632  24.027  0.00  0.00    +0.000 A 
ATOM     19  C   UNL     1      -1.240  14.492  22.828  0.00  0.00    +0.000 A 
BRANCH  18  20
ATOM     20  C   UNL     1      -1.263  15.255  25.148  0.00  0.00    +0.000 C 
ATOM     21  N   UNL     1      -0.775  15.723  26.075  0.00  0.00    +0.000 NA
ENDBRANCH  18  20
ENDBRANCH   5  13
BRANCH  10  22
ATOM     22  C   UNL     1       2.557   7.238  18.149  0.00  0.00    +0.000 C 
BRANCH  22  23
ATOM     23  O   UNL     1       3.070   6.331  19.129  0.00  0.00    +0.000 OA
BRANCH  23  24
ATOM     24  C   UNL     1       2.349   5.195  19.364  0.00  0.00    +0.000 A 
ATOM     25  C   UNL     1       2.051   4.453  18.220  0.00  0.00    +0.000 A 
ATOM     26  C   UNL     1       1.293   3.285  18.303  0.00  0.00    +0.000 A 
ATOM     27  C   UNL     1       0.851   2.836  19.543  0.00  0.00    +0.000 A 
ATOM     28  C   UNL     1       1.168   3.556  20.696  0.00  0.00    +0.000 A 
ATOM     29  C   UNL     1       1.918   4.735  20.610  0.00  0.00    +0.000 A 
ENDBRANCH  23  24
ENDBRANCH  22  23
ENDBRANCH  10  22
TORSDOF 5
ENDMDL
MODEL 4
REMARK VINA RESULT:      -7.8      1.672      2.046
REMARK  Name = 
REMARK  6 active torsions:
REMARK  status: ('A' for Active; 'I' for Inactive)
REMARK    1  A    between atoms: C_1  and  C_2
REMARK    2  A    between atoms: C_5  and  C_7
REMARK    3  A    between atoms: C_12  and  C_13
REMARK    4  A    between atoms: C_19  and  C_20
REMARK    5  A    between atoms: C_20  and  O_21
REMARK    6  A    between atoms: O_21  and  C_22
REMARK                            x       y       z     vdW  Elec       q    Type
REMARK                         _______ _______ _______ _____ _____    ______ ____
ROOT
ATOM      1  C   UNL     1      -0.281   8.200  21.949  0.00  0.00    +0.000 C 
ATOM      2  C   UNL     1       0.744   9.254  21.514  0.00  0.00    +0.000 C 
ATOM      3  C   UNL     1       0.114  10.617  21.646  0.00  0.00    +0.000 C 
ATOM      4  N   UNL     1       0.205  11.638  20.611  0.00  0.00    +0.000 N 
ATOM      5  C   UNL     1      -0.446  12.888  20.716  0.00  0.00    +0.000 C 
ATOM      6  O   UNL     1      -0.392  13.734  19.819  0.00  0.00    +0.000 OA
ATOM      7  C   UNL     1       0.538  11.244  19.250  0.00  0.00    +0.000 C 
ATOM      8  C   UNL     1       1.182   9.918  19.162  0.00  0.00    +0.000 A 
ATOM      9  C   UNL     1       1.780   9.267  18.103  0.00  0.00    +0.000 A 
ATOM     10  C   UNL     1       2.206   8.015  18.613  0.00  0.00    +0.000 A 
ATOM     11  N   UNL     1       1.887   7.892  19.908  0.00  0.00    +0.000 NA
ATOM     12  N   UNL     1       1.254   9.036  20.194  0.00  0.00    +0.000 N 
ENDROOT
BRANCH   5  13
ATOM     13  C   UNL     1      -1.366  13.178  21.868  0.00  0.00    +0.000 A 
ATOM     14  C   UNL     1      -0.905  13.978  22.908  0.00  0.00    +0.000 A 
ATOM     15  C   UNL     1      -1.802  14.378  23.903  0.00  0.00    +0.000 A 
ATOM     16  F   UNL     1      -1.365  15.149  24.904  0.00  0.00    +0.000 F 
ATOM     17  C   UNL     1      -3.151  14.036  23.857  0.00  0.00    +0.000 A 
ATOM     18  C   UNL     1      -3.613  13.225  22.845  0.00  0.00    +0.000 A 
ATOM     19  C   UNL     1      -2.702  12.751  21.917  0.00  0.00    +0.000 A 
BRANCH  18  20
ATOM     20  C   UNL     1      -5.009  12.906  22.703  0.00  0.00    +0.000 C 
ATOM     21  N   UNL     1      -6.115  12.611  22.625  0.00  0.00    +0.000 NA
ENDBRANCH  18  20
ENDBRANCH   5  13
BRANCH  10  22
ATOM     22  C   UNL     1       2.905   6.913  17.876  0.00  0.00    +0.000 C 
BRANCH  22  23
ATOM     23  O   UNL     1       3.316   5.888  18.785  0.00  0.00    +0.000 OA
BRANCH  23  24
ATOM     24  C   UNL     1       2.687   4.679  18.686  0.00  0.00    +0.000 A 
ATOM     25  C   UNL     1       1.712   4.455  19.659  0.00  0.00    +0.000 A 
ATOM     26  C   UNL     1       1.010   3.251  19.702  0.00  0.00    +0.000 A 
ATOM     27  C   UNL     1       1.261   2.270  18.748  0.00  0.00    +0.000 A 
ATOM     28  C   UNL     1       2.213   2.497  17.753  0.00  0.00    +0.000 A 
ATOM     29  C   UNL     1       2.927   3.702  17.719  0.00  0.00    +0.000 A 
ENDBRANCH  23  24
ENDBRANCH  22  23
ENDBRANCH  10  22
TORSDOF 5
ENDMDL
MODEL 5
REMARK VINA RESULT:      -7.7      2.569      3.675
REMARK  Name = 
REMARK  6 active torsions:
REMARK  status: ('A' for Active; 'I' for Inactive)
REMARK    1  A    between atoms: C_1  and  C_2
REMARK    2  A    between atoms: C_5  and  C_7
REMARK    3  A    between atoms: C_12  and  C_13
REMARK    4  A    between atoms: C_19  and  C_20
REMARK    5  A    between atoms: C_20  and  O_21
REMARK    6  A    between atoms: O_21  and  C_22
REMARK                            x       y       z     vdW  Elec       q    Type
REMARK                         _______ _______ _______ _____ _____    ______ ____
ROOT
ATOM      1  C   UNL     1       0.261   7.768  21.770  0.00  0.00    +0.000 C 
ATOM      2  C   UNL     1       1.345   8.656  21.150  0.00  0.00    +0.000 C 
ATOM      3  C   UNL     1       0.829  10.072  21.094  0.00  0.00    +0.000 C 
ATOM      4  N   UNL     1       0.955  10.918  19.915  0.00  0.00    +0.000 N 
ATOM      5  C   UNL     1       0.408  12.219  19.850  0.00  0.00    +0.000 C 
ATOM      6  O   UNL     1       0.490  12.917  18.835  0.00  0.00    +0.000 OA
ATOM      7  C   UNL     1       1.198  10.301  18.619  0.00  0.00    +0.000 C 
ATOM      8  C   UNL     1       1.732   8.927  18.712  0.00  0.00    +0.000 A 
ATOM      9  C   UNL     1       2.232   8.080  17.745  0.00  0.00    +0.000 A 
ATOM     10  C   UNL     1       2.581   6.886  18.425  0.00  0.00    +0.000 A 
ATOM     11  N   UNL     1       2.309   6.982  19.733  0.00  0.00    +0.000 NA
ATOM     12  N   UNL     1       1.780   8.205  19.862  0.00  0.00    +0.000 N 
ENDROOT
BRANCH   5  13
ATOM     13  C   UNL     1      -0.435  12.752  20.974  0.00  0.00    +0.000 A 
ATOM     14  C   UNL     1       0.094  13.736  21.801  0.00  0.00    +0.000 A 
ATOM     15  C   UNL     1      -0.736  14.344  22.748  0.00  0.00    +0.000 A 
ATOM     16  F   UNL     1      -0.233  15.292  23.545  0.00  0.00    +0.000 F 
ATOM     17  C   UNL     1      -2.088  14.025  22.852  0.00  0.00    +0.000 A 
ATOM     18  C   UNL     1      -2.617  13.035  22.055  0.00  0.00    +0.000 A 
ATOM     19  C   UNL     1      -1.768  12.368  21.188  0.00  0.00    +0.000 A 
BRANCH  18  20
ATOM     20  C   UNL     1      -4.021  12.720  22.064  0.00  0.00    +0.000 C 
ATOM     21  N   UNL     1      -5.134  12.443  22.024  0.00  0.00    +0.000 NA
ENDBRANCH  18  20
ENDBRANCH   5  13
BRANCH  10  22
ATOM     22  C   UNL     1       3.160   5.633  17.840  0.00  0.00    +0.000 C 
BRANCH  22  23
ATOM     23  O   UNL     1       4.291   5.942  17.022  0.00  0.00    +0.000 OA
BRANCH  23  24
ATOM     24  C   UNL     1       5.494   6.094  17.652  0.00  0.00    +0.000 A 
ATOM     25  C   UNL     1       6.312   7.082  17.103  0.00  0.00    +0.000 A 
ATOM     26  C   UNL     1       7.583   7.327  17.624  0.00  0.00    +0.000 A 
ATOM     27  C   UNL     1       8.032   6.600  18.721  0.00  0.00    +0.000 A 
ATOM     28  C   UNL     1       7.209   5.630  19.295  0.00  0.00    +0.000 A 
ATOM     29  C   UNL     1       5.938   5.376  18.763  0.00  0.00    +0.000 A 
ENDBRANCH  23  24
ENDBRANCH  22  23
ENDBRANCH  10  22
TORSDOF 5
ENDMDL
MODEL 6
REMARK VINA RESULT:      -7.7      3.493      9.526
REMARK  Name = 
REMARK  6 active torsions:
REMARK  status: ('A' for Active; 'I' for Inactive)
REMARK    1  A    between atoms: C_1  and  C_2
REMARK    2  A    between atoms: C_5  and  C_7
REMARK    3  A    between atoms: C_12  and  C_13
REMARK    4  A    between atoms: C_19  and  C_20
REMARK    5  A    between atoms: C_20  and  O_21
REMARK    6  A    between atoms: O_21  and  C_22
REMARK                            x       y       z     vdW  Elec       q    Type
REMARK                         _______ _______ _______ _____ _____    ______ ____
ROOT
ATOM      1  C   UNL     1       1.404   9.014  17.577  0.00  0.00    +0.000 C 
ATOM      2  C   UNL     1       1.973   8.872  18.993  0.00  0.00    +0.000 C 
ATOM      3  C   UNL     1       2.476   7.462  19.167  0.00  0.00    +0.000 C 
ATOM      4  N   UNL     1       2.189   6.655  20.346  0.00  0.00    +0.000 N 
ATOM      5  C   UNL     1       2.608   5.311  20.469  0.00  0.00    +0.000 C 
ATOM      6  O   UNL     1       2.331   4.624  21.456  0.00  0.00    +0.000 OA
ATOM      7  C   UNL     1       1.067   7.017  21.200  0.00  0.00    +0.000 C 
ATOM      8  C   UNL     1       0.621   8.415  21.025  0.00  0.00    +0.000 A 
ATOM      9  C   UNL     1      -0.281   9.176  21.738  0.00  0.00    +0.000 A 
ATOM     10  C   UNL     1      -0.309  10.439  21.097  0.00  0.00    +0.000 A 
ATOM     11  N   UNL     1       0.520  10.461  20.045  0.00  0.00    +0.000 NA
ATOM     12  N   UNL     1       1.038   9.227  20.018  0.00  0.00    +0.000 N 
ENDROOT
BRANCH   5  13
ATOM     13  C   UNL     1       3.284   4.612  19.323  0.00  0.00    +0.000 A 
ATOM     14  C   UNL     1       2.500   3.963  18.377  0.00  0.00    +0.000 A 
ATOM     15  C   UNL     1       3.112   3.445  17.231  0.00  0.00    +0.000 A 
ATOM     16  F   UNL     1       2.362   2.822  16.316  0.00  0.00    +0.000 F 
ATOM     17  C   UNL     1       4.474   3.602  16.991  0.00  0.00    +0.000 A 
ATOM     18  C   UNL     1       5.264   4.221  17.933  0.00  0.00    +0.000 A 
ATOM     19  C   UNL     1       4.671   4.645  19.109  0.00  0.00    +0.000 A 
BRANCH  18  20
ATOM     20  C   UNL     1       6.660   4.480  17.703  0.00  0.00    +0.000 C 
ATOM     21  N   UNL     1       7.771   4.657  17.473  0.00  0.00    +0.000 NA
ENDBRANCH  18  20
ENDBRANCH   5  13
BRANCH  10  22
ATOM     22  C   UNL     1      -1.134  11.636  21.462  0.00  0.00    +0.000 C 
BRANCH  22  23
ATOM     23  O   UNL     1      -1.369  12.449  20.309  0.00  0.00    +0.000 OA
BRANCH  23  24
ATOM     24  C   UNL     1      -2.522  12.223  19.611  0.00  0.00    +0.000 A 
ATOM     25  C   UNL     1      -3.680  12.664  20.253  0.00  0.00    +0.000 A 
ATOM     26  C   UNL     1      -4.935  12.471  19.674  0.00  0.00    +0.000 A 
ATOM     27  C   UNL     1      -5.034  11.858  18.429  0.00  0.00    +0.000 A 
ATOM     28  C   UNL     1      -3.879  11.440  17.766  0.00  0.00    +0.000 A 
ATOM     29  C   UNL     1      -2.621  11.623  18.355  0.00  0.00    +0.000 A 
ENDBRANCH  23  24
ENDBRANCH  22  23
ENDBRANCH  10  22
TORSDOF 5
ENDMDL
MODEL 7
REMARK VINA RESULT:      -7.7      1.826      2.193
REMARK  Name = 
REMARK  6 active torsions:
REMARK  status: ('A' for Active; 'I' for Inactive)
REMARK    1  A    between atoms: C_1  and  C_2
REMARK    2  A    between atoms: C_5  and  C_7
REMARK    3  A    between atoms: C_12  and  C_13
REMARK    4  A    between atoms: C_19  and  C_20
REMARK    5  A    between atoms: C_20  and  O_21
REMARK    6  A    between atoms: O_21  and  C_22
REMARK                            x       y       z     vdW  Elec       q    Type
REMARK                         _______ _______ _______ _____ _____    ______ ____
ROOT
ATOM      1  C   UNL     1      -0.381   8.601  21.885  0.00  0.00    +0.000 C 
ATOM      2  C   UNL     1       0.615   9.581  21.254  0.00  0.00    +0.000 C 
ATOM      3  C   UNL     1      -0.083  10.900  21.040  0.00  0.00    +0.000 C 
ATOM      4  N   UNL     1       0.013  11.657  19.799  0.00  0.00    +0.000 N 
ATOM      5  C   UNL     1      -0.700  12.858  19.584  0.00  0.00    +0.000 C 
ATOM      6  O   UNL     1      -0.639  13.476  18.517  0.00  0.00    +0.000 OA
ATOM      7  C   UNL     1       0.431  10.978  18.582  0.00  0.00    +0.000 C 
ATOM      8  C   UNL     1       1.139   9.706  18.830  0.00  0.00    +0.000 A 
ATOM      9  C   UNL     1       1.818   8.863  17.976  0.00  0.00    +0.000 A 
ATOM     10  C   UNL     1       2.275   7.789  18.780  0.00  0.00    +0.000 A 
ATOM     11  N   UNL     1       1.898   7.951  20.055  0.00  0.00    +0.000 NA
ATOM     12  N   UNL     1       1.200   9.093  20.042  0.00  0.00    +0.000 N 
ENDROOT
BRANCH   5  13
ATOM     13  C   UNL     1      -1.688  13.356  20.601  0.00  0.00    +0.000 A 
ATOM     14  C   UNL     1      -1.419  14.544  21.271  0.00  0.00    +0.000 A 
ATOM     15  C   UNL     1      -2.403  15.090  22.101  0.00  0.00    +0.000 A 
ATOM     16  F   UNL     1      -2.152  16.234  22.746  0.00  0.00    +0.000 F 
ATOM     17  C   UNL     1      -3.657  14.502  22.240  0.00  0.00    +0.000 A 
ATOM     18  C   UNL     1      -3.925  13.312  21.601  0.00  0.00    +0.000 A 
ATOM     19  C   UNL     1      -2.915  12.725  20.858  0.00  0.00    +0.000 A 
BRANCH  18  20
ATOM     20  C   UNL     1      -5.227  12.702  21.644  0.00  0.00    +0.000 C 
ATOM     21  N   UNL     1      -6.241  12.166  21.681  0.00  0.00    +0.000 NA
ENDBRANCH  18  20
ENDBRANCH   5  13
BRANCH  10  22
ATOM     22  C   UNL     1       3.060   6.587  18.348  0.00  0.00    +0.000 C 
BRANCH  22  23
ATOM     23  O   UNL     1       2.222   5.676  17.632  0.00  0.00    +0.000 OA
BRANCH  23  24
ATOM     24  C   UNL     1       2.146   4.396  18.105  0.00  0.00    +0.000 A 
ATOM     25  C   UNL     1       1.479   4.271  19.325  0.00  0.00    +0.000 A 
ATOM     26  C   UNL     1       1.352   3.028  19.945  0.00  0.00    +0.000 A 
ATOM     27  C   UNL     1       1.871   1.893  19.330  0.00  0.00    +0.000 A 
ATOM     28  C   UNL     1       2.514   2.005  18.096  0.00  0.00    +0.000 A 
ATOM     29  C   UNL     1       2.652   3.255  17.481  0.00  0.00    +0.000 A 
ENDBRANCH  23  24
ENDBRANCH  22  23
ENDBRANCH  10  22
TORSDOF 5
ENDMDL
MODEL 8
REMARK VINA RESULT:      -7.7      1.974      2.872
REMARK  Name = 
REMARK  6 active torsions:
REMARK  status: ('A' for Active; 'I' for Inactive)
REMARK    1  A    between atoms: C_1  and  C_2
REMARK    2  A    between atoms: C_5  and  C_7
REMARK    3  A    between atoms: C_12  and  C_13
REMARK    4  A    between atoms: C_19  and  C_20
REMARK    5  A    between atoms: C_20  and  O_21
REMARK    6  A    between atoms: O_21  and  C_22
REMARK                            x       y       z     vdW  Elec       q    Type
REMARK                         _______ _______ _______ _____ _____    ______ ____
ROOT
ATOM      1  C   UNL     1      -0.285   8.423  21.847  0.00  0.00    +0.000 C 
ATOM      2  C   UNL     1       0.802   9.312  21.231  0.00  0.00    +0.000 C 
ATOM      3  C   UNL     1       0.218  10.681  20.989  0.00  0.00    +0.000 C 
ATOM      4  N   UNL     1       0.403  11.415  19.744  0.00  0.00    +0.000 N 
ATOM      5  C   UNL     1      -0.205  12.668  19.502  0.00  0.00    +0.000 C 
ATOM      6  O   UNL     1      -0.070  13.267  18.432  0.00  0.00    +0.000 OA
ATOM      7  C   UNL     1       0.792  10.691  18.542  0.00  0.00    +0.000 C 
ATOM      8  C   UNL     1       1.387   9.368  18.818  0.00  0.00    +0.000 A 
ATOM      9  C   UNL     1       2.014   8.464  17.988  0.00  0.00    +0.000 A 
ATOM     10  C   UNL     1       2.365   7.365  18.811  0.00  0.00    +0.000 A 
ATOM     11  N   UNL     1       1.974   7.570  20.076  0.00  0.00    +0.000 NA
ATOM     12  N   UNL     1       1.371   8.765  20.036  0.00  0.00    +0.000 N 
ENDROOT
BRANCH   5  13
ATOM     13  C   UNL     1      -1.171  13.254  20.492  0.00  0.00    +0.000 A 
ATOM     14  C   UNL     1      -2.527  12.992  20.342  0.00  0.00    +0.000 A 
ATOM     15  C   UNL     1      -3.412  13.404  21.343  0.00  0.00    +0.000 A 
ATOM     16  F   UNL     1      -4.718  13.152  21.205  0.00  0.00    +0.000 F 
ATOM     17  C   UNL     1      -2.967  14.029  22.505  0.00  0.00    +0.000 A 
ATOM     18  C   UNL     1      -1.629  14.316  22.654  0.00  0.00    +0.000 A 
ATOM     19  C   UNL     1      -0.771  13.993  21.617  0.00  0.00    +0.000 A 
BRANCH  18  20
ATOM     20  C   UNL     1      -1.103  14.885  23.866  0.00  0.00    +0.000 C 
ATOM     21  N   UNL     1      -0.733  15.363  24.841  0.00  0.00    +0.000 NA
ENDBRANCH  18  20
ENDBRANCH   5  13
BRANCH  10  22
ATOM     22  C   UNL     1       3.059   6.099  18.407  0.00  0.00    +0.000 C 
BRANCH  22  23
ATOM     23  O   UNL     1       4.022   6.364  17.383  0.00  0.00    +0.000 OA
BRANCH  23  24
ATOM     24  C   UNL     1       5.336   6.395  17.756  0.00  0.00    +0.000 A 
ATOM     25  C   UNL     1       5.658   5.531  18.804  0.00  0.00    +0.000 A 
ATOM     26  C   UNL     1       6.956   5.479  19.313  0.00  0.00    +0.000 A 
ATOM     27  C   UNL     1       7.950   6.274  18.752  0.00  0.00    +0.000 A 
ATOM     28  C   UNL     1       7.643   7.119  17.685  0.00  0.00    +0.000 A 
ATOM     29  C   UNL     1       6.337   7.180  17.184  0.00  0.00    +0.000 A 
ENDBRANCH  23  24
ENDBRANCH  22  23
ENDBRANCH  10  22
TORSDOF 5
ENDMDL
MODEL 9
REMARK VINA RESULT:      -7.6      1.924      2.648
REMARK  Name = 
REMARK  6 active torsions:
REMARK  status: ('A' for Active; 'I' for Inactive)
REMARK    1  A    between atoms: C_1  and  C_2
REMARK    2  A    between atoms: C_5  and  C_7
REMARK    3  A    between atoms: C_12  and  C_13
REMARK    4  A    between atoms: C_19  and  C_20
REMARK    5  A    between atoms: C_20  and  O_21
REMARK    6  A    between atoms: O_21  and  C_22
REMARK                            x       y       z     vdW  Elec       q    Type
REMARK                         _______ _______ _______ _____ _____    ______ ____
ROOT
ATOM      1  C   UNL     1      -0.243   8.283  21.833  0.00  0.00    +0.000 C 
ATOM      2  C   UNL     1       0.765   9.276  21.245  0.00  0.00    +0.000 C 
ATOM      3  C   UNL     1       0.109  10.631  21.160  0.00  0.00    +0.000 C 
ATOM      4  N   UNL     1       0.189  11.480  19.980  0.00  0.00    +0.000 N 
ATOM      5  C   UNL     1      -0.487  12.718  19.886  0.00  0.00    +0.000 C 
ATOM      6  O   UNL     1      -0.441  13.416  18.869  0.00  0.00    +0.000 OA
ATOM      7  C   UNL     1       0.540  10.887  18.698  0.00  0.00    +0.000 C 
ATOM      8  C   UNL     1       1.209   9.576  18.820  0.00  0.00    +0.000 A 
ATOM      9  C   UNL     1       1.828   8.781  17.878  0.00  0.00    +0.000 A 
ATOM     10  C   UNL     1       2.273   7.632  18.578  0.00  0.00    +0.000 A 
ATOM     11  N   UNL     1       1.947   7.705  19.875  0.00  0.00    +0.000 NA
ATOM     12  N   UNL     1       1.290   8.867  19.977  0.00  0.00    +0.000 N 
ENDROOT
BRANCH   5  13
ATOM     13  C   UNL     1      -1.420  13.166  20.975  0.00  0.00    +0.000 A 
ATOM     14  C   UNL     1      -2.730  12.700  20.969  0.00  0.00    +0.000 A 
ATOM     15  C   UNL     1      -3.555  12.988  22.060  0.00  0.00    +0.000 A 
ATOM     16  F   UNL     1      -4.815  12.540  22.062  0.00  0.00    +0.000 F 
ATOM     17  C   UNL     1      -3.089  13.688  23.170  0.00  0.00    +0.000 A 
ATOM     18  C   UNL     1      -1.802  14.175  23.175  0.00  0.00    +0.000 A 
ATOM     19  C   UNL     1      -1.020  13.972  22.052  0.00  0.00    +0.000 A 
BRANCH  18  20
ATOM     20  C   UNL     1      -1.243  14.835  24.325  0.00  0.00    +0.000 C 
ATOM     21  N   UNL     1      -0.841  15.394  25.244  0.00  0.00    +0.000 NA
ENDBRANCH  18  20
ENDBRANCH   5  13
BRANCH  10  22
ATOM     22  C   UNL     1       2.999   6.443  18.025  0.00  0.00    +0.000 C 
BRANCH  22  23
ATOM     23  O   UNL     1       4.152   6.149  18.818  0.00  0.00    +0.000 OA
BRANCH  23  24
ATOM     24  C   UNL     1       5.238   5.630  18.172  0.00  0.00    +0.000 A 
ATOM     25  C   UNL     1       5.014   5.315  16.831  0.00  0.00    +0.000 A 
ATOM     26  C   UNL     1       6.024   4.747  16.053  0.00  0.00    +0.000 A 
ATOM     27  C   UNL     1       7.278   4.516  16.610  0.00  0.00    +0.000 A 
ATOM     28  C   UNL     1       7.518   4.854  17.943  0.00  0.00    +0.000 A 
ATOM     29  C   UNL     1       6.500   5.412  18.726  0.00  0.00    +0.000 A 
ENDBRANCH  23  24
ENDBRANCH  22  23
ENDBRANCH  10  22
TORSDOF 5
ENDMDL
