MODEL 1
REMARK VINA RESULT:      -8.0      0.000      0.000
REMARK  Name = 
REMARK  12 active torsions:
REMARK  status: ('A' for Active; 'I' for Inactive)
REMARK    1  A    between atoms: C_1  and  C_2
REMARK    2  A    between atoms: C_6  and  C_7
REMARK    3  A    between atoms: C_7  and  N_8
REMARK    4  A    between atoms: N_8  and  C_9
REMARK    5  A    between atoms: C_9  and  C_10
REMARK    6  A    between atoms: C_10  and  C_11
REMARK    7  A    between atoms: C_10  and  C_12
REMARK    8  A    between atoms: C_18  and  C_19
REMARK    9  A    between atoms: C_19  and  O_21
REMARK   10  A    between atoms: N_22  and  C_23
REMARK   11  A    between atoms: C_23  and  C_24
REMARK   12  A    between atoms: C_29  and  C_30
REMARK                            x       y       z     vdW  Elec       q    Type
REMARK                         _______ _______ _______ _____ _____    ______ ____
ROOT
ATOM      1  C   UNL     1      -5.611  11.242  17.502  0.00  0.00    +0.000 C 
ATOM      2  C   UNL     1      -4.137  11.028  17.694  0.00  0.00    +0.000 A 
ATOM      3  C   UNL     1      -3.467  10.034  16.981  0.00  0.00    +0.000 A 
ATOM      4  C   UNL     1      -2.095   9.839  17.151  0.00  0.00    +0.000 A 
ATOM      5  C   UNL     1      -1.376  10.636  18.063  0.00  0.00    +0.000 A 
ATOM      6  C   UNL     1      -0.005  10.639  18.487  0.00  0.00    +0.000 A 
ATOM      7  C   UNL     1       0.095  11.568  19.531  0.00  0.00    +0.000 A 
ATOM      8  N   UNL     1      -1.107  12.268  19.562  0.00  0.00    +0.000 N 
ATOM      9  C   UNL     1      -2.050  11.625  18.771  0.00  0.00    +0.000 A 
ATOM     10  C   UNL     1      -3.432  11.839  18.597  0.00  0.00    +0.000 A 
ENDROOT
BRANCH   7  11
ATOM     11  C   UNL     1       1.175  11.760  20.476  0.00  0.00    +0.000 C 
ATOM     12  O   UNL     1       1.380  11.144  21.513  0.00  0.00    +0.000 OA
BRANCH  11  13
ATOM     13  O   UNL     1       2.066  12.682  20.074  0.00  0.00    +0.000 OA
ATOM     14  H   UNL     1       2.242  12.437  19.141  0.00  0.00    +0.000 HD
ENDBRANCH  11  13
ENDBRANCH   7  11
BRANCH   6  15
ATOM     15  C   UNL     1       1.029   9.681  17.975  0.00  0.00    +0.000 C 
BRANCH  15  16
ATOM     16  N   UNL     1       1.791   9.151  19.111  0.00  0.00    +0.000 NA
ATOM     17  H   UNL     1       1.173   9.123  19.922  0.00  0.00    +0.000 HD
BRANCH  16  18
ATOM     18  C   UNL     1       2.267   7.797  18.801  0.00  0.00    +0.000 C 
BRANCH  18  19
ATOM     19  C   UNL     1       2.215   6.845  20.018  0.00  0.00    +0.000 C 
ATOM     20  C   UNL     1       1.251   7.329  21.106  0.00  0.00    +0.000 C 
BRANCH  19  21
ATOM     21  C   UNL     1       1.868   5.433  19.563  0.00  0.00    +0.000 A 
ATOM     22  C   UNL     1       2.133   5.046  18.242  0.00  0.00    +0.000 A 
ATOM     23  C   UNL     1       1.790   3.770  17.789  0.00  0.00    +0.000 A 
ATOM     24  C   UNL     1       1.177   2.864  18.652  0.00  0.00    +0.000 A 
ATOM     25  C   UNL     1       0.911   3.231  19.968  0.00  0.00    +0.000 A 
ATOM     26  C   UNL     1       1.258   4.505  20.424  0.00  0.00    +0.000 A 
ENDBRANCH  19  21
ENDBRANCH  18  19
ENDBRANCH  16  18
ENDBRANCH  15  16
ENDBRANCH   6  15
BRANCH   8  27
ATOM     27  C   UNL     1      -1.389  13.487  20.338  0.00  0.00    +0.000 C 
BRANCH  27  28
ATOM     28  C   UNL     1      -2.289  13.218  21.532  0.00  0.00    +0.000 A 
ATOM     29  C   UNL     1      -1.912  12.229  22.464  0.00  0.00    +0.000 A 
ATOM     30  C   UNL     1      -2.724  11.892  23.546  0.00  0.00    +0.000 A 
ATOM     31  C   UNL     1      -3.931  12.548  23.732  0.00  0.00    +0.000 A 
ATOM     32  C   UNL     1      -4.303  13.568  22.859  0.00  0.00    +0.000 A 
ATOM     33  C   UNL     1      -3.488  13.929  21.769  0.00  0.00    +0.000 A 
ATOM     34  C   UNL     1      -3.938  15.072  20.901  0.00  0.00    +0.000 C 
ENDBRANCH  27  28
ENDBRANCH   8  27
TORSDOF 9
ENDMDL
MODEL 2
REMARK VINA RESULT:      -7.9      0.555      1.147
REMARK  Name = 
REMARK  12 active torsions:
REMARK  status: ('A' for Active; 'I' for Inactive)
REMARK    1  A    between atoms: C_1  and  C_2
REMARK    2  A    between atoms: C_6  and  C_7
REMARK    3  A    between atoms: C_7  and  N_8
REMARK    4  A    between atoms: N_8  and  C_9
REMARK    5  A    between atoms: C_9  and  C_10
REMARK    6  A    between atoms: C_10  and  C_11
REMARK    7  A    between atoms: C_10  and  C_12
REMARK    8  A    between atoms: C_18  and  C_19
REMARK    9  A    between atoms: C_19  and  O_21
REMARK   10  A    between atoms: N_22  and  C_23
REMARK   11  A    between atoms: C_23  and  C_24
REMARK   12  A    between atoms: C_29  and  C_30
REMARK                            x       y       z     vdW  Elec       q    Type
REMARK                         _______ _______ _______ _____ _____    ______ ____
ROOT
ATOM      1  C   UNL     1      -5.404  11.366  17.301  0.00  0.00    +0.000 C 
ATOM      2  C   UNL     1      -3.947  11.135  17.582  0.00  0.00    +0.000 A 
ATOM      3  C   UNL     1      -3.245  10.139  16.905  0.00  0.00    +0.000 A 
ATOM      4  C   UNL     1      -1.888   9.928  17.158  0.00  0.00    +0.000 A 
ATOM      5  C   UNL     1      -1.218  10.713  18.118  0.00  0.00    +0.000 A 
ATOM      6  C   UNL     1       0.124  10.698  18.625  0.00  0.00    +0.000 A 
ATOM      7  C   UNL     1       0.169  11.620  19.679  0.00  0.00    +0.000 A 
ATOM      8  N   UNL     1      -1.026  12.333  19.640  0.00  0.00    +0.000 N 
ATOM      9  C   UNL     1      -1.924  11.704  18.789  0.00  0.00    +0.000 A 
ATOM     10  C   UNL     1      -3.291  11.934  18.531  0.00  0.00    +0.000 A 
ENDROOT
BRANCH   7  11
ATOM     11  C   UNL     1       1.191  11.796  20.690  0.00  0.00    +0.000 C 
ATOM     12  O   UNL     1       1.949  12.746  20.829  0.00  0.00    +0.000 OA
BRANCH  11  13
ATOM     13  O   UNL     1       1.207  10.805  21.598  0.00  0.00    +0.000 OA
ATOM     14  H   UNL     1       2.151  10.545  21.634  0.00  0.00    +0.000 HD
ENDBRANCH  11  13
ENDBRANCH   7  11
BRANCH   6  15
ATOM     15  C   UNL     1       1.178   9.733  18.172  0.00  0.00    +0.000 C 
BRANCH  15  16
ATOM     16  N   UNL     1       1.338   8.689  19.190  0.00  0.00    +0.000 NA
ATOM     17  H   UNL     1       0.438   8.224  19.311  0.00  0.00    +0.000 HD
BRANCH  16  18
ATOM     18  C   UNL     1       2.345   7.716  18.750  0.00  0.00    +0.000 C 
BRANCH  18  19
ATOM     19  C   UNL     1       2.509   6.531  19.730  0.00  0.00    +0.000 C 
ATOM     20  C   UNL     1       1.501   6.575  20.883  0.00  0.00    +0.000 C 
BRANCH  19  21
ATOM     21  C   UNL     1       2.423   5.211  18.974  0.00  0.00    +0.000 A 
ATOM     22  C   UNL     1       1.472   4.254  19.358  0.00  0.00    +0.000 A 
ATOM     23  C   UNL     1       1.397   3.021  18.706  0.00  0.00    +0.000 A 
ATOM     24  C   UNL     1       2.272   2.729  17.662  0.00  0.00    +0.000 A 
ATOM     25  C   UNL     1       3.218   3.670  17.266  0.00  0.00    +0.000 A 
ATOM     26  C   UNL     1       3.291   4.905  17.913  0.00  0.00    +0.000 A 
ENDBRANCH  19  21
ENDBRANCH  18  19
ENDBRANCH  16  18
ENDBRANCH  15  16
ENDBRANCH   6  15
BRANCH   8  27
ATOM     27  C   UNL     1      -1.342  13.550  20.405  0.00  0.00    +0.000 C 
BRANCH  27  28
ATOM     28  C   UNL     1      -2.261  13.271  21.583  0.00  0.00    +0.000 A 
ATOM     29  C   UNL     1      -1.915  12.252  22.494  0.00  0.00    +0.000 A 
ATOM     30  C   UNL     1      -2.746  11.907  23.559  0.00  0.00    +0.000 A 
ATOM     31  C   UNL     1      -3.941  12.584  23.749  0.00  0.00    +0.000 A 
ATOM     32  C   UNL     1      -4.281  13.633  22.897  0.00  0.00    +0.000 A 
ATOM     33  C   UNL     1      -3.446  14.002  21.825  0.00  0.00    +0.000 A 
ATOM     34  C   UNL     1      -3.862  15.176  20.981  0.00  0.00    +0.000 C 
ENDBRANCH  27  28
ENDBRANCH   8  27
TORSDOF 9
ENDMDL
MODEL 3
REMARK VINA RESULT:      -7.7      2.855      9.171
REMARK  Name = 
REMARK  12 active torsions:
REMARK  status: ('A' for Active; 'I' for Inactive)
REMARK    1  A    between atoms: C_1  and  C_2
REMARK    2  A    between atoms: C_6  and  C_7
REMARK    3  A    between atoms: C_7  and  N_8
REMARK    4  A    between atoms: N_8  and  C_9
REMARK    5  A    between atoms: C_9  and  C_10
REMARK    6  A    between atoms: C_10  and  C_11
REMARK    7  A    between atoms: C_10  and  C_12
REMARK    8  A    between atoms: C_18  and  C_19
REMARK    9  A    between atoms: C_19  and  O_21
REMARK   10  A    between atoms: N_22  and  C_23
REMARK   11  A    between atoms: C_23  and  C_24
REMARK   12  A    between atoms: C_29  and  C_30
REMARK                            x       y       z     vdW  Elec       q    Type
REMARK                         _______ _______ _______ _____ _____    ______ ____
ROOT
ATOM      1  C   UNL     1       3.299   1.448  18.898  0.00  0.00    +0.000 C 
ATOM      2  C   UNL     1       2.879   2.845  19.251  0.00  0.00    +0.000 A 
ATOM      3  C   UNL     1       2.088   3.084  20.374  0.00  0.00    +0.000 A 
ATOM      4  C   UNL     1       1.704   4.384  20.711  0.00  0.00    +0.000 A 
ATOM      5  C   UNL     1       2.098   5.469  19.902  0.00  0.00    +0.000 A 
ATOM      6  C   UNL     1       1.823   6.876  19.955  0.00  0.00    +0.000 A 
ATOM      7  C   UNL     1       2.367   7.439  18.794  0.00  0.00    +0.000 A 
ATOM      8  N   UNL     1       3.149   6.454  18.198  0.00  0.00    +0.000 N 
ATOM      9  C   UNL     1       2.886   5.223  18.784  0.00  0.00    +0.000 A 
ATOM     10  C   UNL     1       3.291   3.917  18.443  0.00  0.00    +0.000 A 
ENDROOT
BRANCH   7  11
ATOM     11  C   UNL     1       2.142   8.754  18.229  0.00  0.00    +0.000 C 
ATOM     12  O   UNL     1       2.792   9.772  18.421  0.00  0.00    +0.000 OA
BRANCH  11  13
ATOM     13  O   UNL     1       1.136   8.776  17.337  0.00  0.00    +0.000 OA
ATOM     14  H   UNL     1       1.393   8.089  16.686  0.00  0.00    +0.000 HD
ENDBRANCH  11  13
ENDBRANCH   7  11
BRANCH   6  15
ATOM     15  C   UNL     1       0.965   7.520  21.003  0.00  0.00    +0.000 C 
BRANCH  15  16
ATOM     16  N   UNL     1       1.805   8.378  21.846  0.00  0.00    +0.000 NA
ATOM     17  H   UNL     1       2.765   8.310  21.509  0.00  0.00    +0.000 HD
BRANCH  16  18
ATOM     18  C   UNL     1       1.343   9.768  21.756  0.00  0.00    +0.000 C 
BRANCH  18  19
ATOM     19  C   UNL     1      -0.196   9.888  21.660  0.00  0.00    +0.000 C 
ATOM     20  C   UNL     1      -0.836  10.353  22.972  0.00  0.00    +0.000 C 
BRANCH  19  21
ATOM     21  C   UNL     1      -0.579  10.805  20.505  0.00  0.00    +0.000 A 
ATOM     22  C   UNL     1      -1.102  10.254  19.326  0.00  0.00    +0.000 A 
ATOM     23  C   UNL     1      -1.426  11.069  18.239  0.00  0.00    +0.000 A 
ATOM     24  C   UNL     1      -1.232  12.446  18.317  0.00  0.00    +0.000 A 
ATOM     25  C   UNL     1      -0.718  13.009  19.482  0.00  0.00    +0.000 A 
ATOM     26  C   UNL     1      -0.398  12.196  20.571  0.00  0.00    +0.000 A 
ENDBRANCH  19  21
ENDBRANCH  18  19
ENDBRANCH  16  18
ENDBRANCH  15  16
ENDBRANCH   6  15
BRANCH   8  27
ATOM     27  C   UNL     1       4.091   6.642  17.083  0.00  0.00    +0.000 C 
BRANCH  27  28
ATOM     28  C   UNL     1       5.404   5.908  17.303  0.00  0.00    +0.000 A 
ATOM     29  C   UNL     1       6.113   6.122  18.503  0.00  0.00    +0.000 A 
ATOM     30  C   UNL     1       7.352   5.528  18.738  0.00  0.00    +0.000 A 
ATOM     31  C   UNL     1       7.907   4.689  17.784  0.00  0.00    +0.000 A 
ATOM     32  C   UNL     1       7.201   4.416  16.614  0.00  0.00    +0.000 A 
ATOM     33  C   UNL     1       5.944   4.999  16.366  0.00  0.00    +0.000 A 
ATOM     34  C   UNL     1       5.227   4.615  15.101  0.00  0.00    +0.000 C 
ENDBRANCH  27  28
ENDBRANCH   8  27
TORSDOF 9
ENDMDL
MODEL 4
REMARK VINA RESULT:      -7.6      2.289      8.746
REMARK  Name = 
REMARK  12 active torsions:
REMARK  status: ('A' for Active; 'I' for Inactive)
REMARK    1  A    between atoms: C_1  and  C_2
REMARK    2  A    between atoms: C_6  and  C_7
REMARK    3  A    between atoms: C_7  and  N_8
REMARK    4  A    between atoms: N_8  and  C_9
REMARK    5  A    between atoms: C_9  and  C_10
REMARK    6  A    between atoms: C_10  and  C_11
REMARK    7  A    between atoms: C_10  and  C_12
REMARK    8  A    between atoms: C_18  and  C_19
REMARK    9  A    between atoms: C_19  and  O_21
REMARK   10  A    between atoms: N_22  and  C_23
REMARK   11  A    between atoms: C_23  and  C_24
REMARK   12  A    between atoms: C_29  and  C_30
REMARK                            x       y       z     vdW  Elec       q    Type
REMARK                         _______ _______ _______ _____ _____    ______ ____
ROOT
ATOM      1  C   UNL     1       6.805   4.701  16.782  0.00  0.00    +0.000 C 
ATOM      2  C   UNL     1       5.656   5.601  17.133  0.00  0.00    +0.000 A 
ATOM      3  C   UNL     1       5.339   6.691  16.323  0.00  0.00    +0.000 A 
ATOM      4  C   UNL     1       4.265   7.525  16.641  0.00  0.00    +0.000 A 
ATOM      5  C   UNL     1       3.501   7.282  17.801  0.00  0.00    +0.000 A 
ATOM      6  C   UNL     1       2.401   7.975  18.407  0.00  0.00    +0.000 A 
ATOM      7  C   UNL     1       2.151   7.344  19.633  0.00  0.00    +0.000 A 
ATOM      8  N   UNL     1       2.904   6.174  19.643  0.00  0.00    +0.000 N 
ATOM      9  C   UNL     1       3.824   6.193  18.604  0.00  0.00    +0.000 A 
ATOM     10  C   UNL     1       4.897   5.337  18.283  0.00  0.00    +0.000 A 
ENDROOT
BRANCH   7  11
ATOM     11  C   UNL     1       1.342   7.802  20.743  0.00  0.00    +0.000 C 
ATOM     12  O   UNL     1       0.206   7.453  21.035  0.00  0.00    +0.000 OA
BRANCH  11  13
ATOM     13  O   UNL     1       1.997   8.648  21.556  0.00  0.00    +0.000 OA
ATOM     14  H   UNL     1       2.216   8.093  22.334  0.00  0.00    +0.000 HD
ENDBRANCH  11  13
ENDBRANCH   7  11
BRANCH   6  15
ATOM     15  C   UNL     1       1.795   9.229  17.852  0.00  0.00    +0.000 C 
BRANCH  15  16
ATOM     16  N   UNL     1       1.826  10.271  18.885  0.00  0.00    +0.000 NA
ATOM     17  H   UNL     1       2.689  10.802  18.775  0.00  0.00    +0.000 HD
BRANCH  16  18
ATOM     18  C   UNL     1       0.670  11.161  18.727  0.00  0.00    +0.000 C 
BRANCH  18  19
ATOM     19  C   UNL     1      -0.619  10.595  19.367  0.00  0.00    +0.000 C 
ATOM     20  C   UNL     1      -0.987  11.298  20.678  0.00  0.00    +0.000 C 
BRANCH  19  21
ATOM     21  C   UNL     1      -1.769  10.655  18.369  0.00  0.00    +0.000 A 
ATOM     22  C   UNL     1      -1.683   9.934  17.169  0.00  0.00    +0.000 A 
ATOM     23  C   UNL     1      -2.706  10.002  16.220  0.00  0.00    +0.000 A 
ATOM     24  C   UNL     1      -3.828  10.791  16.459  0.00  0.00    +0.000 A 
ATOM     25  C   UNL     1      -3.931  11.509  17.648  0.00  0.00    +0.000 A 
ATOM     26  C   UNL     1      -2.911  11.439  18.599  0.00  0.00    +0.000 A 
ENDBRANCH  19  21
ENDBRANCH  18  19
ENDBRANCH  16  18
ENDBRANCH  15  16
ENDBRANCH   6  15
BRANCH   8  27
ATOM     27  C   UNL     1       2.800   5.076  20.619  0.00  0.00    +0.000 C 
BRANCH  27  28
ATOM     28  C   UNL     1       2.246   3.803  20.002  0.00  0.00    +0.000 A 
ATOM     29  C   UNL     1       0.931   3.806  19.493  0.00  0.00    +0.000 A 
ATOM     30  C   UNL     1       0.343   2.655  18.971  0.00  0.00    +0.000 A 
ATOM     31  C   UNL     1       1.064   1.471  18.932  0.00  0.00    +0.000 A 
ATOM     32  C   UNL     1       2.383   1.453  19.376  0.00  0.00    +0.000 A 
ATOM     33  C   UNL     1       2.996   2.610  19.894  0.00  0.00    +0.000 A 
ATOM     34  C   UNL     1       4.438   2.518  20.309  0.00  0.00    +0.000 C 
ENDBRANCH  27  28
ENDBRANCH   8  27
TORSDOF 9
ENDMDL
MODEL 5
REMARK VINA RESULT:      -7.4      0.583      1.292
REMARK  Name = 
REMARK  12 active torsions:
REMARK  status: ('A' for Active; 'I' for Inactive)
REMARK    1  A    between atoms: C_1  and  C_2
REMARK    2  A    between atoms: C_6  and  C_7
REMARK    3  A    between atoms: C_7  and  N_8
REMARK    4  A    between atoms: N_8  and  C_9
REMARK    5  A    between atoms: C_9  and  C_10
REMARK    6  A    between atoms: C_10  and  C_11
REMARK    7  A    between atoms: C_10  and  C_12
REMARK    8  A    between atoms: C_18  and  C_19
REMARK    9  A    between atoms: C_19  and  O_21
REMARK   10  A    between atoms: N_22  and  C_23
REMARK   11  A    between atoms: C_23  and  C_24
REMARK   12  A    between atoms: C_29  and  C_30
REMARK                            x       y       z     vdW  Elec       q    Type
REMARK                         _______ _______ _______ _____ _____    ______ ____
ROOT
ATOM      1  C   UNL     1      -5.456  10.930  17.783  0.00  0.00    +0.000 C 
ATOM      2  C   UNL     1      -3.963  10.826  17.893  0.00  0.00    +0.000 A 
ATOM      3  C   UNL     1      -3.264   9.869  17.160  0.00  0.00    +0.000 A 
ATOM      4  C   UNL     1      -1.873   9.776  17.253  0.00  0.00    +0.000 A 
ATOM      5  C   UNL     1      -1.164  10.642  18.109  0.00  0.00    +0.000 A 
ATOM      6  C   UNL     1       0.225  10.751  18.452  0.00  0.00    +0.000 A 
ATOM      7  C   UNL     1       0.315  11.706  19.474  0.00  0.00    +0.000 A 
ATOM      8  N   UNL     1      -0.931  12.319  19.562  0.00  0.00    +0.000 N 
ATOM      9  C   UNL     1      -1.867  11.594  18.838  0.00  0.00    +0.000 A 
ATOM     10  C   UNL     1      -3.269  11.705  18.740  0.00  0.00    +0.000 A 
ENDROOT
BRANCH   7  11
ATOM     11  C   UNL     1       1.430  11.995  20.352  0.00  0.00    +0.000 C 
ATOM     12  O   UNL     1       2.260  12.887  20.238  0.00  0.00    +0.000 OA
BRANCH  11  13
ATOM     13  O   UNL     1       1.458  11.209  21.442  0.00  0.00    +0.000 OA
ATOM     14  H   UNL     1       0.609  10.721  21.392  0.00  0.00    +0.000 HD
ENDBRANCH  11  13
ENDBRANCH   7  11
BRANCH   6  15
ATOM     15  C   UNL     1       1.296   9.860  17.898  0.00  0.00    +0.000 C 
BRANCH  15  16
ATOM     16  N   UNL     1       2.080   9.308  19.009  0.00  0.00    +0.000 NA
ATOM     17  H   UNL     1       1.940   9.906  19.823  0.00  0.00    +0.000 HD
BRANCH  16  18
ATOM     18  C   UNL     1       1.626   7.945  19.308  0.00  0.00    +0.000 C 
BRANCH  18  19
ATOM     19  C   UNL     1       2.187   6.892  18.324  0.00  0.00    +0.000 C 
ATOM     20  C   UNL     1       3.679   7.087  18.037  0.00  0.00    +0.000 C 
BRANCH  19  21
ATOM     21  C   UNL     1       1.905   5.488  18.844  0.00  0.00    +0.000 A 
ATOM     22  C   UNL     1       1.973   5.233  20.221  0.00  0.00    +0.000 A 
ATOM     23  C   UNL     1       1.756   3.946  20.720  0.00  0.00    +0.000 A 
ATOM     24  C   UNL     1       1.469   2.899  19.849  0.00  0.00    +0.000 A 
ATOM     25  C   UNL     1       1.394   3.136  18.479  0.00  0.00    +0.000 A 
ATOM     26  C   UNL     1       1.605   4.423  17.979  0.00  0.00    +0.000 A 
ENDBRANCH  19  21
ENDBRANCH  18  19
ENDBRANCH  16  18
ENDBRANCH  15  16
ENDBRANCH   6  15
BRANCH   8  27
ATOM     27  C   UNL     1      -1.256  13.530  20.333  0.00  0.00    +0.000 C 
BRANCH  27  28
ATOM     28  C   UNL     1      -2.135  13.232  21.537  0.00  0.00    +0.000 A 
ATOM     29  C   UNL     1      -1.752  12.207  22.426  0.00  0.00    +0.000 A 
ATOM     30  C   UNL     1      -2.546  11.844  23.513  0.00  0.00    +0.000 A 
ATOM     31  C   UNL     1      -3.740  12.509  23.747  0.00  0.00    +0.000 A 
ATOM     32  C   UNL     1      -4.115  13.563  22.917  0.00  0.00    +0.000 A 
ATOM     33  C   UNL     1      -3.318  13.950  21.822  0.00  0.00    +0.000 A 
ATOM     34  C   UNL     1      -3.771  15.128  21.004  0.00  0.00    +0.000 C 
ENDBRANCH  27  28
ENDBRANCH   8  27
TORSDOF 9
ENDMDL
MODEL 6
REMARK VINA RESULT:      -7.3      1.663      2.442
REMARK  Name = 
REMARK  12 active torsions:
REMARK  status: ('A' for Active; 'I' for Inactive)
REMARK    1  A    between atoms: C_1  and  C_2
REMARK    2  A    between atoms: C_6  and  C_7
REMARK    3  A    between atoms: C_7  and  N_8
REMARK    4  A    between atoms: N_8  and  C_9
REMARK    5  A    between atoms: C_9  and  C_10
REMARK    6  A    between atoms: C_10  and  C_11
REMARK    7  A    between atoms: C_10  and  C_12
REMARK    8  A    between atoms: C_18  and  C_19
REMARK    9  A    between atoms: C_19  and  O_21
REMARK   10  A    between atoms: N_22  and  C_23
REMARK   11  A    between atoms: C_23  and  C_24
REMARK   12  A    between atoms: C_29  and  C_30
REMARK                            x       y       z     vdW  Elec       q    Type
REMARK                         _______ _______ _______ _____ _____    ______ ____
ROOT
ATOM      1  C   UNL     1      -3.315  10.791  15.667  0.00  0.00    +0.000 C 
ATOM      2  C   UNL     1      -2.483  10.769  16.917  0.00  0.00    +0.000 A 
ATOM      3  C   UNL     1      -1.390   9.911  17.024  0.00  0.00    +0.000 A 
ATOM      4  C   UNL     1      -0.609   9.895  18.182  0.00  0.00    +0.000 A 
ATOM      5  C   UNL     1      -0.933  10.738  19.264  0.00  0.00    +0.000 A 
ATOM      6  C   UNL     1      -0.369  10.905  20.573  0.00  0.00    +0.000 A 
ATOM      7  C   UNL     1      -1.209  11.788  21.265  0.00  0.00    +0.000 A 
ATOM      8  N   UNL     1      -2.094  12.316  20.331  0.00  0.00    +0.000 N 
ATOM      9  C   UNL     1      -2.025  11.591  19.150  0.00  0.00    +0.000 A 
ATOM     10  C   UNL     1      -2.811  11.625  17.981  0.00  0.00    +0.000 A 
ENDROOT
BRANCH   7  11
ATOM     11  C   UNL     1      -1.250  12.079  22.684  0.00  0.00    +0.000 C 
ATOM     12  O   UNL     1      -0.762  13.040  23.264  0.00  0.00    +0.000 OA
BRANCH  11  13
ATOM     13  O   UNL     1      -1.990  11.199  23.379  0.00  0.00    +0.000 OA
ATOM     14  H   UNL     1      -2.422  11.753  24.063  0.00  0.00    +0.000 HD
ENDBRANCH  11  13
ENDBRANCH   7  11
BRANCH   6  15
ATOM     15  C   UNL     1       0.802  10.122  21.084  0.00  0.00    +0.000 C 
BRANCH  15  16
ATOM     16  N   UNL     1       0.516   8.690  20.946  0.00  0.00    +0.000 NA
ATOM     17  H   UNL     1      -0.156   8.573  20.188  0.00  0.00    +0.000 HD
BRANCH  16  18
ATOM     18  C   UNL     1       1.753   7.964  20.632  0.00  0.00    +0.000 C 
BRANCH  18  19
ATOM     19  C   UNL     1       1.713   7.275  19.248  0.00  0.00    +0.000 C 
ATOM     20  C   UNL     1       2.804   7.786  18.302  0.00  0.00    +0.000 C 
BRANCH  19  21
ATOM     21  C   UNL     1       1.792   5.763  19.414  0.00  0.00    +0.000 A 
ATOM     22  C   UNL     1       2.108   4.960  18.308  0.00  0.00    +0.000 A 
ATOM     23  C   UNL     1       2.151   3.569  18.424  0.00  0.00    +0.000 A 
ATOM     24  C   UNL     1       1.878   2.962  19.648  0.00  0.00    +0.000 A 
ATOM     25  C   UNL     1       1.567   3.744  20.756  0.00  0.00    +0.000 A 
ATOM     26  C   UNL     1       1.529   5.136  20.643  0.00  0.00    +0.000 A 
ENDBRANCH  19  21
ENDBRANCH  18  19
ENDBRANCH  16  18
ENDBRANCH  15  16
ENDBRANCH   6  15
BRANCH   8  27
ATOM     27  C   UNL     1      -3.013  13.447  20.541  0.00  0.00    +0.000 C 
BRANCH  27  28
ATOM     28  C   UNL     1      -4.372  13.001  21.058  0.00  0.00    +0.000 A 
ATOM     29  C   UNL     1      -5.181  12.187  20.238  0.00  0.00    +0.000 A 
ATOM     30  C   UNL     1      -6.461  11.796  20.628  0.00  0.00    +0.000 A 
ATOM     31  C   UNL     1      -6.960  12.199  21.858  0.00  0.00    +0.000 A 
ATOM     32  C   UNL     1      -6.161  12.956  22.710  0.00  0.00    +0.000 A 
ATOM     33  C   UNL     1      -4.861  13.349  22.337  0.00  0.00    +0.000 A 
ATOM     34  C   UNL     1      -4.046  14.125  23.334  0.00  0.00    +0.000 C 
ENDBRANCH  27  28
ENDBRANCH   8  27
TORSDOF 9
ENDMDL
MODEL 7
REMARK VINA RESULT:      -7.3      1.809      4.163
REMARK  Name = 
REMARK  12 active torsions:
REMARK  status: ('A' for Active; 'I' for Inactive)
REMARK    1  A    between atoms: C_1  and  C_2
REMARK    2  A    between atoms: C_6  and  C_7
REMARK    3  A    between atoms: C_7  and  N_8
REMARK    4  A    between atoms: N_8  and  C_9
REMARK    5  A    between atoms: C_9  and  C_10
REMARK    6  A    between atoms: C_10  and  C_11
REMARK    7  A    between atoms: C_10  and  C_12
REMARK    8  A    between atoms: C_18  and  C_19
REMARK    9  A    between atoms: C_19  and  O_21
REMARK   10  A    between atoms: N_22  and  C_23
REMARK   11  A    between atoms: C_23  and  C_24
REMARK   12  A    between atoms: C_29  and  C_30
REMARK                            x       y       z     vdW  Elec       q    Type
REMARK                         _______ _______ _______ _____ _____    ______ ____
ROOT
ATOM      1  C   UNL     1      -2.342  11.923  23.826  0.00  0.00    +0.000 C 
ATOM      2  C   UNL     1      -1.438  11.133  22.923  0.00  0.00    +0.000 A 
ATOM      3  C   UNL     1      -0.764  10.011  23.403  0.00  0.00    +0.000 A 
ATOM      4  C   UNL     1       0.070   9.269  22.564  0.00  0.00    +0.000 A 
ATOM      5  C   UNL     1       0.253   9.662  21.223  0.00  0.00    +0.000 A 
ATOM      6  C   UNL     1       1.067   9.149  20.159  0.00  0.00    +0.000 A 
ATOM      7  C   UNL     1       0.947  10.046  19.089  0.00  0.00    +0.000 A 
ATOM      8  N   UNL     1      -0.087  10.920  19.412  0.00  0.00    +0.000 N 
ATOM      9  C   UNL     1      -0.422  10.783  20.752  0.00  0.00    +0.000 A 
ATOM     10  C   UNL     1      -1.276  11.530  21.587  0.00  0.00    +0.000 A 
ENDROOT
BRANCH   7  11
ATOM     11  C   UNL     1       1.755  10.145  17.891  0.00  0.00    +0.000 C 
ATOM     12  O   UNL     1       1.986   9.268  17.070  0.00  0.00    +0.000 OA
BRANCH  11  13
ATOM     13  O   UNL     1       2.212  11.389  17.669  0.00  0.00    +0.000 OA
ATOM     14  H   UNL     1       3.151  11.247  17.425  0.00  0.00    +0.000 HD
ENDBRANCH  11  13
ENDBRANCH   7  11
BRANCH   6  15
ATOM     15  C   UNL     1       1.976   7.965  20.298  0.00  0.00    +0.000 C 
BRANCH  15  16
ATOM     16  N   UNL     1       2.053   7.269  19.009  0.00  0.00    +0.000 NA
ATOM     17  H   UNL     1       2.031   7.970  18.269  0.00  0.00    +0.000 HD
BRANCH  16  18
ATOM     18  C   UNL     1       3.303   6.503  18.933  0.00  0.00    +0.000 C 
BRANCH  18  19
ATOM     19  C   UNL     1       3.102   5.071  18.384  0.00  0.00    +0.000 C 
ATOM     20  C   UNL     1       4.364   4.507  17.725  0.00  0.00    +0.000 C 
BRANCH  19  21
ATOM     21  C   UNL     1       2.601   4.152  19.491  0.00  0.00    +0.000 A 
ATOM     22  C   UNL     1       3.520   3.382  20.220  0.00  0.00    +0.000 A 
ATOM     23  C   UNL     1       3.085   2.503  21.215  0.00  0.00    +0.000 A 
ATOM     24  C   UNL     1       1.725   2.383  21.493  0.00  0.00    +0.000 A 
ATOM     25  C   UNL     1       0.801   3.144  20.782  0.00  0.00    +0.000 A 
ATOM     26  C   UNL     1       1.235   4.026  19.791  0.00  0.00    +0.000 A 
ENDBRANCH  19  21
ENDBRANCH  18  19
ENDBRANCH  16  18
ENDBRANCH  15  16
ENDBRANCH   6  15
BRANCH   8  27
ATOM     27  C   UNL     1      -0.725  11.889  18.506  0.00  0.00    +0.000 C 
BRANCH  27  28
ATOM     28  C   UNL     1      -2.213  11.628  18.334  0.00  0.00    +0.000 A 
ATOM     29  C   UNL     1      -3.135  12.476  18.980  0.00  0.00    +0.000 A 
ATOM     30  C   UNL     1      -4.510  12.252  18.912  0.00  0.00    +0.000 A 
ATOM     31  C   UNL     1      -4.998  11.180  18.180  0.00  0.00    +0.000 A 
ATOM     32  C   UNL     1      -4.112  10.360  17.486  0.00  0.00    +0.000 A 
ATOM     33  C   UNL     1      -2.722  10.580  17.534  0.00  0.00    +0.000 A 
ATOM     34  C   UNL     1      -1.838   9.678  16.718  0.00  0.00    +0.000 C 
ENDBRANCH  27  28
ENDBRANCH   8  27
TORSDOF 9
ENDMDL
MODEL 8
REMARK VINA RESULT:      -7.3      1.450      2.402
REMARK  Name = 
REMARK  12 active torsions:
REMARK  status: ('A' for Active; 'I' for Inactive)
REMARK    1  A    between atoms: C_1  and  C_2
REMARK    2  A    between atoms: C_6  and  C_7
REMARK    3  A    between atoms: C_7  and  N_8
REMARK    4  A    between atoms: N_8  and  C_9
REMARK    5  A    between atoms: C_9  and  C_10
REMARK    6  A    between atoms: C_10  and  C_11
REMARK    7  A    between atoms: C_10  and  C_12
REMARK    8  A    between atoms: C_18  and  C_19
REMARK    9  A    between atoms: C_19  and  O_21
REMARK   10  A    between atoms: N_22  and  C_23
REMARK   11  A    between atoms: C_23  and  C_24
REMARK   12  A    between atoms: C_29  and  C_30
REMARK                            x       y       z     vdW  Elec       q    Type
REMARK                         _______ _______ _______ _____ _____    ______ ____
ROOT
ATOM      1  C   UNL     1      -5.362  10.854  17.825  0.00  0.00    +0.000 C 
ATOM      2  C   UNL     1      -3.867  10.848  17.972  0.00  0.00    +0.000 A 
ATOM      3  C   UNL     1      -3.088   9.952  17.242  0.00  0.00    +0.000 A 
ATOM      4  C   UNL     1      -1.697   9.951  17.369  0.00  0.00    +0.000 A 
ATOM      5  C   UNL     1      -1.069  10.847  18.257  0.00  0.00    +0.000 A 
ATOM      6  C   UNL     1       0.301  11.042  18.638  0.00  0.00    +0.000 A 
ATOM      7  C   UNL     1       0.301  11.983  19.676  0.00  0.00    +0.000 A 
ATOM      8  N   UNL     1      -0.985  12.510  19.742  0.00  0.00    +0.000 N 
ATOM      9  C   UNL     1      -1.852  11.737  18.983  0.00  0.00    +0.000 A 
ATOM     10  C   UNL     1      -3.255  11.756  18.850  0.00  0.00    +0.000 A 
ENDROOT
BRANCH   7  11
ATOM     11  C   UNL     1       1.372  12.331  20.587  0.00  0.00    +0.000 C 
ATOM     12  O   UNL     1       1.971  13.395  20.667  0.00  0.00    +0.000 OA
BRANCH  11  13
ATOM     13  O   UNL     1       1.642  11.359  21.476  0.00  0.00    +0.000 OA
ATOM     14  H   UNL     1       2.618  11.278  21.436  0.00  0.00    +0.000 HD
ENDBRANCH  11  13
ENDBRANCH   7  11
BRANCH   6  15
ATOM     15  C   UNL     1       1.442  10.235  18.097  0.00  0.00    +0.000 C 
BRANCH  15  16
ATOM     16  N   UNL     1       1.513   8.962  18.825  0.00  0.00    +0.000 NA
ATOM     17  H   UNL     1       0.567   8.706  19.107  0.00  0.00    +0.000 HD
BRANCH  16  18
ATOM     18  C   UNL     1       2.072   7.922  17.953  0.00  0.00    +0.000 C 
BRANCH  18  19
ATOM     19  C   UNL     1       3.030   6.963  18.696  0.00  0.00    +0.000 C 
ATOM     20  C   UNL     1       2.316   6.120  19.759  0.00  0.00    +0.000 C 
BRANCH  19  21
ATOM     21  C   UNL     1       3.766   6.079  17.697  0.00  0.00    +0.000 A 
ATOM     22  C   UNL     1       3.571   4.690  17.726  0.00  0.00    +0.000 A 
ATOM     23  C   UNL     1       4.261   3.854  16.846  0.00  0.00    +0.000 A 
ATOM     24  C   UNL     1       5.155   4.395  15.925  0.00  0.00    +0.000 A 
ATOM     25  C   UNL     1       5.356   5.772  15.880  0.00  0.00    +0.000 A 
ATOM     26  C   UNL     1       4.663   6.610  16.757  0.00  0.00    +0.000 A 
ENDBRANCH  19  21
ENDBRANCH  18  19
ENDBRANCH  16  18
ENDBRANCH  15  16
ENDBRANCH   6  15
BRANCH   8  27
ATOM     27  C   UNL     1      -1.409  13.683  20.524  0.00  0.00    +0.000 C 
BRANCH  27  28
ATOM     28  C   UNL     1      -2.613  13.388  21.404  0.00  0.00    +0.000 A 
ATOM     29  C   UNL     1      -3.867  13.928  21.052  0.00  0.00    +0.000 A 
ATOM     30  C   UNL     1      -4.994  13.745  21.851  0.00  0.00    +0.000 A 
ATOM     31  C   UNL     1      -4.900  13.003  23.018  0.00  0.00    +0.000 A 
ATOM     32  C   UNL     1      -3.686  12.411  23.361  0.00  0.00    +0.000 A 
ATOM     33  C   UNL     1      -2.541  12.575  22.559  0.00  0.00    +0.000 A 
ATOM     34  C   UNL     1      -1.282  11.865  22.974  0.00  0.00    +0.000 C 
ENDBRANCH  27  28
ENDBRANCH   8  27
TORSDOF 9
ENDMDL
MODEL 9
REMARK VINA RESULT:      -7.3      1.492      2.587
REMARK  Name = 
REMARK  12 active torsions:
REMARK  status: ('A' for Active; 'I' for Inactive)
REMARK    1  A    between atoms: C_1  and  C_2
REMARK    2  A    between atoms: C_6  and  C_7
REMARK    3  A    between atoms: C_7  and  N_8
REMARK    4  A    between atoms: N_8  and  C_9
REMARK    5  A    between atoms: C_9  and  C_10
REMARK    6  A    between atoms: C_10  and  C_11
REMARK    7  A    between atoms: C_10  and  C_12
REMARK    8  A    between atoms: C_18  and  C_19
REMARK    9  A    between atoms: C_19  and  O_21
REMARK   10  A    between atoms: N_22  and  C_23
REMARK   11  A    between atoms: C_23  and  C_24
REMARK   12  A    between atoms: C_29  and  C_30
REMARK                            x       y       z     vdW  Elec       q    Type
REMARK                         _______ _______ _______ _____ _____    ______ ____
ROOT
ATOM      1  C   UNL     1      -5.339  11.443  17.189  0.00  0.00    +0.000 C 
ATOM      2  C   UNL     1      -3.889  11.217  17.507  0.00  0.00    +0.000 A 
ATOM      3  C   UNL     1      -3.127  10.331  16.746  0.00  0.00    +0.000 A 
ATOM      4  C   UNL     1      -1.776  10.126  17.034  0.00  0.00    +0.000 A 
ATOM      5  C   UNL     1      -1.174  10.801  18.115  0.00  0.00    +0.000 A 
ATOM      6  C   UNL     1       0.145  10.758  18.678  0.00  0.00    +0.000 A 
ATOM      7  C   UNL     1       0.114  11.542  19.840  0.00  0.00    +0.000 A 
ATOM      8  N   UNL     1      -1.099  12.223  19.833  0.00  0.00    +0.000 N 
ATOM      9  C   UNL     1      -1.940  11.683  18.869  0.00  0.00    +0.000 A 
ATOM     10  C   UNL     1      -3.300  11.908  18.578  0.00  0.00    +0.000 A 
ENDROOT
BRANCH   7  11
ATOM     11  C   UNL     1       1.085  11.616  20.912  0.00  0.00    +0.000 C 
ATOM     12  O   UNL     1       1.794  12.567  21.214  0.00  0.00    +0.000 OA
BRANCH  11  13
ATOM     13  O   UNL     1       1.108  10.512  21.677  0.00  0.00    +0.000 OA
ATOM     14  H   UNL     1       0.450  10.706  22.377  0.00  0.00    +0.000 HD
ENDBRANCH  11  13
ENDBRANCH   7  11
BRANCH   6  15
ATOM     15  C   UNL     1       1.248   9.885  18.159  0.00  0.00    +0.000 C 
BRANCH  15  16
ATOM     16  N   UNL     1       1.221   8.606  18.878  0.00  0.00    +0.000 NA
ATOM     17  H   UNL     1       0.308   8.178  18.728  0.00  0.00    +0.000 HD
BRANCH  16  18
ATOM     18  C   UNL     1       2.275   7.725  18.362  0.00  0.00    +0.000 C 
BRANCH  18  19
ATOM     19  C   UNL     1       2.750   6.680  19.398  0.00  0.00    +0.000 C 
ATOM     20  C   UNL     1       1.835   6.607  20.625  0.00  0.00    +0.000 C 
BRANCH  19  21
ATOM     21  C   UNL     1       2.896   5.315  18.738  0.00  0.00    +0.000 A 
ATOM     22  C   UNL     1       4.155   4.699  18.692  0.00  0.00    +0.000 A 
ATOM     23  C   UNL     1       4.323   3.465  18.059  0.00  0.00    +0.000 A 
ATOM     24  C   UNL     1       3.235   2.832  17.465  0.00  0.00    +0.000 A 
ATOM     25  C   UNL     1       1.978   3.428  17.506  0.00  0.00    +0.000 A 
ATOM     26  C   UNL     1       1.807   4.659  18.142  0.00  0.00    +0.000 A 
ENDBRANCH  19  21
ENDBRANCH  18  19
ENDBRANCH  16  18
ENDBRANCH  15  16
ENDBRANCH   6  15
BRANCH   8  27
ATOM     27  C   UNL     1      -1.487  13.326  20.727  0.00  0.00    +0.000 C 
BRANCH  27  28
ATOM     28  C   UNL     1      -1.264  14.690  20.094  0.00  0.00    +0.000 A 
ATOM     29  C   UNL     1      -0.259  14.834  19.116  0.00  0.00    +0.000 A 
ATOM     30  C   UNL     1       0.036  16.070  18.544  0.00  0.00    +0.000 A 
ATOM     31  C   UNL     1      -0.680  17.195  18.925  0.00  0.00    +0.000 A 
ATOM     32  C   UNL     1      -1.716  17.071  19.847  0.00  0.00    +0.000 A 
ATOM     33  C   UNL     1      -2.035  15.827  20.426  0.00  0.00    +0.000 A 
ATOM     34  C   UNL     1      -3.197  15.771  21.377  0.00  0.00    +0.000 C 
ENDBRANCH  27  28
ENDBRANCH   8  27
TORSDOF 9
ENDMDL
