MODEL 1
REMARK VINA RESULT:      -7.5      0.000      0.000
REMARK  Name = 
REMARK  7 active torsions:
REMARK  status: ('A' for Active; 'I' for Inactive)
REMARK    1  A    between atoms: C_1  and  N_2
REMARK    2  A    between atoms: C_7  and  S_8
REMARK    3  A    between atoms: S_8  and  N_11
REMARK    4  A    between atoms: N_11  and  C_12
REMARK    5  A    between atoms: C_12  and  C_13
REMARK    6  A    between atoms: N_19  and  C_20
REMARK    7  A    between atoms: C_20  and  C_21
REMARK                            x       y       z     vdW  Elec       q    Type
REMARK                         _______ _______ _______ _____ _____    ______ ____
ROOT
ATOM      1  C   UNL     1       1.734   7.804  19.929  0.00  0.00    +0.000 C 
ATOM      2  N   UNL     1       2.301   6.607  19.333  0.00  0.00    +0.000 N 
ATOM      3  C   UNL     1       3.336   6.766  18.430  0.00  0.00    +0.000 A 
ATOM      4  O   UNL     1       3.837   7.847  18.131  0.00  0.00    +0.000 OA
ATOM      5  C   UNL     1       3.848   5.546  17.793  0.00  0.00    +0.000 A 
ATOM      6  C   UNL     1       4.838   5.670  16.808  0.00  0.00    +0.000 A 
ATOM      7  C   UNL     1       5.311   4.531  16.166  0.00  0.00    +0.000 A 
ATOM      8  C   UNL     1       4.809   3.275  16.506  0.00  0.00    +0.000 A 
ATOM      9  C   UNL     1       3.825   3.163  17.502  0.00  0.00    +0.000 A 
ATOM     10  C   UNL     1       3.334   4.302  18.165  0.00  0.00    +0.000 A 
ATOM     11  N   UNL     1       2.355   4.239  19.195  0.00  0.00    +0.000 N 
ATOM     12  C   UNL     1       1.807   5.384  19.768  0.00  0.00    +0.000 A 
ATOM     13  O   UNL     1       0.934   5.310  20.635  0.00  0.00    +0.000 OA
ENDROOT
BRANCH   7  14
ATOM     14  S   UNL     1       6.508   4.719  14.865  0.00  0.00    +0.000 S 
ATOM     15  O   UNL     1       6.104   5.865  14.082  0.00  0.00    +0.000 OA
ATOM     16  O   UNL     1       7.830   4.616  15.440  0.00  0.00    +0.000 OA
BRANCH  14  17
ATOM     17  N   UNL     1       6.195   3.351  13.930  0.00  0.00    +0.000 NA
ATOM     18  H   UNL     1       5.573   2.690  14.395  0.00  0.00    +0.000 HD
BRANCH  17  19
ATOM     19  C   UNL     1       6.130   3.465  12.463  0.00  0.00    +0.000 C 
ATOM     20  C   UNL     1       7.251   4.271  11.855  0.00  0.00    +0.000 C 
ATOM     21  C   UNL     1       5.629   2.253  11.703  0.00  0.00    +0.000 C 
ATOM     22  C   UNL     1       4.807   3.505  11.742  0.00  0.00    +0.000 C 
ENDBRANCH  17  19
ENDBRANCH  14  17
ENDBRANCH   7  14
BRANCH  11  23
ATOM     23  C   UNL     1       1.867   2.955  19.707  0.00  0.00    +0.000 C 
BRANCH  23  24
ATOM     24  C   UNL     1       2.248   2.700  21.108  0.00  0.00    +0.000 C 
ATOM     25  N   UNL     1       2.545   2.543  22.218  0.00  0.00    +0.000 NA
ENDBRANCH  23  24
ENDBRANCH  11  23
TORSDOF 5
ENDMDL
MODEL 2
REMARK VINA RESULT:      -7.5      1.396      3.107
REMARK  Name = 
REMARK  7 active torsions:
REMARK  status: ('A' for Active; 'I' for Inactive)
REMARK    1  A    between atoms: C_1  and  N_2
REMARK    2  A    between atoms: C_7  and  S_8
REMARK    3  A    between atoms: S_8  and  N_11
REMARK    4  A    between atoms: N_11  and  C_12
REMARK    5  A    between atoms: C_12  and  C_13
REMARK    6  A    between atoms: N_19  and  C_20
REMARK    7  A    between atoms: C_20  and  C_21
REMARK                            x       y       z     vdW  Elec       q    Type
REMARK                         _______ _______ _______ _____ _____    ______ ____
ROOT
ATOM      1  C   UNL     1       1.233   2.373  19.588  0.00  0.00    +0.000 C 
ATOM      2  N   UNL     1       2.025   3.474  19.069  0.00  0.00    +0.000 N 
ATOM      3  C   UNL     1       2.872   3.214  18.007  0.00  0.00    +0.000 A 
ATOM      4  O   UNL     1       2.967   2.126  17.446  0.00  0.00    +0.000 OA
ATOM      5  C   UNL     1       3.708   4.328  17.543  0.00  0.00    +0.000 A 
ATOM      6  C   UNL     1       4.642   4.086  16.526  0.00  0.00    +0.000 A 
ATOM      7  C   UNL     1       5.470   5.118  16.096  0.00  0.00    +0.000 A 
ATOM      8  C   UNL     1       5.364   6.384  16.669  0.00  0.00    +0.000 A 
ATOM      9  C   UNL     1       4.417   6.618  17.679  0.00  0.00    +0.000 A 
ATOM     10  C   UNL     1       3.569   5.589  18.126  0.00  0.00    +0.000 A 
ATOM     11  N   UNL     1       2.580   5.780  19.131  0.00  0.00    +0.000 N 
ATOM     12  C   UNL     1       1.820   4.726  19.633  0.00  0.00    +0.000 A 
ATOM     13  O   UNL     1       0.991   4.906  20.528  0.00  0.00    +0.000 OA
ENDROOT
BRANCH   7  14
ATOM     14  S   UNL     1       6.701   4.767  14.862  0.00  0.00    +0.000 S 
ATOM     15  O   UNL     1       6.736   5.901  13.967  0.00  0.00    +0.000 OA
ATOM     16  O   UNL     1       7.889   4.283  15.526  0.00  0.00    +0.000 OA
BRANCH  14  17
ATOM     17  N   UNL     1       5.972   3.500  14.022  0.00  0.00    +0.000 NA
ATOM     18  H   UNL     1       5.131   3.153  14.483  0.00  0.00    +0.000 HD
BRANCH  17  19
ATOM     19  C   UNL     1       6.031   3.467  12.551  0.00  0.00    +0.000 C 
ATOM     20  C   UNL     1       7.234   4.163  11.964  0.00  0.00    +0.000 C 
ATOM     21  C   UNL     1       5.536   2.204  11.873  0.00  0.00    +0.000 C 
ATOM     22  C   UNL     1       4.774   3.485  11.719  0.00  0.00    +0.000 C 
ENDBRANCH  17  19
ENDBRANCH  14  17
ENDBRANCH   7  14
BRANCH  11  23
ATOM     23  C   UNL     1       2.310   7.107  19.694  0.00  0.00    +0.000 C 
BRANCH  23  24
ATOM     24  C   UNL     1       1.936   8.108  18.679  0.00  0.00    +0.000 C 
ATOM     25  N   UNL     1       1.630   8.864  17.854  0.00  0.00    +0.000 NA
ENDBRANCH  23  24
ENDBRANCH  11  23
TORSDOF 5
ENDMDL
MODEL 3
REMARK VINA RESULT:      -7.5      3.807      7.745
REMARK  Name = 
REMARK  7 active torsions:
REMARK  status: ('A' for Active; 'I' for Inactive)
REMARK    1  A    between atoms: C_1  and  N_2
REMARK    2  A    between atoms: C_7  and  S_8
REMARK    3  A    between atoms: S_8  and  N_11
REMARK    4  A    between atoms: N_11  and  C_12
REMARK    5  A    between atoms: C_12  and  C_13
REMARK    6  A    between atoms: N_19  and  C_20
REMARK    7  A    between atoms: C_20  and  C_21
REMARK                            x       y       z     vdW  Elec       q    Type
REMARK                         _______ _______ _______ _____ _____    ______ ____
ROOT
ATOM      1  C   UNL     1       3.368   3.138  20.211  0.00  0.00    +0.000 C 
ATOM      2  N   UNL     1       3.334   4.406  19.506  0.00  0.00    +0.000 N 
ATOM      3  C   UNL     1       2.575   5.426  20.052  0.00  0.00    +0.000 A 
ATOM      4  O   UNL     1       1.965   5.345  21.114  0.00  0.00    +0.000 OA
ATOM      5  C   UNL     1       2.505   6.677  19.286  0.00  0.00    +0.000 A 
ATOM      6  C   UNL     1       1.679   7.706  19.760  0.00  0.00    +0.000 A 
ATOM      7  C   UNL     1       1.569   8.886  19.031  0.00  0.00    +0.000 A 
ATOM      8  C   UNL     1       2.282   9.044  17.844  0.00  0.00    +0.000 A 
ATOM      9  C   UNL     1       3.114   8.011  17.385  0.00  0.00    +0.000 A 
ATOM     10  C   UNL     1       3.242   6.811  18.107  0.00  0.00    +0.000 A 
ATOM     11  N   UNL     1       4.088   5.744  17.697  0.00  0.00    +0.000 N 
ATOM     12  C   UNL     1       4.123   4.524  18.369  0.00  0.00    +0.000 A 
ATOM     13  O   UNL     1       4.838   3.599  17.979  0.00  0.00    +0.000 OA
ENDROOT
BRANCH   7  14
ATOM     14  S   UNL     1       0.454  10.145  19.608  0.00  0.00    +0.000 S 
ATOM     15  O   UNL     1      -0.565   9.481  20.388  0.00  0.00    +0.000 OA
ATOM     16  O   UNL     1       1.235  11.236  20.146  0.00  0.00    +0.000 OA
BRANCH  14  17
ATOM     17  N   UNL     1      -0.269  10.630  18.165  0.00  0.00    +0.000 NA
ATOM     18  H   UNL     1       0.150  10.189  17.346  0.00  0.00    +0.000 HD
BRANCH  17  19
ATOM     19  C   UNL     1      -1.708  10.942  18.135  0.00  0.00    +0.000 C 
ATOM     20  C   UNL     1      -2.131  12.003  19.120  0.00  0.00    +0.000 C 
ATOM     21  C   UNL     1      -2.388  10.914  16.780  0.00  0.00    +0.000 C 
ATOM     22  C   UNL     1      -2.730   9.882  17.812  0.00  0.00    +0.000 C 
ENDBRANCH  17  19
ENDBRANCH  14  17
ENDBRANCH   7  14
BRANCH  11  23
ATOM     23  C   UNL     1       4.972   5.874  16.534  0.00  0.00    +0.000 C 
BRANCH  23  24
ATOM     24  C   UNL     1       6.249   6.542  16.842  0.00  0.00    +0.000 C 
ATOM     25  N   UNL     1       7.232   7.100  17.104  0.00  0.00    +0.000 NA
ENDBRANCH  23  24
ENDBRANCH  11  23
TORSDOF 5
ENDMDL
MODEL 4
REMARK VINA RESULT:      -7.4      3.795      8.171
REMARK  Name = 
REMARK  7 active torsions:
REMARK  status: ('A' for Active; 'I' for Inactive)
REMARK    1  A    between atoms: C_1  and  N_2
REMARK    2  A    between atoms: C_7  and  S_8
REMARK    3  A    between atoms: S_8  and  N_11
REMARK    4  A    between atoms: N_11  and  C_12
REMARK    5  A    between atoms: C_12  and  C_13
REMARK    6  A    between atoms: N_19  and  C_20
REMARK    7  A    between atoms: C_20  and  C_21
REMARK                            x       y       z     vdW  Elec       q    Type
REMARK                         _______ _______ _______ _____ _____    ______ ____
ROOT
ATOM      1  C   UNL     1       3.732   2.677  19.775  0.00  0.00    +0.000 C 
ATOM      2  N   UNL     1       3.523   4.048  19.345  0.00  0.00    +0.000 N 
ATOM      3  C   UNL     1       2.790   4.878  20.174  0.00  0.00    +0.000 A 
ATOM      4  O   UNL     1       2.341   4.546  21.268  0.00  0.00    +0.000 OA
ATOM      5  C   UNL     1       2.539   6.240  19.687  0.00  0.00    +0.000 A 
ATOM      6  C   UNL     1       1.728   7.087  20.456  0.00  0.00    +0.000 A 
ATOM      7  C   UNL     1       1.447   8.369  19.995  0.00  0.00    +0.000 A 
ATOM      8  C   UNL     1       1.975   8.809  18.782  0.00  0.00    +0.000 A 
ATOM      9  C   UNL     1       2.794   7.955  18.026  0.00  0.00    +0.000 A 
ATOM     10  C   UNL     1       3.093   6.656  18.474  0.00  0.00    +0.000 A 
ATOM     11  N   UNL     1       3.935   5.762  17.757  0.00  0.00    +0.000 N 
ATOM     12  C   UNL     1       4.136   4.445  18.164  0.00  0.00    +0.000 A 
ATOM     13  O   UNL     1       4.842   3.675  17.510  0.00  0.00    +0.000 OA
ENDROOT
BRANCH   7  14
ATOM     14  S   UNL     1       0.352   9.397  20.947  0.00  0.00    +0.000 S 
ATOM     15  O   UNL     1      -0.520   8.513  21.688  0.00  0.00    +0.000 OA
ATOM     16  O   UNL     1       1.137  10.418  21.602  0.00  0.00    +0.000 OA
BRANCH  14  17
ATOM     17  N   UNL     1      -0.580  10.099  19.730  0.00  0.00    +0.000 NA
ATOM     18  H   UNL     1      -1.340   9.496  19.418  0.00  0.00    +0.000 HD
BRANCH  17  19
ATOM     19  C   UNL     1      -0.790  11.557  19.718  0.00  0.00    +0.000 C 
ATOM     20  C   UNL     1       0.321  12.336  19.059  0.00  0.00    +0.000 C 
ATOM     21  C   UNL     1      -2.213  12.043  19.527  0.00  0.00    +0.000 C 
ATOM     22  C   UNL     1      -1.521  12.250  20.839  0.00  0.00    +0.000 C 
ENDBRANCH  17  19
ENDBRANCH  14  17
ENDBRANCH   7  14
BRANCH  11  23
ATOM     23  C   UNL     1       4.636   6.184  16.541  0.00  0.00    +0.000 C 
BRANCH  23  24
ATOM     24  C   UNL     1       5.948   6.801  16.807  0.00  0.00    +0.000 C 
ATOM     25  N   UNL     1       6.963   7.307  17.050  0.00  0.00    +0.000 NA
ENDBRANCH  23  24
ENDBRANCH  11  23
TORSDOF 5
ENDMDL
MODEL 5
REMARK VINA RESULT:      -7.2      3.423      7.374
REMARK  Name = 
REMARK  7 active torsions:
REMARK  status: ('A' for Active; 'I' for Inactive)
REMARK    1  A    between atoms: C_1  and  N_2
REMARK    2  A    between atoms: C_7  and  S_8
REMARK    3  A    between atoms: S_8  and  N_11
REMARK    4  A    between atoms: N_11  and  C_12
REMARK    5  A    between atoms: C_12  and  C_13
REMARK    6  A    between atoms: N_19  and  C_20
REMARK    7  A    between atoms: C_20  and  C_21
REMARK                            x       y       z     vdW  Elec       q    Type
REMARK                         _______ _______ _______ _____ _____    ______ ____
ROOT
ATOM      1  C   UNL     1       5.327   5.843  15.872  0.00  0.00    +0.000 C 
ATOM      2  N   UNL     1       4.459   5.607  17.012  0.00  0.00    +0.000 N 
ATOM      3  C   UNL     1       3.789   6.693  17.546  0.00  0.00    +0.000 A 
ATOM      4  O   UNL     1       3.843   7.833  17.095  0.00  0.00    +0.000 OA
ATOM      5  C   UNL     1       2.969   6.439  18.738  0.00  0.00    +0.000 A 
ATOM      6  C   UNL     1       2.340   7.526  19.362  0.00  0.00    +0.000 A 
ATOM      7  C   UNL     1       1.589   7.314  20.513  0.00  0.00    +0.000 A 
ATOM      8  C   UNL     1       1.457   6.028  21.035  0.00  0.00    +0.000 A 
ATOM      9  C   UNL     1       2.081   4.946  20.396  0.00  0.00    +0.000 A 
ATOM     10  C   UNL     1       2.844   5.138  19.230  0.00  0.00    +0.000 A 
ATOM     11  N   UNL     1       3.478   4.072  18.532  0.00  0.00    +0.000 N 
ATOM     12  C   UNL     1       4.313   4.294  17.440  0.00  0.00    +0.000 A 
ATOM     13  O   UNL     1       4.880   3.361  16.869  0.00  0.00    +0.000 OA
ENDROOT
BRANCH   7  14
ATOM     14  S   UNL     1       0.868   8.718  21.332  0.00  0.00    +0.000 S 
ATOM     15  O   UNL     1      -0.526   8.408  21.552  0.00  0.00    +0.000 OA
ATOM     16  O   UNL     1       1.741   9.114  22.415  0.00  0.00    +0.000 OA
BRANCH  14  17
ATOM     17  N   UNL     1       0.928   9.878  20.111  0.00  0.00    +0.000 NA
ATOM     18  H   UNL     1       1.359   9.528  19.255  0.00  0.00    +0.000 HD
BRANCH  17  19
ATOM     19  C   UNL     1      -0.147  10.877  19.996  0.00  0.00    +0.000 C 
ATOM     20  C   UNL     1      -0.421  11.639  21.269  0.00  0.00    +0.000 C 
ATOM     21  C   UNL     1      -0.252  11.624  18.681  0.00  0.00    +0.000 C 
ATOM     22  C   UNL     1      -1.324  10.657  19.081  0.00  0.00    +0.000 C 
ENDBRANCH  17  19
ENDBRANCH  14  17
ENDBRANCH   7  14
BRANCH  11  23
ATOM     23  C   UNL     1       3.285   2.676  18.935  0.00  0.00    +0.000 C 
BRANCH  23  24
ATOM     24  C   UNL     1       4.319   2.188  19.866  0.00  0.00    +0.000 C 
ATOM     25  N   UNL     1       5.109   1.820  20.631  0.00  0.00    +0.000 NA
ENDBRANCH  23  24
ENDBRANCH  11  23
TORSDOF 5
ENDMDL
MODEL 6
REMARK VINA RESULT:      -7.2      3.829      8.286
REMARK  Name = 
REMARK  7 active torsions:
REMARK  status: ('A' for Active; 'I' for Inactive)
REMARK    1  A    between atoms: C_1  and  N_2
REMARK    2  A    between atoms: C_7  and  S_8
REMARK    3  A    between atoms: S_8  and  N_11
REMARK    4  A    between atoms: N_11  and  C_12
REMARK    5  A    between atoms: C_12  and  C_13
REMARK    6  A    between atoms: N_19  and  C_20
REMARK    7  A    between atoms: C_20  and  C_21
REMARK                            x       y       z     vdW  Elec       q    Type
REMARK                         _______ _______ _______ _____ _____    ______ ____
ROOT
ATOM      1  C   UNL     1       3.896   2.950  19.835  0.00  0.00    +0.000 C 
ATOM      2  N   UNL     1       3.638   4.298  19.363  0.00  0.00    +0.000 N 
ATOM      3  C   UNL     1       2.835   5.111  20.143  0.00  0.00    +0.000 A 
ATOM      4  O   UNL     1       2.363   4.784  21.228  0.00  0.00    +0.000 OA
ATOM      5  C   UNL     1       2.538   6.448  19.613  0.00  0.00    +0.000 A 
ATOM      6  C   UNL     1       1.660   7.272  20.330  0.00  0.00    +0.000 A 
ATOM      7  C   UNL     1       1.335   8.528  19.827  0.00  0.00    +0.000 A 
ATOM      8  C   UNL     1       1.886   8.963  18.622  0.00  0.00    +0.000 A 
ATOM      9  C   UNL     1       2.773   8.133  17.919  0.00  0.00    +0.000 A 
ATOM     10  C   UNL     1       3.117   6.861  18.410  0.00  0.00    +0.000 A 
ATOM     11  N   UNL     1       4.026   5.992  17.747  0.00  0.00    +0.000 N 
ATOM     12  C   UNL     1       4.275   4.696  18.195  0.00  0.00    +0.000 A 
ATOM     13  O   UNL     1       5.041   3.946  17.587  0.00  0.00    +0.000 OA
ENDROOT
BRANCH   7  14
ATOM     14  S   UNL     1       0.157   9.523  20.712  0.00  0.00    +0.000 S 
ATOM     15  O   UNL     1      -0.750  10.076  19.731  0.00  0.00    +0.000 OA
ATOM     16  O   UNL     1      -0.317   8.769  21.849  0.00  0.00    +0.000 OA
BRANCH  14  17
ATOM     17  N   UNL     1       1.134  10.789  21.246  0.00  0.00    +0.000 NA
ATOM     18  H   UNL     1       2.125  10.550  21.247  0.00  0.00    +0.000 HD
BRANCH  17  19
ATOM     19  C   UNL     1       0.748  12.182  20.962  0.00  0.00    +0.000 C 
ATOM     20  C   UNL     1      -0.393  12.692  21.806  0.00  0.00    +0.000 C 
ATOM     21  C   UNL     1       1.867  13.146  20.617  0.00  0.00    +0.000 C 
ATOM     22  C   UNL     1       0.864  12.756  19.574  0.00  0.00    +0.000 C 
ENDBRANCH  17  19
ENDBRANCH  14  17
ENDBRANCH   7  14
BRANCH  11  23
ATOM     23  C   UNL     1       4.751   6.418  16.546  0.00  0.00    +0.000 C 
BRANCH  23  24
ATOM     24  C   UNL     1       6.096   6.949  16.833  0.00  0.00    +0.000 C 
ATOM     25  N   UNL     1       7.171   7.339  17.031  0.00  0.00    +0.000 NA
ENDBRANCH  23  24
ENDBRANCH  11  23
TORSDOF 5
ENDMDL
MODEL 7
REMARK VINA RESULT:      -7.2      4.273      7.047
REMARK  Name = 
REMARK  7 active torsions:
REMARK  status: ('A' for Active; 'I' for Inactive)
REMARK    1  A    between atoms: C_1  and  N_2
REMARK    2  A    between atoms: C_7  and  S_8
REMARK    3  A    between atoms: S_8  and  N_11
REMARK    4  A    between atoms: N_11  and  C_12
REMARK    5  A    between atoms: C_12  and  C_13
REMARK    6  A    between atoms: N_19  and  C_20
REMARK    7  A    between atoms: C_20  and  C_21
REMARK                            x       y       z     vdW  Elec       q    Type
REMARK                         _______ _______ _______ _____ _____    ______ ____
ROOT
ATOM      1  C   UNL     1      -0.815  10.801  23.084  0.00  0.00    +0.000 C 
ATOM      2  N   UNL     1      -0.307  10.496  21.759  0.00  0.00    +0.000 N 
ATOM      3  C   UNL     1       0.360   9.296  21.585  0.00  0.00    +0.000 A 
ATOM      4  O   UNL     1       0.513   8.454  22.465  0.00  0.00    +0.000 OA
ATOM      5  C   UNL     1       0.919   9.041  20.251  0.00  0.00    +0.000 A 
ATOM      6  C   UNL     1       1.676   7.877  20.055  0.00  0.00    +0.000 A 
ATOM      7  C   UNL     1       2.246   7.633  18.810  0.00  0.00    +0.000 A 
ATOM      8  C   UNL     1       2.057   8.537  17.764  0.00  0.00    +0.000 A 
ATOM      9  C   UNL     1       1.288   9.693  17.970  0.00  0.00    +0.000 A 
ATOM     10  C   UNL     1       0.701   9.958  19.221  0.00  0.00    +0.000 A 
ATOM     11  N   UNL     1      -0.104  11.103  19.474  0.00  0.00    +0.000 N 
ATOM     12  C   UNL     1      -0.591  11.401  20.744  0.00  0.00    +0.000 A 
ATOM     13  O   UNL     1      -1.259  12.416  20.951  0.00  0.00    +0.000 OA
ENDROOT
BRANCH   7  14
ATOM     14  S   UNL     1       3.268   6.193  18.606  0.00  0.00    +0.000 S 
ATOM     15  O   UNL     1       4.126   6.442  17.470  0.00  0.00    +0.000 OA
ATOM     16  O   UNL     1       3.801   5.823  19.897  0.00  0.00    +0.000 OA
BRANCH  14  17
ATOM     17  N   UNL     1       2.129   5.048  18.120  0.00  0.00    +0.000 NA
ATOM     18  H   UNL     1       2.047   4.979  17.106  0.00  0.00    +0.000 HD
BRANCH  17  19
ATOM     19  C   UNL     1       1.924   3.832  18.925  0.00  0.00    +0.000 C 
ATOM     20  C   UNL     1       1.020   4.026  20.117  0.00  0.00    +0.000 C 
ATOM     21  C   UNL     1       1.843   2.518  18.173  0.00  0.00    +0.000 C 
ATOM     22  C   UNL     1       3.011   2.798  19.069  0.00  0.00    +0.000 C 
ENDBRANCH  17  19
ENDBRANCH  14  17
ENDBRANCH   7  14
BRANCH  11  23
ATOM     23  C   UNL     1      -0.463  12.036  18.401  0.00  0.00    +0.000 C 
BRANCH  23  24
ATOM     24  C   UNL     1      -1.745  11.714  17.750  0.00  0.00    +0.000 C 
ATOM     25  N   UNL     1      -2.736  11.426  17.219  0.00  0.00    +0.000 NA
ENDBRANCH  23  24
ENDBRANCH  11  23
TORSDOF 5
ENDMDL
MODEL 8
REMARK VINA RESULT:      -7.1      4.513      7.382
REMARK  Name = 
REMARK  7 active torsions:
REMARK  status: ('A' for Active; 'I' for Inactive)
REMARK    1  A    between atoms: C_1  and  N_2
REMARK    2  A    between atoms: C_7  and  S_8
REMARK    3  A    between atoms: S_8  and  N_11
REMARK    4  A    between atoms: N_11  and  C_12
REMARK    5  A    between atoms: C_12  and  C_13
REMARK    6  A    between atoms: N_19  and  C_20
REMARK    7  A    between atoms: C_20  and  C_21
REMARK                            x       y       z     vdW  Elec       q    Type
REMARK                         _______ _______ _______ _____ _____    ______ ____
ROOT
ATOM      1  C   UNL     1      -0.882  10.789  23.012  0.00  0.00    +0.000 C 
ATOM      2  N   UNL     1      -0.247  10.534  21.732  0.00  0.00    +0.000 N 
ATOM      3  C   UNL     1       0.283   9.274  21.516  0.00  0.00    +0.000 A 
ATOM      4  O   UNL     1       0.213   8.345  22.316  0.00  0.00    +0.000 OA
ATOM      5  C   UNL     1       0.975   9.061  20.238  0.00  0.00    +0.000 A 
ATOM      6  C   UNL     1       1.600   7.826  20.014  0.00  0.00    +0.000 A 
ATOM      7  C   UNL     1       2.293   7.615  18.827  0.00  0.00    +0.000 A 
ATOM      8  C   UNL     1       2.357   8.623  17.865  0.00  0.00    +0.000 A 
ATOM      9  C   UNL     1       1.718   9.852  18.097  0.00  0.00    +0.000 A 
ATOM     10  C   UNL     1       1.010  10.085  19.289  0.00  0.00    +0.000 A 
ATOM     11  N   UNL     1       0.328  11.303  19.562  0.00  0.00    +0.000 N 
ATOM     12  C   UNL     1      -0.280  11.553  20.790  0.00  0.00    +0.000 A 
ATOM     13  O   UNL     1      -0.837  12.629  21.019  0.00  0.00    +0.000 OA
ENDROOT
BRANCH   7  14
ATOM     14  S   UNL     1       3.146   6.072  18.598  0.00  0.00    +0.000 S 
ATOM     15  O   UNL     1       2.305   5.246  17.761  0.00  0.00    +0.000 OA
ATOM     16  O   UNL     1       4.521   6.355  18.255  0.00  0.00    +0.000 OA
BRANCH  14  17
ATOM     17  N   UNL     1       3.078   5.426  20.153  0.00  0.00    +0.000 NA
ATOM     18  H   UNL     1       2.755   6.100  20.847  0.00  0.00    +0.000 HD
BRANCH  17  19
ATOM     19  C   UNL     1       2.734   4.006  20.342  0.00  0.00    +0.000 C 
ATOM     20  C   UNL     1       3.716   3.044  19.720  0.00  0.00    +0.000 C 
ATOM     21  C   UNL     1       2.102   3.624  21.667  0.00  0.00    +0.000 C 
ATOM     22  C   UNL     1       1.298   3.552  20.404  0.00  0.00    +0.000 C 
ENDBRANCH  17  19
ENDBRANCH  14  17
ENDBRANCH   7  14
BRANCH  11  23
ATOM     23  C   UNL     1       0.233  12.366  18.556  0.00  0.00    +0.000 C 
BRANCH  23  24
ATOM     24  C   UNL     1       1.325  13.352  18.643  0.00  0.00    +0.000 C 
ATOM     25  N   UNL     1       2.187  14.128  18.667  0.00  0.00    +0.000 NA
ENDBRANCH  23  24
ENDBRANCH  11  23
TORSDOF 5
ENDMDL
MODEL 9
REMARK VINA RESULT:      -7.1      4.601      7.362
REMARK  Name = 
REMARK  7 active torsions:
REMARK  status: ('A' for Active; 'I' for Inactive)
REMARK    1  A    between atoms: C_1  and  N_2
REMARK    2  A    between atoms: C_7  and  S_8
REMARK    3  A    between atoms: S_8  and  N_11
REMARK    4  A    between atoms: N_11  and  C_12
REMARK    5  A    between atoms: C_12  and  C_13
REMARK    6  A    between atoms: N_19  and  C_20
REMARK    7  A    between atoms: C_20  and  C_21
REMARK                            x       y       z     vdW  Elec       q    Type
REMARK                         _______ _______ _______ _____ _____    ______ ____
ROOT
ATOM      1  C   UNL     1      -0.841  11.027  23.067  0.00  0.00    +0.000 C 
ATOM      2  N   UNL     1      -0.349  10.653  21.753  0.00  0.00    +0.000 N 
ATOM      3  C   UNL     1       0.304   9.439  21.632  0.00  0.00    +0.000 A 
ATOM      4  O   UNL     1       0.456   8.639  22.551  0.00  0.00    +0.000 OA
ATOM      5  C   UNL     1       0.848   9.113  20.308  0.00  0.00    +0.000 A 
ATOM      6  C   UNL     1       1.591   7.933  20.161  0.00  0.00    +0.000 A 
ATOM      7  C   UNL     1       2.147   7.623  18.925  0.00  0.00    +0.000 A 
ATOM      8  C   UNL     1       1.958   8.477  17.839  0.00  0.00    +0.000 A 
ATOM      9  C   UNL     1       1.203   9.651  17.995  0.00  0.00    +0.000 A 
ATOM     10  C   UNL     1       0.630   9.982  19.236  0.00  0.00    +0.000 A 
ATOM     11  N   UNL     1      -0.160  11.146  19.440  0.00  0.00    +0.000 N 
ATOM     12  C   UNL     1      -0.632  11.511  20.699  0.00  0.00    +0.000 A 
ATOM     13  O   UNL     1      -1.288  12.542  20.862  0.00  0.00    +0.000 OA
ENDROOT
BRANCH   7  14
ATOM     14  S   UNL     1       3.152   6.164  18.782  0.00  0.00    +0.000 S 
ATOM     15  O   UNL     1       2.511   5.303  17.814  0.00  0.00    +0.000 OA
ATOM     16  O   UNL     1       4.532   6.570  18.646  0.00  0.00    +0.000 OA
BRANCH  14  17
ATOM     17  N   UNL     1       2.921   5.457  20.295  0.00  0.00    +0.000 NA
ATOM     18  H   UNL     1       2.438   6.074  20.949  0.00  0.00    +0.000 HD
BRANCH  17  19
ATOM     19  C   UNL     1       2.692   4.006  20.399  0.00  0.00    +0.000 C 
ATOM     20  C   UNL     1       3.805   3.162  19.829  0.00  0.00    +0.000 C 
ATOM     21  C   UNL     1       1.988   3.511  21.647  0.00  0.00    +0.000 C 
ATOM     22  C   UNL     1       1.303   3.427  20.317  0.00  0.00    +0.000 C 
ENDBRANCH  17  19
ENDBRANCH  14  17
ENDBRANCH   7  14
BRANCH  11  23
ATOM     23  C   UNL     1      -0.518  12.031  18.327  0.00  0.00    +0.000 C 
BRANCH  23  24
ATOM     24  C   UNL     1      -1.836  11.729  17.740  0.00  0.00    +0.000 C 
ATOM     25  N   UNL     1      -2.864  11.517  17.245  0.00  0.00    +0.000 NA
ENDBRANCH  23  24
ENDBRANCH  11  23
TORSDOF 5
ENDMDL
