MODEL 1
REMARK VINA RESULT:      -7.4      0.000      0.000
REMARK  Name = 
REMARK  5 active torsions:
REMARK  status: ('A' for Active; 'I' for Inactive)
REMARK    1  A    between atoms: C_1  and  O_2
REMARK    2  A    between atoms: O_2  and  C_3
REMARK    3  A    between atoms: C_6  and  O_7
REMARK    4  A    between atoms: O_7  and  C_8
REMARK    5  A    between atoms: C_12  and  C_13
REMARK                            x       y       z     vdW  Elec       q    Type
REMARK                         _______ _______ _______ _____ _____    ______ ____
ROOT
ATOM      1  C   UNL     1       4.173   3.894  19.330  0.00  0.00    +0.000 A 
ATOM      2  C   UNL     1       3.361   2.852  18.886  0.00  0.00    +0.000 A 
ATOM      3  C   UNL     1       1.980   2.910  19.090  0.00  0.00    +0.000 A 
ATOM      4  C   UNL     1       1.412   4.011  19.736  0.00  0.00    +0.000 A 
ATOM      5  C   UNL     1       2.219   5.075  20.153  0.00  0.00    +0.000 A 
ATOM      6  C   UNL     1       3.594   5.028  19.918  0.00  0.00    +0.000 A 
ENDROOT
BRANCH   5   7
ATOM      7  C   UNL     1       1.636   6.229  20.836  0.00  0.00    +0.000 C 
ATOM      8  C   UNL     1       1.473   7.446  20.297  0.00  0.00    +0.000 C 
ATOM      9  S   UNL     1       0.854   8.794  21.202  0.00  0.00    +0.000 S 
ATOM     10  C   UNL     1       1.137   9.915  19.892  0.00  0.00    +0.000 C 
ATOM     11  S   UNL     1       0.868  11.548  19.917  0.00  0.00    +0.000 S 
ATOM     12  N   UNL     1       1.625   9.246  18.813  0.00  0.00    +0.000 N 
ATOM     13  C   UNL     1       1.802   7.893  18.913  0.00  0.00    +0.000 C 
ATOM     14  O   UNL     1       2.155   7.187  17.981  0.00  0.00    +0.000 OA
ATOM     15  H   UNL     1       1.821   9.716  17.942  0.00  0.00    +0.000 HD
ENDBRANCH   5   7
BRANCH   1  16
ATOM     16  O   UNL     1       5.537   3.751  19.158  0.00  0.00    +0.000 OA
BRANCH  16  20
ATOM     17  C   UNL     1       7.444   7.052  17.452  0.00  0.00    +0.000 A 
ATOM     18  C   UNL     1       7.811   6.637  18.731  0.00  0.00    +0.000 A 
ATOM     19  C   UNL     1       7.246   5.490  19.285  0.00  0.00    +0.000 A 
ATOM     20  C   UNL     1       6.231   4.811  18.604  0.00  0.00    +0.000 A 
ATOM     21  C   UNL     1       5.881   5.204  17.317  0.00  0.00    +0.000 A 
ATOM     22  C   UNL     1       6.491   6.324  16.735  0.00  0.00    +0.000 A 
BRANCH  17  24
ATOM     23  C   UNL     1       8.287   9.170  18.041  0.00  0.00    +0.000 C 
ATOM     24  O   UNL     1       8.043   8.204  17.027  0.00  0.00    +0.000 OA
ENDBRANCH  17  24
ENDBRANCH  16  20
ENDBRANCH   1  16
TORSDOF 4
ENDMDL
MODEL 2
REMARK VINA RESULT:      -7.1      1.698      2.343
REMARK  Name = 
REMARK  5 active torsions:
REMARK  status: ('A' for Active; 'I' for Inactive)
REMARK    1  A    between atoms: C_1  and  O_2
REMARK    2  A    between atoms: O_2  and  C_3
REMARK    3  A    between atoms: C_6  and  O_7
REMARK    4  A    between atoms: O_7  and  C_8
REMARK    5  A    between atoms: C_12  and  C_13
REMARK                            x       y       z     vdW  Elec       q    Type
REMARK                         _______ _______ _______ _____ _____    ______ ____
ROOT
ATOM      1  C   UNL     1       3.810   4.228  19.606  0.00  0.00    +0.000 A 
ATOM      2  C   UNL     1       2.932   3.148  19.538  0.00  0.00    +0.000 A 
ATOM      3  C   UNL     1       1.592   3.317  19.894  0.00  0.00    +0.000 A 
ATOM      4  C   UNL     1       1.130   4.567  20.316  0.00  0.00    +0.000 A 
ATOM      5  C   UNL     1       2.000   5.662  20.353  0.00  0.00    +0.000 A 
ATOM      6  C   UNL     1       3.331   5.496  19.965  0.00  0.00    +0.000 A 
ENDROOT
BRANCH   5   7
ATOM      7  C   UNL     1       1.530   6.972  20.800  0.00  0.00    +0.000 C 
ATOM      8  C   UNL     1       1.473   8.075  20.039  0.00  0.00    +0.000 C 
ATOM      9  S   UNL     1       0.986   9.620  20.666  0.00  0.00    +0.000 S 
ATOM     10  C   UNL     1       1.359  10.442  19.171  0.00  0.00    +0.000 C 
ATOM     11  S   UNL     1       1.240  12.068  18.883  0.00  0.00    +0.000 S 
ATOM     12  N   UNL     1       1.776   9.540  18.243  0.00  0.00    +0.000 N 
ATOM     13  C   UNL     1       1.830   8.219  18.599  0.00  0.00    +0.000 C 
ATOM     14  O   UNL     1       2.111   7.320  17.821  0.00  0.00    +0.000 OA
ATOM     15  H   UNL     1       2.007   9.816  17.300  0.00  0.00    +0.000 HD
ENDBRANCH   5   7
BRANCH   1  16
ATOM     16  O   UNL     1       5.137   3.985  19.303  0.00  0.00    +0.000 OA
BRANCH  16  20
ATOM     17  C   UNL     1       6.636   4.893  15.513  0.00  0.00    +0.000 A 
ATOM     18  C   UNL     1       5.279   4.611  15.660  0.00  0.00    +0.000 A 
ATOM     19  C   UNL     1       4.744   4.386  16.927  0.00  0.00    +0.000 A 
ATOM     20  C   UNL     1       5.585   4.338  18.044  0.00  0.00    +0.000 A 
ATOM     21  C   UNL     1       6.933   4.646  17.906  0.00  0.00    +0.000 A 
ATOM     22  C   UNL     1       7.462   4.929  16.638  0.00  0.00    +0.000 A 
BRANCH  17  24
ATOM     23  C   UNL     1       6.607   4.075  13.305  0.00  0.00    +0.000 C 
ATOM     24  O   UNL     1       7.050   5.067  14.222  0.00  0.00    +0.000 OA
ENDBRANCH  17  24
ENDBRANCH  16  20
ENDBRANCH   1  16
TORSDOF 4
ENDMDL
MODEL 3
REMARK VINA RESULT:      -7.1      0.288      1.024
REMARK  Name = 
REMARK  5 active torsions:
REMARK  status: ('A' for Active; 'I' for Inactive)
REMARK    1  A    between atoms: C_1  and  O_2
REMARK    2  A    between atoms: O_2  and  C_3
REMARK    3  A    between atoms: C_6  and  O_7
REMARK    4  A    between atoms: O_7  and  C_8
REMARK    5  A    between atoms: C_12  and  C_13
REMARK                            x       y       z     vdW  Elec       q    Type
REMARK                         _______ _______ _______ _____ _____    ______ ____
ROOT
ATOM      1  C   UNL     1       4.004   3.907  19.369  0.00  0.00    +0.000 A 
ATOM      2  C   UNL     1       3.204   2.804  19.076  0.00  0.00    +0.000 A 
ATOM      3  C   UNL     1       1.851   2.813  19.425  0.00  0.00    +0.000 A 
ATOM      4  C   UNL     1       1.299   3.927  20.064  0.00  0.00    +0.000 A 
ATOM      5  C   UNL     1       2.090   5.049  20.329  0.00  0.00    +0.000 A 
ATOM      6  C   UNL     1       3.433   5.048  19.950  0.00  0.00    +0.000 A 
ENDROOT
BRANCH   5   7
ATOM      7  C   UNL     1       1.525   6.217  21.004  0.00  0.00    +0.000 C 
ATOM      8  C   UNL     1       1.404   7.439  20.466  0.00  0.00    +0.000 C 
ATOM      9  S   UNL     1       0.803   8.800  21.362  0.00  0.00    +0.000 S 
ATOM     10  C   UNL     1       1.141   9.917  20.062  0.00  0.00    +0.000 C 
ATOM     11  S   UNL     1       0.915  11.556  20.086  0.00  0.00    +0.000 S 
ATOM     12  N   UNL     1       1.633   9.238  18.991  0.00  0.00    +0.000 N 
ATOM     13  C   UNL     1       1.772   7.880  19.090  0.00  0.00    +0.000 C 
ATOM     14  O   UNL     1       2.125   7.167  18.163  0.00  0.00    +0.000 OA
ATOM     15  H   UNL     1       1.858   9.704  18.125  0.00  0.00    +0.000 HD
ENDBRANCH   5   7
BRANCH   1  16
ATOM     16  O   UNL     1       5.348   3.814  19.059  0.00  0.00    +0.000 OA
BRANCH  16  20
ATOM     17  C   UNL     1       7.472   7.164  17.752  0.00  0.00    +0.000 A 
ATOM     18  C   UNL     1       6.309   6.790  17.082  0.00  0.00    +0.000 A 
ATOM     19  C   UNL     1       5.542   5.725  17.551  0.00  0.00    +0.000 A 
ATOM     20  C   UNL     1       5.991   4.962  18.634  0.00  0.00    +0.000 A 
ATOM     21  C   UNL     1       7.135   5.348  19.322  0.00  0.00    +0.000 A 
ATOM     22  C   UNL     1       7.877   6.455  18.885  0.00  0.00    +0.000 A 
BRANCH  17  24
ATOM     23  C   UNL     1       8.323   9.344  18.012  0.00  0.00    +0.000 C 
ATOM     24  O   UNL     1       8.155   8.202  17.183  0.00  0.00    +0.000 OA
ENDBRANCH  17  24
ENDBRANCH  16  20
ENDBRANCH   1  16
TORSDOF 4
ENDMDL
MODEL 4
REMARK VINA RESULT:      -7.0      1.162      1.256
REMARK  Name = 
REMARK  5 active torsions:
REMARK  status: ('A' for Active; 'I' for Inactive)
REMARK    1  A    between atoms: C_1  and  O_2
REMARK    2  A    between atoms: O_2  and  C_3
REMARK    3  A    between atoms: C_6  and  O_7
REMARK    4  A    between atoms: O_7  and  C_8
REMARK    5  A    between atoms: C_12  and  C_13
REMARK                            x       y       z     vdW  Elec       q    Type
REMARK                         _______ _______ _______ _____ _____    ______ ____
ROOT
ATOM      1  C   UNL     1       4.617   4.501  17.969  0.00  0.00    +0.000 A 
ATOM      2  C   UNL     1       3.784   3.734  17.156  0.00  0.00    +0.000 A 
ATOM      3  C   UNL     1       2.399   3.785  17.334  0.00  0.00    +0.000 A 
ATOM      4  C   UNL     1       1.848   4.604  18.324  0.00  0.00    +0.000 A 
ATOM      5  C   UNL     1       2.678   5.401  19.119  0.00  0.00    +0.000 A 
ATOM      6  C   UNL     1       4.059   5.372  18.916  0.00  0.00    +0.000 A 
ENDROOT
BRANCH   5   7
ATOM      7  C   UNL     1       2.113   6.257  20.161  0.00  0.00    +0.000 C 
ATOM      8  C   UNL     1       1.734   7.532  19.995  0.00  0.00    +0.000 C 
ATOM      9  S   UNL     1       1.154   8.514  21.306  0.00  0.00    +0.000 S 
ATOM     10  C   UNL     1       1.083   9.950  20.314  0.00  0.00    +0.000 C 
ATOM     11  S   UNL     1       0.659  11.471  20.810  0.00  0.00    +0.000 S 
ATOM     12  N   UNL     1       1.437   9.643  19.037  0.00  0.00    +0.000 N 
ATOM     13  C   UNL     1       1.764   8.346  18.747  0.00  0.00    +0.000 C 
ATOM     14  O   UNL     1       2.015   7.949  17.619  0.00  0.00    +0.000 OA
ATOM     15  H   UNL     1       1.425  10.335  18.303  0.00  0.00    +0.000 HD
ENDBRANCH   5   7
BRANCH   1  16
ATOM     16  O   UNL     1       5.980   4.362  17.789  0.00  0.00    +0.000 OA
BRANCH  16  20
ATOM     17  C   UNL     1       8.201   7.842  18.419  0.00  0.00    +0.000 A 
ATOM     18  C   UNL     1       8.355   6.766  19.293  0.00  0.00    +0.000 A 
ATOM     19  C   UNL     1       7.685   5.568  19.054  0.00  0.00    +0.000 A 
ATOM     20  C   UNL     1       6.775   5.474  17.996  0.00  0.00    +0.000 A 
ATOM     21  C   UNL     1       6.639   6.533  17.107  0.00  0.00    +0.000 A 
ATOM     22  C   UNL     1       7.357   7.720  17.314  0.00  0.00    +0.000 A 
BRANCH  17  24
ATOM     23  C   UNL     1       8.603  10.121  17.987  0.00  0.00    +0.000 C 
ATOM     24  O   UNL     1       8.884   8.971  18.773  0.00  0.00    +0.000 OA
ENDBRANCH  17  24
ENDBRANCH  16  20
ENDBRANCH   1  16
TORSDOF 4
ENDMDL
MODEL 5
REMARK VINA RESULT:      -6.9      1.518      1.971
REMARK  Name = 
REMARK  5 active torsions:
REMARK  status: ('A' for Active; 'I' for Inactive)
REMARK    1  A    between atoms: C_1  and  O_2
REMARK    2  A    between atoms: O_2  and  C_3
REMARK    3  A    between atoms: C_6  and  O_7
REMARK    4  A    between atoms: O_7  and  C_8
REMARK    5  A    between atoms: C_12  and  C_13
REMARK                            x       y       z     vdW  Elec       q    Type
REMARK                         _______ _______ _______ _____ _____    ______ ____
ROOT
ATOM      1  C   UNL     1       3.711   3.928  19.761  0.00  0.00    +0.000 A 
ATOM      2  C   UNL     1       2.791   2.881  19.714  0.00  0.00    +0.000 A 
ATOM      3  C   UNL     1       1.455   3.113  20.049  0.00  0.00    +0.000 A 
ATOM      4  C   UNL     1       1.038   4.392  20.428  0.00  0.00    +0.000 A 
ATOM      5  C   UNL     1       1.950   5.453  20.442  0.00  0.00    +0.000 A 
ATOM      6  C   UNL     1       3.277   5.224  20.076  0.00  0.00    +0.000 A 
ENDROOT
BRANCH   5   7
ATOM      7  C   UNL     1       1.526   6.794  20.844  0.00  0.00    +0.000 C 
ATOM      8  C   UNL     1       1.520   7.874  20.049  0.00  0.00    +0.000 C 
ATOM      9  S   UNL     1       1.087   9.455  20.623  0.00  0.00    +0.000 S 
ATOM     10  C   UNL     1       1.505  10.216  19.107  0.00  0.00    +0.000 C 
ATOM     11  S   UNL     1       1.451  11.836  18.769  0.00  0.00    +0.000 S 
ATOM     12  N   UNL     1       1.896   9.270  18.212  0.00  0.00    +0.000 N 
ATOM     13  C   UNL     1       1.895   7.960  18.609  0.00  0.00    +0.000 C 
ATOM     14  O   UNL     1       2.148   7.027  17.861  0.00  0.00    +0.000 OA
ATOM     15  H   UNL     1       2.146   9.508  17.264  0.00  0.00    +0.000 HD
ENDBRANCH   5   7
BRANCH   1  16
ATOM     16  O   UNL     1       5.030   3.625  19.481  0.00  0.00    +0.000 OA
BRANCH  16  20
ATOM     17  C   UNL     1       6.412   5.039  15.803  0.00  0.00    +0.000 A 
ATOM     18  C   UNL     1       7.133   5.329  16.960  0.00  0.00    +0.000 A 
ATOM     19  C   UNL     1       6.734   4.798  18.185  0.00  0.00    +0.000 A 
ATOM     20  C   UNL     1       5.550   4.060  18.276  0.00  0.00    +0.000 A 
ATOM     21  C   UNL     1       4.843   3.746  17.122  0.00  0.00    +0.000 A 
ATOM     22  C   UNL     1       5.276   4.231  15.880  0.00  0.00    +0.000 A 
BRANCH  17  24
ATOM     23  C   UNL     1       7.058   4.774  13.554  0.00  0.00    +0.000 C 
ATOM     24  O   UNL     1       6.882   5.639  14.668  0.00  0.00    +0.000 OA
ENDBRANCH  17  24
ENDBRANCH  16  20
ENDBRANCH   1  16
TORSDOF 4
ENDMDL
MODEL 6
REMARK VINA RESULT:      -6.8      1.192      1.567
REMARK  Name = 
REMARK  5 active torsions:
REMARK  status: ('A' for Active; 'I' for Inactive)
REMARK    1  A    between atoms: C_1  and  O_2
REMARK    2  A    between atoms: O_2  and  C_3
REMARK    3  A    between atoms: C_6  and  O_7
REMARK    4  A    between atoms: O_7  and  C_8
REMARK    5  A    between atoms: C_12  and  C_13
REMARK                            x       y       z     vdW  Elec       q    Type
REMARK                         _______ _______ _______ _____ _____    ______ ____
ROOT
ATOM      1  C   UNL     1       4.280   4.666  17.659  0.00  0.00    +0.000 A 
ATOM      2  C   UNL     1       3.433   3.720  17.082  0.00  0.00    +0.000 A 
ATOM      3  C   UNL     1       2.114   3.604  17.526  0.00  0.00    +0.000 A 
ATOM      4  C   UNL     1       1.641   4.434  18.546  0.00  0.00    +0.000 A 
ATOM      5  C   UNL     1       2.476   5.407  19.104  0.00  0.00    +0.000 A 
ATOM      6  C   UNL     1       3.784   5.542  18.635  0.00  0.00    +0.000 A 
ENDROOT
BRANCH   5   7
ATOM      7  C   UNL     1       1.994   6.276  20.177  0.00  0.00    +0.000 C 
ATOM      8  C   UNL     1       1.638   7.561  20.031  0.00  0.00    +0.000 C 
ATOM      9  S   UNL     1       1.159   8.557  21.371  0.00  0.00    +0.000 S 
ATOM     10  C   UNL     1       1.068   9.995  20.383  0.00  0.00    +0.000 C 
ATOM     11  S   UNL     1       0.712  11.526  20.901  0.00  0.00    +0.000 S 
ATOM     12  N   UNL     1       1.339   9.679  19.088  0.00  0.00    +0.000 N 
ATOM     13  C   UNL     1       1.617   8.374  18.782  0.00  0.00    +0.000 C 
ATOM     14  O   UNL     1       1.792   7.971  17.642  0.00  0.00    +0.000 OA
ATOM     15  H   UNL     1       1.303  10.372  18.355  0.00  0.00    +0.000 HD
ENDBRANCH   5   7
BRANCH   1  16
ATOM     16  O   UNL     1       5.591   4.691  17.223  0.00  0.00    +0.000 OA
BRANCH  16  20
ATOM     17  C   UNL     1       8.183   7.715  18.477  0.00  0.00    +0.000 A 
ATOM     18  C   UNL     1       7.260   7.983  17.467  0.00  0.00    +0.000 A 
ATOM     19  C   UNL     1       6.332   7.013  17.092  0.00  0.00    +0.000 A 
ATOM     20  C   UNL     1       6.392   5.733  17.652  0.00  0.00    +0.000 A 
ATOM     21  C   UNL     1       7.292   5.470  18.677  0.00  0.00    +0.000 A 
ATOM     22  C   UNL     1       8.188   6.464  19.097  0.00  0.00    +0.000 A 
BRANCH  17  24
ATOM     23  C   UNL     1       8.674  10.006  18.242  0.00  0.00    +0.000 C 
ATOM     24  O   UNL     1       9.059   8.731  18.738  0.00  0.00    +0.000 OA
ENDBRANCH  17  24
ENDBRANCH  16  20
ENDBRANCH   1  16
TORSDOF 4
ENDMDL
MODEL 7
REMARK VINA RESULT:      -6.4      3.586      5.805
REMARK  Name = 
REMARK  5 active torsions:
REMARK  status: ('A' for Active; 'I' for Inactive)
REMARK    1  A    between atoms: C_1  and  O_2
REMARK    2  A    between atoms: O_2  and  C_3
REMARK    3  A    between atoms: C_6  and  O_7
REMARK    4  A    between atoms: O_7  and  C_8
REMARK    5  A    between atoms: C_12  and  C_13
REMARK                            x       y       z     vdW  Elec       q    Type
REMARK                         _______ _______ _______ _____ _____    ______ ____
ROOT
ATOM      1  C   UNL     1       1.648   7.991  20.056  0.00  0.00    +0.000 A 
ATOM      2  C   UNL     1       2.239   8.051  18.795  0.00  0.00    +0.000 A 
ATOM      3  C   UNL     1       1.787   8.983  17.858  0.00  0.00    +0.000 A 
ATOM      4  C   UNL     1       0.746   9.857  18.183  0.00  0.00    +0.000 A 
ATOM      5  C   UNL     1       0.173   9.823  19.459  0.00  0.00    +0.000 A 
ATOM      6  C   UNL     1       0.650   8.912  20.403  0.00  0.00    +0.000 A 
ENDROOT
BRANCH   5   7
ATOM      7  C   UNL     1      -0.922  10.728  19.808  0.00  0.00    +0.000 C 
ATOM      8  C   UNL     1      -0.801  11.843  20.543  0.00  0.00    +0.000 C 
ATOM      9  S   UNL     1      -2.165  12.820  20.992  0.00  0.00    +0.000 S 
ATOM     10  C   UNL     1      -1.197  13.859  22.010  0.00  0.00    +0.000 C 
ATOM     11  S   UNL     1      -1.742  15.117  22.937  0.00  0.00    +0.000 S 
ATOM     12  N   UNL     1       0.109  13.483  21.939  0.00  0.00    +0.000 N 
ATOM     13  C   UNL     1       0.438  12.427  21.133  0.00  0.00    +0.000 C 
ATOM     14  O   UNL     1       1.586  12.061  20.934  0.00  0.00    +0.000 OA
ATOM     15  H   UNL     1       0.832  13.984  22.432  0.00  0.00    +0.000 HD
ENDBRANCH   5   7
BRANCH   1  16
ATOM     16  O   UNL     1       2.094   7.007  20.918  0.00  0.00    +0.000 OA
BRANCH  16  20
ATOM     17  C   UNL     1       2.134   3.143  19.334  0.00  0.00    +0.000 A 
ATOM     18  C   UNL     1       3.299   3.907  19.299  0.00  0.00    +0.000 A 
ATOM     19  C   UNL     1       3.329   5.167  19.895  0.00  0.00    +0.000 A 
ATOM     20  C   UNL     1       2.161   5.712  20.437  0.00  0.00    +0.000 A 
ATOM     21  C   UNL     1       1.005   4.944  20.500  0.00  0.00    +0.000 A 
ATOM     22  C   UNL     1       0.990   3.653  19.952  0.00  0.00    +0.000 A 
BRANCH  17  24
ATOM     23  C   UNL     1       3.467   1.667  18.072  0.00  0.00    +0.000 C 
ATOM     24  O   UNL     1       2.217   1.939  18.692  0.00  0.00    +0.000 OA
ENDBRANCH  17  24
ENDBRANCH  16  20
ENDBRANCH   1  16
TORSDOF 4
ENDMDL
MODEL 8
REMARK VINA RESULT:      -6.3      1.864      2.418
REMARK  Name = 
REMARK  5 active torsions:
REMARK  status: ('A' for Active; 'I' for Inactive)
REMARK    1  A    between atoms: C_1  and  O_2
REMARK    2  A    between atoms: O_2  and  C_3
REMARK    3  A    between atoms: C_6  and  O_7
REMARK    4  A    between atoms: O_7  and  C_8
REMARK    5  A    between atoms: C_12  and  C_13
REMARK                            x       y       z     vdW  Elec       q    Type
REMARK                         _______ _______ _______ _____ _____    ______ ____
ROOT
ATOM      1  C   UNL     1       4.191   4.468  18.581  0.00  0.00    +0.000 A 
ATOM      2  C   UNL     1       3.305   3.705  17.821  0.00  0.00    +0.000 A 
ATOM      3  C   UNL     1       1.927   3.876  17.979  0.00  0.00    +0.000 A 
ATOM      4  C   UNL     1       1.436   4.811  18.894  0.00  0.00    +0.000 A 
ATOM      5  C   UNL     1       2.321   5.603  19.633  0.00  0.00    +0.000 A 
ATOM      6  C   UNL     1       3.697   5.452  19.449  0.00  0.00    +0.000 A 
ENDROOT
BRANCH   5   7
ATOM      7  C   UNL     1       1.819   6.580  20.598  0.00  0.00    +0.000 C 
ATOM      8  C   UNL     1       1.525   7.859  20.324  0.00  0.00    +0.000 C 
ATOM      9  S   UNL     1       1.017   8.985  21.545  0.00  0.00    +0.000 S 
ATOM     10  C   UNL     1       1.039  10.334  20.434  0.00  0.00    +0.000 C 
ATOM     11  S   UNL     1       0.720  11.917  20.799  0.00  0.00    +0.000 S 
ATOM     12  N   UNL     1       1.366   9.897  19.189  0.00  0.00    +0.000 N 
ATOM     13  C   UNL     1       1.604   8.561  19.011  0.00  0.00    +0.000 C 
ATOM     14  O   UNL     1       1.824   8.053  17.921  0.00  0.00    +0.000 OA
ATOM     15  H   UNL     1       1.398  10.523  18.398  0.00  0.00    +0.000 HD
ENDBRANCH   5   7
BRANCH   1  16
ATOM     16  O   UNL     1       5.540   4.210  18.428  0.00  0.00    +0.000 OA
BRANCH  16  20
ATOM     17  C   UNL     1       7.051   4.952  14.606  0.00  0.00    +0.000 A 
ATOM     18  C   UNL     1       7.401   5.801  15.655  0.00  0.00    +0.000 A 
ATOM     19  C   UNL     1       6.974   5.524  16.953  0.00  0.00    +0.000 A 
ATOM     20  C   UNL     1       6.106   4.454  17.190  0.00  0.00    +0.000 A 
ATOM     21  C   UNL     1       5.777   3.589  16.153  0.00  0.00    +0.000 A 
ATOM     22  C   UNL     1       6.253   3.834  14.857  0.00  0.00    +0.000 A 
BRANCH  17  24
ATOM     23  C   UNL     1       7.192   4.458  12.308  0.00  0.00    +0.000 C 
ATOM     24  O   UNL     1       7.504   5.342  13.377  0.00  0.00    +0.000 OA
ENDBRANCH  17  24
ENDBRANCH  16  20
ENDBRANCH   1  16
TORSDOF 4
ENDMDL
MODEL 9
REMARK VINA RESULT:      -6.3      3.886      6.111
REMARK  Name = 
REMARK  5 active torsions:
REMARK  status: ('A' for Active; 'I' for Inactive)
REMARK    1  A    between atoms: C_1  and  O_2
REMARK    2  A    between atoms: O_2  and  C_3
REMARK    3  A    between atoms: C_6  and  O_7
REMARK    4  A    between atoms: O_7  and  C_8
REMARK    5  A    between atoms: C_12  and  C_13
REMARK                            x       y       z     vdW  Elec       q    Type
REMARK                         _______ _______ _______ _____ _____    ______ ____
ROOT
ATOM      1  C   UNL     1       1.394   8.348  20.707  0.00  0.00    +0.000 A 
ATOM      2  C   UNL     1       0.703   8.173  21.905  0.00  0.00    +0.000 A 
ATOM      3  C   UNL     1      -0.302   9.074  22.266  0.00  0.00    +0.000 A 
ATOM      4  C   UNL     1      -0.616  10.147  21.428  0.00  0.00    +0.000 A 
ATOM      5  C   UNL     1       0.051  10.307  20.209  0.00  0.00    +0.000 A 
ATOM      6  C   UNL     1       1.032   9.386  19.837  0.00  0.00    +0.000 A 
ENDROOT
BRANCH   5   7
ATOM      7  C   UNL     1      -0.265  11.430  19.328  0.00  0.00    +0.000 C 
ATOM      8  C   UNL     1       0.242  12.667  19.438  0.00  0.00    +0.000 C 
ATOM      9  S   UNL     1      -0.250  13.975  18.407  0.00  0.00    +0.000 S 
ATOM     10  C   UNL     1       0.687  15.148  19.301  0.00  0.00    +0.000 C 
ATOM     11  S   UNL     1       0.755  16.778  19.018  0.00  0.00    +0.000 S 
ATOM     12  N   UNL     1       1.374  14.524  20.295  0.00  0.00    +0.000 N 
ATOM     13  C   UNL     1       1.239  13.169  20.427  0.00  0.00    +0.000 C 
ATOM     14  O   UNL     1       1.873  12.501  21.230  0.00  0.00    +0.000 OA
ATOM     15  H   UNL     1       2.002  15.029  20.902  0.00  0.00    +0.000 HD
ENDBRANCH   5   7
BRANCH   1  16
ATOM     16  O   UNL     1       2.420   7.463  20.433  0.00  0.00    +0.000 OA
BRANCH  16  20
ATOM     17  C   UNL     1       1.631   3.821  18.548  0.00  0.00    +0.000 A 
ATOM     18  C   UNL     1       1.380   3.951  19.913  0.00  0.00    +0.000 A 
ATOM     19  C   UNL     1       1.559   5.181  20.544  0.00  0.00    +0.000 A 
ATOM     20  C   UNL     1       2.092   6.261  19.833  0.00  0.00    +0.000 A 
ATOM     21  C   UNL     1       2.318   6.144  18.467  0.00  0.00    +0.000 A 
ATOM     22  C   UNL     1       2.083   4.923  17.819  0.00  0.00    +0.000 A 
BRANCH  17  24
ATOM     23  C   UNL     1       2.630   1.786  17.911  0.00  0.00    +0.000 C 
ATOM     24  O   UNL     1       1.448   2.562  18.048  0.00  0.00    +0.000 OA
ENDBRANCH  17  24
ENDBRANCH  16  20
ENDBRANCH   1  16
TORSDOF 4
ENDMDL
