MODEL 1
REMARK VINA RESULT:      -8.0      0.000      0.000
REMARK  Name = 
REMARK  6 active torsions:
REMARK  status: ('A' for Active; 'I' for Inactive)
REMARK    1  A    between atoms: C_1  and  N_2
REMARK    2  A    between atoms: C_6  and  C_7
REMARK    3  A    between atoms: C_7  and  N_8
REMARK    4  A    between atoms: C_9  and  C_11
REMARK    5  A    between atoms: N_15  and  C_16
REMARK    6  A    between atoms: C_16  and  C_17
REMARK                            x       y       z     vdW  Elec       q    Type
REMARK                         _______ _______ _______ _____ _____    ______ ____
ROOT
ATOM      1  C   UNL     1       6.054   4.798  17.895  0.00  0.00    +0.000 C 
ATOM      2  C   UNL     1       5.383   6.168  18.015  0.00  0.00    +0.000 C 
ATOM      3  C   UNL     1       4.641   6.571  16.744  0.00  0.00    +0.000 C 
ATOM      4  C   UNL     1       5.497   6.372  15.491  0.00  0.00    +0.000 C 
ATOM      5  N   UNL     1       6.085   5.021  15.402  0.00  0.00    +0.000 NA
ATOM      6  C   UNL     1       6.878   4.709  16.607  0.00  0.00    +0.000 C 
ENDROOT
BRANCH   1   8
ATOM      7  N   UNL     1       5.032   3.043  19.292  0.00  0.00    +0.000 N 
ATOM      8  C   UNL     1       5.061   3.641  18.061  0.00  0.00    +0.000 C 
ATOM      9  O   UNL     1       4.382   3.236  17.119  0.00  0.00    +0.000 OA
ATOM     10  H   UNL     1       5.382   3.586  20.084  0.00  0.00    +0.000 HD
BRANCH   7  11
ATOM     11  C   UNL     1       4.172   1.920  19.587  0.00  0.00    +0.000 C 
BRANCH  11  17
ATOM     12  C   UNL     1       1.322   2.790  18.603  0.00  0.00    +0.000 C 
ATOM     13  N   UNL     1       1.797   2.766  19.960  0.00  0.00    +0.000 N 
ATOM     14  C   UNL     1       1.075   3.136  21.053  0.00  0.00    +0.000 A 
ATOM     15  N   UNL     1       1.806   2.990  22.132  0.00  0.00    +0.000 NA
ATOM     16  N   UNL     1       3.036   2.525  21.742  0.00  0.00    +0.000 NA
ATOM     17  C   UNL     1       3.031   2.385  20.425  0.00  0.00    +0.000 A 
ENDBRANCH  11  17
ENDBRANCH   7  11
ENDBRANCH   1   8
BRANCH   5  18
ATOM     18  C   UNL     1       6.909   4.942  14.177  0.00  0.00    +0.000 C 
BRANCH  18  19
ATOM     19  C   UNL     1       6.358   4.024  13.105  0.00  0.00    +0.000 A 
ATOM     20  C   UNL     1       4.977   3.987  12.845  0.00  0.00    +0.000 A 
ATOM     21  C   UNL     1       4.455   3.114  11.885  0.00  0.00    +0.000 A 
ATOM     22  C   UNL     1       5.310   2.276  11.174  0.00  0.00    +0.000 A 
ATOM     23  C   UNL     1       6.678   2.322  11.420  0.00  0.00    +0.000 A 
ATOM     24  F   UNL     1       7.496   1.521  10.725  0.00  0.00    +0.000 F 
ATOM     25  C   UNL     1       7.209   3.181  12.376  0.00  0.00    +0.000 A 
ENDBRANCH  18  19
ENDBRANCH   5  18
TORSDOF 5
ENDMDL
MODEL 2
REMARK VINA RESULT:      -7.9      0.939      1.360
REMARK  Name = 
REMARK  6 active torsions:
REMARK  status: ('A' for Active; 'I' for Inactive)
REMARK    1  A    between atoms: C_1  and  N_2
REMARK    2  A    between atoms: C_6  and  C_7
REMARK    3  A    between atoms: C_7  and  N_8
REMARK    4  A    between atoms: C_9  and  C_11
REMARK    5  A    between atoms: N_15  and  C_16
REMARK    6  A    between atoms: C_16  and  C_17
REMARK                            x       y       z     vdW  Elec       q    Type
REMARK                         _______ _______ _______ _____ _____    ______ ____
ROOT
ATOM      1  C   UNL     1       6.023   4.782  17.800  0.00  0.00    +0.000 C 
ATOM      2  C   UNL     1       5.348   6.152  17.900  0.00  0.00    +0.000 C 
ATOM      3  C   UNL     1       4.606   6.534  16.623  0.00  0.00    +0.000 C 
ATOM      4  C   UNL     1       5.463   6.319  15.373  0.00  0.00    +0.000 C 
ATOM      5  N   UNL     1       6.055   4.968  15.305  0.00  0.00    +0.000 NA
ATOM      6  C   UNL     1       6.848   4.675  16.514  0.00  0.00    +0.000 C 
ENDROOT
BRANCH   1   8
ATOM      7  N   UNL     1       5.023   3.029  19.215  0.00  0.00    +0.000 N 
ATOM      8  C   UNL     1       5.032   3.625  17.983  0.00  0.00    +0.000 C 
ATOM      9  O   UNL     1       4.339   3.219  17.052  0.00  0.00    +0.000 OA
ATOM     10  H   UNL     1       5.384   3.573  20.001  0.00  0.00    +0.000 HD
BRANCH   7  11
ATOM     11  C   UNL     1       4.167   1.906  19.524  0.00  0.00    +0.000 C 
BRANCH  11  17
ATOM     12  C   UNL     1       1.266   2.681  18.615  0.00  0.00    +0.000 C 
ATOM     13  N   UNL     1       1.788   2.709  19.955  0.00  0.00    +0.000 N 
ATOM     14  C   UNL     1       1.095   3.096  21.061  0.00  0.00    +0.000 A 
ATOM     15  N   UNL     1       1.865   2.999  22.118  0.00  0.00    +0.000 NA
ATOM     16  N   UNL     1       3.091   2.550  21.699  0.00  0.00    +0.000 NA
ATOM     17  C   UNL     1       3.045   2.370  20.388  0.00  0.00    +0.000 A 
ENDBRANCH  11  17
ENDBRANCH   7  11
ENDBRANCH   1   8
BRANCH   5  18
ATOM     18  C   UNL     1       6.879   4.872  14.081  0.00  0.00    +0.000 C 
BRANCH  18  19
ATOM     19  C   UNL     1       6.352   3.907  13.040  0.00  0.00    +0.000 A 
ATOM     20  C   UNL     1       7.232   3.041  12.366  0.00  0.00    +0.000 A 
ATOM     21  C   UNL     1       6.762   2.174  11.376  0.00  0.00    +0.000 A 
ATOM     22  C   UNL     1       5.407   2.160  11.055  0.00  0.00    +0.000 A 
ATOM     23  C   UNL     1       4.532   3.005  11.730  0.00  0.00    +0.000 A 
ATOM     24  F   UNL     1       3.229   2.979  11.424  0.00  0.00    +0.000 F 
ATOM     25  C   UNL     1       4.989   3.877  12.713  0.00  0.00    +0.000 A 
ENDBRANCH  18  19
ENDBRANCH   5  18
TORSDOF 5
ENDMDL
MODEL 3
REMARK VINA RESULT:      -7.9      4.211      7.657
REMARK  Name = 
REMARK  6 active torsions:
REMARK  status: ('A' for Active; 'I' for Inactive)
REMARK    1  A    between atoms: C_1  and  N_2
REMARK    2  A    between atoms: C_6  and  C_7
REMARK    3  A    between atoms: C_7  and  N_8
REMARK    4  A    between atoms: C_9  and  C_11
REMARK    5  A    between atoms: N_15  and  C_16
REMARK    6  A    between atoms: C_16  and  C_17
REMARK                            x       y       z     vdW  Elec       q    Type
REMARK                         _______ _______ _______ _____ _____    ______ ____
ROOT
ATOM      1  C   UNL     1       3.296   2.650  19.634  0.00  0.00    +0.000 C 
ATOM      2  C   UNL     1       1.957   1.910  19.595  0.00  0.00    +0.000 C 
ATOM      3  C   UNL     1       0.804   2.808  19.155  0.00  0.00    +0.000 C 
ATOM      4  C   UNL     1       0.792   4.139  19.910  0.00  0.00    +0.000 C 
ATOM      5  N   UNL     1       2.095   4.831  19.881  0.00  0.00    +0.000 NA
ATOM      6  C   UNL     1       3.167   3.965  20.409  0.00  0.00    +0.000 C 
ENDROOT
BRANCH   1   8
ATOM      7  N   UNL     1       4.280   4.098  17.900  0.00  0.00    +0.000 N 
ATOM      8  C   UNL     1       3.912   2.824  18.241  0.00  0.00    +0.000 C 
ATOM      9  O   UNL     1       4.005   1.882  17.456  0.00  0.00    +0.000 OA
ATOM     10  H   UNL     1       4.450   4.756  18.662  0.00  0.00    +0.000 HD
BRANCH   7  11
ATOM     11  C   UNL     1       4.843   4.421  16.608  0.00  0.00    +0.000 C 
BRANCH  11  17
ATOM     12  C   UNL     1       7.731   4.454  17.833  0.00  0.00    +0.000 C 
ATOM     13  N   UNL     1       7.007   5.575  17.299  0.00  0.00    +0.000 N 
ATOM     14  C   UNL     1       7.464   6.856  17.250  0.00  0.00    +0.000 A 
ATOM     15  N   UNL     1       6.557   7.626  16.701  0.00  0.00    +0.000 NA
ATOM     16  N   UNL     1       5.476   6.840  16.391  0.00  0.00    +0.000 NA
ATOM     17  C   UNL     1       5.749   5.595  16.750  0.00  0.00    +0.000 A 
ENDBRANCH  11  17
ENDBRANCH   7  11
ENDBRANCH   1   8
BRANCH   5  18
ATOM     18  C   UNL     1       1.983   6.086  20.656  0.00  0.00    +0.000 C 
BRANCH  18  19
ATOM     19  C   UNL     1       1.865   7.339  19.814  0.00  0.00    +0.000 A 
ATOM     20  C   UNL     1       2.456   7.394  18.538  0.00  0.00    +0.000 A 
ATOM     21  C   UNL     1       2.386   8.559  17.770  0.00  0.00    +0.000 A 
ATOM     22  C   UNL     1       1.720   9.677  18.266  0.00  0.00    +0.000 A 
ATOM     23  C   UNL     1       1.122   9.619  19.521  0.00  0.00    +0.000 A 
ATOM     24  F   UNL     1       0.474  10.694  19.988  0.00  0.00    +0.000 F 
ATOM     25  C   UNL     1       1.190   8.468  20.298  0.00  0.00    +0.000 A 
ENDBRANCH  18  19
ENDBRANCH   5  18
TORSDOF 5
ENDMDL
MODEL 4
REMARK VINA RESULT:      -7.8      4.066      5.899
REMARK  Name = 
REMARK  6 active torsions:
REMARK  status: ('A' for Active; 'I' for Inactive)
REMARK    1  A    between atoms: C_1  and  N_2
REMARK    2  A    between atoms: C_6  and  C_7
REMARK    3  A    between atoms: C_7  and  N_8
REMARK    4  A    between atoms: C_9  and  C_11
REMARK    5  A    between atoms: N_15  and  C_16
REMARK    6  A    between atoms: C_16  and  C_17
REMARK                            x       y       z     vdW  Elec       q    Type
REMARK                         _______ _______ _______ _____ _____    ______ ____
ROOT
ATOM      1  C   UNL     1       5.710   4.342  17.391  0.00  0.00    +0.000 C 
ATOM      2  C   UNL     1       7.088   4.957  17.138  0.00  0.00    +0.000 C 
ATOM      3  C   UNL     1       7.187   6.397  17.632  0.00  0.00    +0.000 C 
ATOM      4  C   UNL     1       6.000   7.246  17.170  0.00  0.00    +0.000 C 
ATOM      5  N   UNL     1       4.695   6.628  17.476  0.00  0.00    +0.000 NA
ATOM      6  C   UNL     1       4.601   5.275  16.895  0.00  0.00    +0.000 C 
ENDROOT
BRANCH   1   8
ATOM      7  N   UNL     1       4.888   2.698  19.034  0.00  0.00    +0.000 N 
ATOM      8  C   UNL     1       5.523   3.897  18.847  0.00  0.00    +0.000 C 
ATOM      9  O   UNL     1       5.865   4.613  19.787  0.00  0.00    +0.000 OA
ATOM     10  H   UNL     1       4.894   2.039  18.254  0.00  0.00    +0.000 HD
BRANCH   7  11
ATOM     11  C   UNL     1       4.612   2.167  20.349  0.00  0.00    +0.000 C 
BRANCH  11  17
ATOM     12  C   UNL     1       2.147   2.274  18.410  0.00  0.00    +0.000 C 
ATOM     13  N   UNL     1       2.140   2.506  19.829  0.00  0.00    +0.000 N 
ATOM     14  C   UNL     1       1.043   2.827  20.568  0.00  0.00    +0.000 A 
ATOM     15  N   UNL     1       1.387   2.966  21.826  0.00  0.00    +0.000 NA
ATOM     16  N   UNL     1       2.737   2.743  21.916  0.00  0.00    +0.000 NA
ATOM     17  C   UNL     1       3.195   2.460  20.706  0.00  0.00    +0.000 A 
ENDBRANCH  11  17
ENDBRANCH   7  11
ENDBRANCH   1   8
BRANCH   5  18
ATOM     18  C   UNL     1       3.622   7.510  16.969  0.00  0.00    +0.000 C 
BRANCH  18  19
ATOM     19  C   UNL     1       2.686   8.041  18.035  0.00  0.00    +0.000 A 
ATOM     20  C   UNL     1       1.999   9.252  17.836  0.00  0.00    +0.000 A 
ATOM     21  C   UNL     1       1.164   9.770  18.829  0.00  0.00    +0.000 A 
ATOM     22  C   UNL     1       1.003   9.079  20.027  0.00  0.00    +0.000 A 
ATOM     23  C   UNL     1       1.669   7.874  20.220  0.00  0.00    +0.000 A 
ATOM     24  F   UNL     1       1.502   7.209  21.371  0.00  0.00    +0.000 F 
ATOM     25  C   UNL     1       2.509   7.351  19.242  0.00  0.00    +0.000 A 
ENDBRANCH  18  19
ENDBRANCH   5  18
TORSDOF 5
ENDMDL
MODEL 5
REMARK VINA RESULT:      -7.8      4.046      6.075
REMARK  Name = 
REMARK  6 active torsions:
REMARK  status: ('A' for Active; 'I' for Inactive)
REMARK    1  A    between atoms: C_1  and  N_2
REMARK    2  A    between atoms: C_6  and  C_7
REMARK    3  A    between atoms: C_7  and  N_8
REMARK    4  A    between atoms: C_9  and  C_11
REMARK    5  A    between atoms: N_15  and  C_16
REMARK    6  A    between atoms: C_16  and  C_17
REMARK                            x       y       z     vdW  Elec       q    Type
REMARK                         _______ _______ _______ _____ _____    ______ ____
ROOT
ATOM      1  C   UNL     1       1.384   3.530  18.312  0.00  0.00    +0.000 C 
ATOM      2  C   UNL     1       1.649   2.070  18.685  0.00  0.00    +0.000 C 
ATOM      3  C   UNL     1       3.106   1.817  19.062  0.00  0.00    +0.000 C 
ATOM      4  C   UNL     1       4.077   2.415  18.041  0.00  0.00    +0.000 C 
ATOM      5  N   UNL     1       3.803   3.836  17.750  0.00  0.00    +0.000 NA
ATOM      6  C   UNL     1       2.414   4.025  17.291  0.00  0.00    +0.000 C 
ENDROOT
BRANCH   1   8
ATOM      7  N   UNL     1       1.969   5.611  19.496  0.00  0.00    +0.000 N 
ATOM      8  C   UNL     1       1.264   4.438  19.542  0.00  0.00    +0.000 C 
ATOM      9  O   UNL     1       0.624   4.095  20.534  0.00  0.00    +0.000 OA
ATOM     10  H   UNL     1       2.228   5.965  18.574  0.00  0.00    +0.000 HD
BRANCH   7  11
ATOM     11  C   UNL     1       1.979   6.550  20.595  0.00  0.00    +0.000 C 
BRANCH  11  17
ATOM     12  C   UNL     1       0.782   8.980  22.178  0.00  0.00    +0.000 C 
ATOM     13  N   UNL     1       1.163   8.956  20.792  0.00  0.00    +0.000 N 
ATOM     14  C   UNL     1       1.051  10.001  19.927  0.00  0.00    +0.000 A 
ATOM     15  N   UNL     1       1.491   9.642  18.745  0.00  0.00    +0.000 NA
ATOM     16  N   UNL     1       1.890   8.333  18.830  0.00  0.00    +0.000 NA
ATOM     17  C   UNL     1       1.695   7.917  20.071  0.00  0.00    +0.000 A 
ENDBRANCH  11  17
ENDBRANCH   7  11
ENDBRANCH   1   8
BRANCH   5  18
ATOM     18  C   UNL     1       4.775   4.309  16.740  0.00  0.00    +0.000 C 
BRANCH  18  19
ATOM     19  C   UNL     1       5.822   5.265  17.272  0.00  0.00    +0.000 A 
ATOM     20  C   UNL     1       5.944   6.557  16.729  0.00  0.00    +0.000 A 
ATOM     21  C   UNL     1       6.932   7.432  17.186  0.00  0.00    +0.000 A 
ATOM     22  C   UNL     1       7.804   7.027  18.193  0.00  0.00    +0.000 A 
ATOM     23  C   UNL     1       7.676   5.755  18.742  0.00  0.00    +0.000 A 
ATOM     24  F   UNL     1       8.511   5.375  19.717  0.00  0.00    +0.000 F 
ATOM     25  C   UNL     1       6.700   4.872  18.291  0.00  0.00    +0.000 A 
ENDBRANCH  18  19
ENDBRANCH   5  18
TORSDOF 5
ENDMDL
MODEL 6
REMARK VINA RESULT:      -7.7      4.238      7.520
REMARK  Name = 
REMARK  6 active torsions:
REMARK  status: ('A' for Active; 'I' for Inactive)
REMARK    1  A    between atoms: C_1  and  N_2
REMARK    2  A    between atoms: C_6  and  C_7
REMARK    3  A    between atoms: C_7  and  N_8
REMARK    4  A    between atoms: C_9  and  C_11
REMARK    5  A    between atoms: N_15  and  C_16
REMARK    6  A    between atoms: C_16  and  C_17
REMARK                            x       y       z     vdW  Elec       q    Type
REMARK                         _______ _______ _______ _____ _____    ______ ____
ROOT
ATOM      1  C   UNL     1       2.823   2.851  21.045  0.00  0.00    +0.000 C 
ATOM      2  C   UNL     1       1.549   2.198  20.504  0.00  0.00    +0.000 C 
ATOM      3  C   UNL     1       0.818   3.083  19.499  0.00  0.00    +0.000 C 
ATOM      4  C   UNL     1       0.649   4.516  20.011  0.00  0.00    +0.000 C 
ATOM      5  N   UNL     1       1.915   5.114  20.481  0.00  0.00    +0.000 NA
ATOM      6  C   UNL     1       2.540   4.278  21.524  0.00  0.00    +0.000 C 
ENDROOT
BRANCH   1   8
ATOM      7  N   UNL     1       4.061   3.754  19.114  0.00  0.00    +0.000 N 
ATOM      8  C   UNL     1       3.993   2.764  20.057  0.00  0.00    +0.000 C 
ATOM      9  O   UNL     1       4.780   1.819  20.075  0.00  0.00    +0.000 OA
ATOM     10  H   UNL     1       3.581   4.632  19.322  0.00  0.00    +0.000 HD
BRANCH   7  11
ATOM     11  C   UNL     1       5.088   3.784  18.098  0.00  0.00    +0.000 C 
BRANCH  11  17
ATOM     12  C   UNL     1       6.942   5.535  16.269  0.00  0.00    +0.000 C 
ATOM     13  N   UNL     1       6.978   5.448  17.704  0.00  0.00    +0.000 N 
ATOM     14  C   UNL     1       7.847   6.115  18.511  0.00  0.00    +0.000 A 
ATOM     15  N   UNL     1       7.605   5.812  19.763  0.00  0.00    +0.000 NA
ATOM     16  N   UNL     1       6.563   4.920  19.781  0.00  0.00    +0.000 NA
ATOM     17  C   UNL     1       6.179   4.701  18.533  0.00  0.00    +0.000 A 
ENDBRANCH  11  17
ENDBRANCH   7  11
ENDBRANCH   1   8
BRANCH   5  18
ATOM     18  C   UNL     1       1.639   6.480  20.975  0.00  0.00    +0.000 C 
BRANCH  18  19
ATOM     19  C   UNL     1       1.717   7.561  19.917  0.00  0.00    +0.000 A 
ATOM     20  C   UNL     1       2.441   7.341  18.731  0.00  0.00    +0.000 A 
ATOM     21  C   UNL     1       2.552   8.347  17.766  0.00  0.00    +0.000 A 
ATOM     22  C   UNL     1       1.934   9.577  17.975  0.00  0.00    +0.000 A 
ATOM     23  C   UNL     1       1.205   9.791  19.140  0.00  0.00    +0.000 A 
ATOM     24  F   UNL     1       0.605  10.973  19.330  0.00  0.00    +0.000 F 
ATOM     25  C   UNL     1       1.093   8.801  20.111  0.00  0.00    +0.000 A 
ENDBRANCH  18  19
ENDBRANCH   5  18
TORSDOF 5
ENDMDL
MODEL 7
REMARK VINA RESULT:      -7.7      3.941      5.976
REMARK  Name = 
REMARK  6 active torsions:
REMARK  status: ('A' for Active; 'I' for Inactive)
REMARK    1  A    between atoms: C_1  and  N_2
REMARK    2  A    between atoms: C_6  and  C_7
REMARK    3  A    between atoms: C_7  and  N_8
REMARK    4  A    between atoms: C_9  and  C_11
REMARK    5  A    between atoms: N_15  and  C_16
REMARK    6  A    between atoms: C_16  and  C_17
REMARK                            x       y       z     vdW  Elec       q    Type
REMARK                         _______ _______ _______ _____ _____    ______ ____
ROOT
ATOM      1  C   UNL     1       5.717   4.301  16.872  0.00  0.00    +0.000 C 
ATOM      2  C   UNL     1       7.115   4.867  17.130  0.00  0.00    +0.000 C 
ATOM      3  C   UNL     1       7.092   6.099  18.030  0.00  0.00    +0.000 C 
ATOM      4  C   UNL     1       6.049   7.123  17.575  0.00  0.00    +0.000 C 
ATOM      5  N   UNL     1       4.708   6.534  17.382  0.00  0.00    +0.000 NA
ATOM      6  C   UNL     1       4.757   5.409  16.428  0.00  0.00    +0.000 C 
ENDROOT
BRANCH   1   8
ATOM      7  N   UNL     1       4.314   2.471  17.742  0.00  0.00    +0.000 N 
ATOM      8  C   UNL     1       5.189   3.478  18.053  0.00  0.00    +0.000 C 
ATOM      9  O   UNL     1       5.486   3.755  19.214  0.00  0.00    +0.000 OA
ATOM     10  H   UNL     1       4.335   2.111  16.787  0.00  0.00    +0.000 HD
BRANCH   7  11
ATOM     11  C   UNL     1       3.708   1.634  18.753  0.00  0.00    +0.000 C 
BRANCH  11  17
ATOM     12  C   UNL     1       2.713   2.774  21.502  0.00  0.00    +0.000 C 
ATOM     13  N   UNL     1       1.947   2.646  20.292  0.00  0.00    +0.000 N 
ATOM     14  C   UNL     1       0.639   2.994  20.149  0.00  0.00    +0.000 A 
ATOM     15  N   UNL     1       0.252   2.750  18.920  0.00  0.00    +0.000 NA
ATOM     16  N   UNL     1       1.321   2.221  18.244  0.00  0.00    +0.000 NA
ATOM     17  C   UNL     1       2.351   2.161  19.074  0.00  0.00    +0.000 A 
ENDBRANCH  11  17
ENDBRANCH   7  11
ENDBRANCH   1   8
BRANCH   5  18
ATOM     18  C   UNL     1       3.787   7.594  16.921  0.00  0.00    +0.000 C 
BRANCH  18  19
ATOM     19  C   UNL     1       2.805   8.076  17.970  0.00  0.00    +0.000 A 
ATOM     20  C   UNL     1       2.135   9.301  17.804  0.00  0.00    +0.000 A 
ATOM     21  C   UNL     1       1.257   9.772  18.784  0.00  0.00    +0.000 A 
ATOM     22  C   UNL     1       1.037   9.020  19.936  0.00  0.00    +0.000 A 
ATOM     23  C   UNL     1       1.688   7.801  20.095  0.00  0.00    +0.000 A 
ATOM     24  F   UNL     1       1.465   7.078  21.200  0.00  0.00    +0.000 F 
ATOM     25  C   UNL     1       2.569   7.324  19.129  0.00  0.00    +0.000 A 
ENDBRANCH  18  19
ENDBRANCH   5  18
TORSDOF 5
ENDMDL
MODEL 8
REMARK VINA RESULT:      -7.6      4.147      6.137
REMARK  Name = 
REMARK  6 active torsions:
REMARK  status: ('A' for Active; 'I' for Inactive)
REMARK    1  A    between atoms: C_1  and  N_2
REMARK    2  A    between atoms: C_6  and  C_7
REMARK    3  A    between atoms: C_7  and  N_8
REMARK    4  A    between atoms: C_9  and  C_11
REMARK    5  A    between atoms: N_15  and  C_16
REMARK    6  A    between atoms: C_16  and  C_17
REMARK                            x       y       z     vdW  Elec       q    Type
REMARK                         _______ _______ _______ _____ _____    ______ ____
ROOT
ATOM      1  C   UNL     1       5.492   4.403  17.184  0.00  0.00    +0.000 C 
ATOM      2  C   UNL     1       6.844   5.040  16.853  0.00  0.00    +0.000 C 
ATOM      3  C   UNL     1       6.989   6.442  17.436  0.00  0.00    +0.000 C 
ATOM      4  C   UNL     1       5.767   7.316  17.142  0.00  0.00    +0.000 C 
ATOM      5  N   UNL     1       4.493   6.672  17.519  0.00  0.00    +0.000 NA
ATOM      6  C   UNL     1       4.345   5.363  16.855  0.00  0.00    +0.000 C 
ENDROOT
BRANCH   1   8
ATOM      7  N   UNL     1       4.679   2.730  18.801  0.00  0.00    +0.000 N 
ATOM      8  C   UNL     1       5.435   3.856  18.615  0.00  0.00    +0.000 C 
ATOM      9  O   UNL     1       5.983   4.439  19.549  0.00  0.00    +0.000 OA
ATOM     10  H   UNL     1       4.500   2.146  17.982  0.00  0.00    +0.000 HD
BRANCH   7  11
ATOM     11  C   UNL     1       4.504   2.121  20.100  0.00  0.00    +0.000 C 
BRANCH  11  17
ATOM     12  C   UNL     1       1.855   2.379  18.438  0.00  0.00    +0.000 C 
ATOM     13  N   UNL     1       2.006   2.561  19.856  0.00  0.00    +0.000 N 
ATOM     14  C   UNL     1       1.006   2.894  20.717  0.00  0.00    +0.000 A 
ATOM     15  N   UNL     1       1.484   2.977  21.935  0.00  0.00    +0.000 NA
ATOM     16  N   UNL     1       2.827   2.704  21.874  0.00  0.00    +0.000 NA
ATOM     17  C   UNL     1       3.144   2.449  20.614  0.00  0.00    +0.000 A 
ENDBRANCH  11  17
ENDBRANCH   7  11
ENDBRANCH   1   8
BRANCH   5  18
ATOM     18  C   UNL     1       3.381   7.583  17.172  0.00  0.00    +0.000 C 
BRANCH  18  19
ATOM     19  C   UNL     1       2.535   8.022  18.350  0.00  0.00    +0.000 A 
ATOM     20  C   UNL     1       2.470   7.229  19.510  0.00  0.00    +0.000 A 
ATOM     21  C   UNL     1       1.662   7.606  20.586  0.00  0.00    +0.000 A 
ATOM     22  C   UNL     1       0.916   8.780  20.515  0.00  0.00    +0.000 A 
ATOM     23  C   UNL     1       0.990   9.572  19.374  0.00  0.00    +0.000 A 
ATOM     24  F   UNL     1       0.279  10.705  19.316  0.00  0.00    +0.000 F 
ATOM     25  C   UNL     1       1.787   9.205  18.294  0.00  0.00    +0.000 A 
ENDBRANCH  18  19
ENDBRANCH   5  18
TORSDOF 5
ENDMDL
MODEL 9
REMARK VINA RESULT:      -7.5      4.072      6.210
REMARK  Name = 
REMARK  6 active torsions:
REMARK  status: ('A' for Active; 'I' for Inactive)
REMARK    1  A    between atoms: C_1  and  N_2
REMARK    2  A    between atoms: C_6  and  C_7
REMARK    3  A    between atoms: C_7  and  N_8
REMARK    4  A    between atoms: C_9  and  C_11
REMARK    5  A    between atoms: N_15  and  C_16
REMARK    6  A    between atoms: C_16  and  C_17
REMARK                            x       y       z     vdW  Elec       q    Type
REMARK                         _______ _______ _______ _____ _____    ______ ____
ROOT
ATOM      1  C   UNL     1       1.683   3.567  18.345  0.00  0.00    +0.000 C 
ATOM      2  C   UNL     1       1.967   2.173  18.909  0.00  0.00    +0.000 C 
ATOM      3  C   UNL     1       3.393   2.033  19.432  0.00  0.00    +0.000 C 
ATOM      4  C   UNL     1       4.427   2.553  18.430  0.00  0.00    +0.000 C 
ATOM      5  N   UNL     1       4.129   3.918  17.950  0.00  0.00    +0.000 NA
ATOM      6  C   UNL     1       2.778   3.988  17.361  0.00  0.00    +0.000 C 
ENDROOT
BRANCH   1   8
ATOM      7  N   UNL     1       2.115   5.782  19.338  0.00  0.00    +0.000 N 
ATOM      8  C   UNL     1       1.424   4.605  19.445  0.00  0.00    +0.000 C 
ATOM      9  O   UNL     1       0.688   4.359  20.400  0.00  0.00    +0.000 OA
ATOM     10  H   UNL     1       2.464   6.037  18.412  0.00  0.00    +0.000 HD
BRANCH   7  11
ATOM     11  C   UNL     1       1.999   6.838  20.317  0.00  0.00    +0.000 C 
BRANCH  11  17
ATOM     12  C   UNL     1       0.395   9.315  21.385  0.00  0.00    +0.000 C 
ATOM     13  N   UNL     1       1.048   9.193  20.109  0.00  0.00    +0.000 N 
ATOM     14  C   UNL     1       1.063  10.148  19.140  0.00  0.00    +0.000 A 
ATOM     15  N   UNL     1       1.748   9.716  18.108  0.00  0.00    +0.000 NA
ATOM     16  N   UNL     1       2.183   8.448  18.400  0.00  0.00    +0.000 NA
ATOM     17  C   UNL     1       1.762   8.131  19.615  0.00  0.00    +0.000 A 
ENDBRANCH  11  17
ENDBRANCH   7  11
ENDBRANCH   1   8
BRANCH   5  18
ATOM     18  C   UNL     1       5.166   4.315  16.975  0.00  0.00    +0.000 C 
BRANCH  18  19
ATOM     19  C   UNL     1       6.213   5.264  17.519  0.00  0.00    +0.000 A 
ATOM     20  C   UNL     1       7.067   4.857  18.560  0.00  0.00    +0.000 A 
ATOM     21  C   UNL     1       8.010   5.739  19.095  0.00  0.00    +0.000 A 
ATOM     22  C   UNL     1       8.112   7.033  18.590  0.00  0.00    +0.000 A 
ATOM     23  C   UNL     1       7.279   7.433  17.551  0.00  0.00    +0.000 A 
ATOM     24  F   UNL     1       7.389   8.675  17.063  0.00  0.00    +0.000 F 
ATOM     25  C   UNL     1       6.332   6.566  17.014  0.00  0.00    +0.000 A 
ENDBRANCH  18  19
ENDBRANCH   5  18
TORSDOF 5
ENDMDL
