MODEL 1
REMARK VINA RESULT:      -5.6      0.000      0.000
REMARK  Name = 
REMARK  9 active torsions:
REMARK  status: ('A' for Active; 'I' for Inactive)
REMARK    1  A    between atoms: C_1  and  C_2
REMARK    2  A    between atoms: C_2  and  N_3
REMARK    3  A    between atoms: N_3  and  C_4
REMARK    4  A    between atoms: N_3  and  C_6
REMARK    5  A    between atoms: C_4  and  C_5
REMARK    6  A    between atoms: C_9  and  N_10
REMARK    7  A    between atoms: C_15  and  C_16
REMARK    8  A    between atoms: C_15  and  C_18
REMARK    9  A    between atoms: C_26  and  C_27
REMARK                            x       y       z     vdW  Elec       q    Type
REMARK                         _______ _______ _______ _____ _____    ______ ____
ROOT
ATOM      1  N   UNL     1       1.017  12.322  21.499  0.00  0.00    +0.000 NA
ATOM      2  C   UNL     1       0.245  11.286  21.327  0.00  0.00    +0.000 C 
ATOM      3  C   UNL     1       0.471  10.017  22.109  0.00  0.00    +0.000 C 
ATOM      4  C   UNL     1       0.400   8.850  21.430  0.00  0.00    +0.000 C 
ATOM      5  C   UNL     1       0.317   8.940  19.956  0.00  0.00    +0.000 C 
ATOM      6  C   UNL     1       1.377   8.464  19.253  0.00  0.00    +0.000 C 
ATOM      7  C   UNL     1      -0.608   9.997  19.444  0.00  0.00    +0.000 A 
ATOM      8  C   UNL     1      -1.324   9.940  18.246  0.00  0.00    +0.000 A 
ATOM      9  C   UNL     1      -2.220  10.972  17.922  0.00  0.00    +0.000 A 
ATOM     10  C   UNL     1      -2.470  12.013  18.822  0.00  0.00    +0.000 A 
ATOM     11  C   UNL     1      -1.780  12.069  20.033  0.00  0.00    +0.000 A 
ATOM     12  C   UNL     1      -0.803  11.102  20.287  0.00  0.00    +0.000 A 
ENDROOT
BRANCH   1  16
ATOM     13  C   UNL     1       1.423  15.741  18.905  0.00  0.00    +0.000 A 
ATOM     14  C   UNL     1       1.706  14.462  18.465  0.00  0.00    +0.000 A 
ATOM     15  C   UNL     1       1.672  13.384  19.344  0.00  0.00    +0.000 A 
ATOM     16  C   UNL     1       1.091  13.441  20.615  0.00  0.00    +0.000 A 
ATOM     17  C   UNL     1       0.684  14.718  21.036  0.00  0.00    +0.000 A 
ATOM     18  C   UNL     1       0.043  14.942  22.376  0.00  0.00    +0.000 C 
ATOM     19  C   UNL     1       0.934  15.853  20.214  0.00  0.00    +0.000 A 
BRANCH  13  20
ATOM     20  N   UNL     1       1.683  16.846  18.107  0.00  0.00    +0.000 N 
BRANCH  20  22
ATOM     21  C   UNL     1       4.198  16.729  18.278  0.00  0.00    +0.000 C 
ATOM     22  C   UNL     1       2.969  16.969  17.412  0.00  0.00    +0.000 C 
ENDBRANCH  20  22
BRANCH  20  23
ATOM     23  C   UNL     1       0.820  18.022  18.260  0.00  0.00    +0.000 C 
ATOM     24  C   UNL     1      -0.003  18.321  17.010  0.00  0.00    +0.000 C 
ENDBRANCH  20  23
ENDBRANCH  13  20
ENDBRANCH   1  16
BRANCH   6  25
ATOM     25  C   UNL     1       2.018   9.299  18.290  0.00  0.00    +0.000 C 
ATOM     26  N   UNL     1       2.456  10.077  17.544  0.00  0.00    +0.000 NA
ENDBRANCH   6  25
BRANCH   6  27
ATOM     27  C   UNL     1       2.089   7.300  19.677  0.00  0.00    +0.000 C 
ATOM     28  N   UNL     1       2.633   6.315  19.962  0.00  0.00    +0.000 NA
ENDBRANCH   6  27
TORSDOF 6
ENDMDL
MODEL 2
REMARK VINA RESULT:      -5.6      0.185      1.394
REMARK  Name = 
REMARK  9 active torsions:
REMARK  status: ('A' for Active; 'I' for Inactive)
REMARK    1  A    between atoms: C_1  and  C_2
REMARK    2  A    between atoms: C_2  and  N_3
REMARK    3  A    between atoms: N_3  and  C_4
REMARK    4  A    between atoms: N_3  and  C_6
REMARK    5  A    between atoms: C_4  and  C_5
REMARK    6  A    between atoms: C_9  and  N_10
REMARK    7  A    between atoms: C_15  and  C_16
REMARK    8  A    between atoms: C_15  and  C_18
REMARK    9  A    between atoms: C_26  and  C_27
REMARK                            x       y       z     vdW  Elec       q    Type
REMARK                         _______ _______ _______ _____ _____    ______ ____
ROOT
ATOM      1  N   UNL     1       1.062  12.297  21.500  0.00  0.00    +0.000 NA
ATOM      2  C   UNL     1       0.299  11.256  21.316  0.00  0.00    +0.000 C 
ATOM      3  C   UNL     1       0.561   9.967  22.052  0.00  0.00    +0.000 C 
ATOM      4  C   UNL     1       0.486   8.820  21.339  0.00  0.00    +0.000 C 
ATOM      5  C   UNL     1       0.364   8.955  19.871  0.00  0.00    +0.000 C 
ATOM      6  C   UNL     1       1.411   8.515  19.127  0.00  0.00    +0.000 C 
ATOM      7  C   UNL     1      -0.586  10.015  19.416  0.00  0.00    +0.000 A 
ATOM      8  C   UNL     1      -1.332   9.985  18.235  0.00  0.00    +0.000 A 
ATOM      9  C   UNL     1      -2.249  11.015  17.967  0.00  0.00    +0.000 A 
ATOM     10  C   UNL     1      -2.489  12.025  18.905  0.00  0.00    +0.000 A 
ATOM     11  C   UNL     1      -1.768  12.053  20.099  0.00  0.00    +0.000 A 
ATOM     12  C   UNL     1      -0.774  11.091  20.298  0.00  0.00    +0.000 A 
ENDROOT
BRANCH   1  16
ATOM     13  C   UNL     1       1.357  15.802  19.009  0.00  0.00    +0.000 A 
ATOM     14  C   UNL     1       1.678  14.547  18.532  0.00  0.00    +0.000 A 
ATOM     15  C   UNL     1       1.680  13.442  19.378  0.00  0.00    +0.000 A 
ATOM     16  C   UNL     1       1.100  13.443  20.650  0.00  0.00    +0.000 A 
ATOM     17  C   UNL     1       0.654  14.694  21.110  0.00  0.00    +0.000 A 
ATOM     18  C   UNL     1       0.008  14.857  22.456  0.00  0.00    +0.000 C 
ATOM     19  C   UNL     1       0.866  15.860  20.321  0.00  0.00    +0.000 A 
BRANCH  13  20
ATOM     20  N   UNL     1       1.580  16.938  18.244  0.00  0.00    +0.000 N 
BRANCH  20  22
ATOM     21  C   UNL     1       0.319  18.312  16.543  0.00  0.00    +0.000 C 
ATOM     22  C   UNL     1       0.489  17.887  17.996  0.00  0.00    +0.000 C 
ENDBRANCH  20  22
BRANCH  20  23
ATOM     23  C   UNL     1       2.787  16.980  17.413  0.00  0.00    +0.000 C 
ATOM     24  C   UNL     1       4.068  16.760  18.213  0.00  0.00    +0.000 C 
ENDBRANCH  20  23
ENDBRANCH  13  20
ENDBRANCH   1  16
BRANCH   6  25
ATOM     25  C   UNL     1       2.017   9.387  18.175  0.00  0.00    +0.000 C 
ATOM     26  N   UNL     1       2.630  10.067  17.456  0.00  0.00    +0.000 NA
ENDBRANCH   6  25
BRANCH   6  27
ATOM     27  C   UNL     1       2.148   7.347  19.496  0.00  0.00    +0.000 C 
ATOM     28  N   UNL     1       2.785   6.405  19.728  0.00  0.00    +0.000 NA
ENDBRANCH   6  27
TORSDOF 6
ENDMDL
MODEL 3
REMARK VINA RESULT:      -5.6      0.999      1.128
REMARK  Name = 
REMARK  9 active torsions:
REMARK  status: ('A' for Active; 'I' for Inactive)
REMARK    1  A    between atoms: C_1  and  C_2
REMARK    2  A    between atoms: C_2  and  N_3
REMARK    3  A    between atoms: N_3  and  C_4
REMARK    4  A    between atoms: N_3  and  C_6
REMARK    5  A    between atoms: C_4  and  C_5
REMARK    6  A    between atoms: C_9  and  N_10
REMARK    7  A    between atoms: C_15  and  C_16
REMARK    8  A    between atoms: C_15  and  C_18
REMARK    9  A    between atoms: C_26  and  C_27
REMARK                            x       y       z     vdW  Elec       q    Type
REMARK                         _______ _______ _______ _____ _____    ______ ____
ROOT
ATOM      1  N   UNL     1       0.673  12.363  21.804  0.00  0.00    +0.000 NA
ATOM      2  C   UNL     1      -0.013  11.306  21.466  0.00  0.00    +0.000 C 
ATOM      3  C   UNL     1       0.325   9.952  22.037  0.00  0.00    +0.000 C 
ATOM      4  C   UNL     1       0.344   8.906  21.181  0.00  0.00    +0.000 C 
ATOM      5  C   UNL     1       0.240   9.223  19.739  0.00  0.00    +0.000 C 
ATOM      6  C   UNL     1       1.330   8.954  18.974  0.00  0.00    +0.000 C 
ATOM      7  C   UNL     1      -0.773  10.267  19.398  0.00  0.00    +0.000 A 
ATOM      8  C   UNL     1      -1.492  10.342  18.203  0.00  0.00    +0.000 A 
ATOM      9  C   UNL     1      -2.474  11.334  18.044  0.00  0.00    +0.000 A 
ATOM     10  C   UNL     1      -2.801  12.195  19.098  0.00  0.00    +0.000 A 
ATOM     11  C   UNL     1      -2.107  12.114  20.305  0.00  0.00    +0.000 A 
ATOM     12  C   UNL     1      -1.051  11.204  20.406  0.00  0.00    +0.000 A 
ENDROOT
BRANCH   1  16
ATOM     13  C   UNL     1       0.759  16.182  19.808  0.00  0.00    +0.000 A 
ATOM     14  C   UNL     1       1.274  15.046  19.217  0.00  0.00    +0.000 A 
ATOM     15  C   UNL     1       1.335  13.844  19.916  0.00  0.00    +0.000 A 
ATOM     16  C   UNL     1       0.646  13.610  21.110  0.00  0.00    +0.000 A 
ATOM     17  C   UNL     1       0.009  14.730  21.670  0.00  0.00    +0.000 A 
ATOM     18  C   UNL     1      -0.772  14.639  22.950  0.00  0.00    +0.000 C 
ATOM     19  C   UNL     1       0.148  16.008  21.058  0.00  0.00    +0.000 A 
BRANCH  13  20
ATOM     20  N   UNL     1       0.909  17.428  19.217  0.00  0.00    +0.000 N 
BRANCH  20  22
ATOM     21  C   UNL     1       2.847  18.241  20.615  0.00  0.00    +0.000 C 
ATOM     22  C   UNL     1       1.498  18.539  19.973  0.00  0.00    +0.000 C 
ENDBRANCH  20  22
BRANCH  20  23
ATOM     23  C   UNL     1       0.157  17.700  17.987  0.00  0.00    +0.000 C 
ATOM     24  C   UNL     1       1.016  18.328  16.893  0.00  0.00    +0.000 C 
ENDBRANCH  20  23
ENDBRANCH  13  20
ENDBRANCH   1  16
BRANCH   6  25
ATOM     25  C   UNL     1       1.892   9.982  18.159  0.00  0.00    +0.000 C 
ATOM     26  N   UNL     1       2.467  10.795  17.557  0.00  0.00    +0.000 NA
ENDBRANCH   6  25
BRANCH   6  27
ATOM     27  C   UNL     1       2.140   7.800  19.210  0.00  0.00    +0.000 C 
ATOM     28  N   UNL     1       2.837   6.881  19.336  0.00  0.00    +0.000 NA
ENDBRANCH   6  27
TORSDOF 6
ENDMDL
MODEL 4
REMARK VINA RESULT:      -5.5      0.953      1.468
REMARK  Name = 
REMARK  9 active torsions:
REMARK  status: ('A' for Active; 'I' for Inactive)
REMARK    1  A    between atoms: C_1  and  C_2
REMARK    2  A    between atoms: C_2  and  N_3
REMARK    3  A    between atoms: N_3  and  C_4
REMARK    4  A    between atoms: N_3  and  C_6
REMARK    5  A    between atoms: C_4  and  C_5
REMARK    6  A    between atoms: C_9  and  N_10
REMARK    7  A    between atoms: C_15  and  C_16
REMARK    8  A    between atoms: C_15  and  C_18
REMARK    9  A    between atoms: C_26  and  C_27
REMARK                            x       y       z     vdW  Elec       q    Type
REMARK                         _______ _______ _______ _____ _____    ______ ____
ROOT
ATOM      1  N   UNL     1       0.740  12.341  21.780  0.00  0.00    +0.000 NA
ATOM      2  C   UNL     1       0.039  11.302  21.420  0.00  0.00    +0.000 C 
ATOM      3  C   UNL     1       0.331   9.939  21.991  0.00  0.00    +0.000 C 
ATOM      4  C   UNL     1       0.347   8.896  21.131  0.00  0.00    +0.000 C 
ATOM      5  C   UNL     1       0.286   9.221  19.689  0.00  0.00    +0.000 C 
ATOM      6  C   UNL     1       1.388   8.931  18.950  0.00  0.00    +0.000 C 
ATOM      7  C   UNL     1      -0.693  10.290  19.328  0.00  0.00    +0.000 A 
ATOM      8  C   UNL     1      -1.381  10.387  18.116  0.00  0.00    +0.000 A 
ATOM      9  C   UNL     1      -2.335  11.403  17.938  0.00  0.00    +0.000 A 
ATOM     10  C   UNL     1      -2.669  12.266  18.987  0.00  0.00    +0.000 A 
ATOM     11  C   UNL     1      -2.007  12.164  20.211  0.00  0.00    +0.000 A 
ATOM     12  C   UNL     1      -0.975  11.229  20.334  0.00  0.00    +0.000 A 
ENDROOT
BRANCH   1  16
ATOM     13  C   UNL     1       0.961  16.168  19.808  0.00  0.00    +0.000 A 
ATOM     14  C   UNL     1       1.484  15.027  19.232  0.00  0.00    +0.000 A 
ATOM     15  C   UNL     1       1.499  13.821  19.928  0.00  0.00    +0.000 A 
ATOM     16  C   UNL     1       0.759  13.592  21.091  0.00  0.00    +0.000 A 
ATOM     17  C   UNL     1       0.116  14.719  21.630  0.00  0.00    +0.000 A 
ATOM     18  C   UNL     1      -0.717  14.633  22.877  0.00  0.00    +0.000 C 
ATOM     19  C   UNL     1       0.298  15.997  21.031  0.00  0.00    +0.000 A 
BRANCH  13  20
ATOM     20  N   UNL     1       1.154  17.414  19.229  0.00  0.00    +0.000 N 
BRANCH  20  22
ATOM     21  C   UNL     1       0.330  18.388  17.051  0.00  0.00    +0.000 C 
ATOM     22  C   UNL     1       1.357  17.533  17.781  0.00  0.00    +0.000 C 
ENDBRANCH  20  22
BRANCH  20  23
ATOM     23  C   UNL     1       1.504  18.534  20.109  0.00  0.00    +0.000 C 
ATOM     24  C   UNL     1       2.859  18.354  20.789  0.00  0.00    +0.000 C 
ENDBRANCH  20  23
ENDBRANCH  13  20
ENDBRANCH   1  16
BRANCH   6  25
ATOM     25  C   UNL     1       1.994   9.949  18.154  0.00  0.00    +0.000 C 
ATOM     26  N   UNL     1       2.403  10.866  17.567  0.00  0.00    +0.000 NA
ENDBRANCH   6  25
BRANCH   6  27
ATOM     27  C   UNL     1       2.165   7.758  19.200  0.00  0.00    +0.000 C 
ATOM     28  N   UNL     1       2.844   6.827  19.345  0.00  0.00    +0.000 NA
ENDBRANCH   6  27
TORSDOF 6
ENDMDL
MODEL 5
REMARK VINA RESULT:      -5.5      0.951      1.608
REMARK  Name = 
REMARK  9 active torsions:
REMARK  status: ('A' for Active; 'I' for Inactive)
REMARK    1  A    between atoms: C_1  and  C_2
REMARK    2  A    between atoms: C_2  and  N_3
REMARK    3  A    between atoms: N_3  and  C_4
REMARK    4  A    between atoms: N_3  and  C_6
REMARK    5  A    between atoms: C_4  and  C_5
REMARK    6  A    between atoms: C_9  and  N_10
REMARK    7  A    between atoms: C_15  and  C_16
REMARK    8  A    between atoms: C_15  and  C_18
REMARK    9  A    between atoms: C_26  and  C_27
REMARK                            x       y       z     vdW  Elec       q    Type
REMARK                         _______ _______ _______ _____ _____    ______ ____
ROOT
ATOM      1  N   UNL     1       0.509  12.356  21.788  0.00  0.00    +0.000 NA
ATOM      2  C   UNL     1      -0.138  11.288  21.412  0.00  0.00    +0.000 C 
ATOM      3  C   UNL     1       0.215   9.934  21.970  0.00  0.00    +0.000 C 
ATOM      4  C   UNL     1       0.288   8.903  21.097  0.00  0.00    +0.000 C 
ATOM      5  C   UNL     1       0.221   9.242  19.659  0.00  0.00    +0.000 C 
ATOM      6  C   UNL     1       1.340   9.014  18.924  0.00  0.00    +0.000 C 
ATOM      7  C   UNL     1      -0.807  10.267  19.303  0.00  0.00    +0.000 A 
ATOM      8  C   UNL     1      -1.491  10.345  18.088  0.00  0.00    +0.000 A 
ATOM      9  C   UNL     1      -2.491  11.315  17.914  0.00  0.00    +0.000 A 
ATOM     10  C   UNL     1      -2.873  12.149  18.971  0.00  0.00    +0.000 A 
ATOM     11  C   UNL     1      -2.215  12.065  20.198  0.00  0.00    +0.000 A 
ATOM     12  C   UNL     1      -1.140  11.179  20.318  0.00  0.00    +0.000 A 
ENDROOT
BRANCH   1  16
ATOM     13  C   UNL     1       0.574  16.201  19.842  0.00  0.00    +0.000 A 
ATOM     14  C   UNL     1       1.010  15.059  19.200  0.00  0.00    +0.000 A 
ATOM     15  C   UNL     1       1.082  13.845  19.878  0.00  0.00    +0.000 A 
ATOM     16  C   UNL     1       0.473  13.614  21.115  0.00  0.00    +0.000 A 
ATOM     17  C   UNL     1      -0.086  14.745  21.733  0.00  0.00    +0.000 A 
ATOM     18  C   UNL     1      -0.777  14.658  23.065  0.00  0.00    +0.000 C 
ATOM     19  C   UNL     1       0.049  16.027  21.130  0.00  0.00    +0.000 A 
BRANCH  13  20
ATOM     20  N   UNL     1       0.722  17.451  19.258  0.00  0.00    +0.000 N 
BRANCH  20  22
ATOM     21  C   UNL     1      -1.685  17.920  18.657  0.00  0.00    +0.000 C 
ATOM     22  C   UNL     1      -0.386  18.413  19.282  0.00  0.00    +0.000 C 
ENDBRANCH  20  22
BRANCH  20  23
ATOM     23  C   UNL     1       1.838  17.647  18.328  0.00  0.00    +0.000 C 
ATOM     24  C   UNL     1       1.380  17.982  16.911  0.00  0.00    +0.000 C 
ENDBRANCH  20  23
ENDBRANCH  13  20
ENDBRANCH   1  16
BRANCH   6  25
ATOM     25  C   UNL     1       1.901  10.069  18.145  0.00  0.00    +0.000 C 
ATOM     26  N   UNL     1       2.468  10.851  17.496  0.00  0.00    +0.000 NA
ENDBRANCH   6  25
BRANCH   6  27
ATOM     27  C   UNL     1       2.171   7.877  19.167  0.00  0.00    +0.000 C 
ATOM     28  N   UNL     1       2.786   6.921  19.403  0.00  0.00    +0.000 NA
ENDBRANCH   6  27
TORSDOF 6
ENDMDL
MODEL 6
REMARK VINA RESULT:      -5.5      3.257      5.921
REMARK  Name = 
REMARK  9 active torsions:
REMARK  status: ('A' for Active; 'I' for Inactive)
REMARK    1  A    between atoms: C_1  and  C_2
REMARK    2  A    between atoms: C_2  and  N_3
REMARK    3  A    between atoms: N_3  and  C_4
REMARK    4  A    between atoms: N_3  and  C_6
REMARK    5  A    between atoms: C_4  and  C_5
REMARK    6  A    between atoms: C_9  and  N_10
REMARK    7  A    between atoms: C_15  and  C_16
REMARK    8  A    between atoms: C_15  and  C_18
REMARK    9  A    between atoms: C_26  and  C_27
REMARK                            x       y       z     vdW  Elec       q    Type
REMARK                         _______ _______ _______ _____ _____    ______ ____
ROOT
ATOM      1  N   UNL     1      -2.703  11.339  18.947  0.00  0.00    +0.000 NA
ATOM      2  C   UNL     1      -1.440  11.355  18.622  0.00  0.00    +0.000 C 
ATOM      3  C   UNL     1      -0.804  10.171  17.942  0.00  0.00    +0.000 C 
ATOM      4  C   UNL     1       0.411   9.778  18.388  0.00  0.00    +0.000 C 
ATOM      5  C   UNL     1       0.900  10.412  19.632  0.00  0.00    +0.000 C 
ATOM      6  C   UNL     1       1.028   9.608  20.719  0.00  0.00    +0.000 C 
ATOM      7  C   UNL     1       0.670  11.886  19.717  0.00  0.00    +0.000 A 
ATOM      8  C   UNL     1       1.481  12.798  20.397  0.00  0.00    +0.000 A 
ATOM      9  C   UNL     1       1.191  14.170  20.330  0.00  0.00    +0.000 A 
ATOM     10  C   UNL     1       0.153  14.646  19.521  0.00  0.00    +0.000 A 
ATOM     11  C   UNL     1      -0.650  13.748  18.817  0.00  0.00    +0.000 A 
ATOM     12  C   UNL     1      -0.426  12.379  18.990  0.00  0.00    +0.000 A 
ENDROOT
BRANCH   1  16
ATOM     13  C   UNL     1      -4.671  13.941  21.764  0.00  0.00    +0.000 A 
ATOM     14  C   UNL     1      -3.364  13.533  21.948  0.00  0.00    +0.000 A 
ATOM     15  C   UNL     1      -2.779  12.610  21.086  0.00  0.00    +0.000 A 
ATOM     16  C   UNL     1      -3.326  12.253  19.850  0.00  0.00    +0.000 A 
ATOM     17  C   UNL     1      -4.611  12.758  19.589  0.00  0.00    +0.000 A 
ATOM     18  C   UNL     1      -5.331  12.463  18.304  0.00  0.00    +0.000 C 
ATOM     19  C   UNL     1      -5.292  13.518  20.581  0.00  0.00    +0.000 A 
BRANCH  13  20
ATOM     20  N   UNL     1      -5.337  14.668  22.740  0.00  0.00    +0.000 N 
BRANCH  20  22
ATOM     21  C   UNL     1      -5.462  16.569  24.396  0.00  0.00    +0.000 C 
ATOM     22  C   UNL     1      -4.598  15.597  23.602  0.00  0.00    +0.000 C 
ENDBRANCH  20  22
BRANCH  20  23
ATOM     23  C   UNL     1      -6.684  14.233  23.122  0.00  0.00    +0.000 C 
ATOM     24  C   UNL     1      -6.678  12.977  23.990  0.00  0.00    +0.000 C 
ENDBRANCH  20  23
ENDBRANCH  13  20
ENDBRANCH   1  16
BRANCH   6  25
ATOM     25  C   UNL     1       0.392   9.969  21.944  0.00  0.00    +0.000 C 
ATOM     26  N   UNL     1      -0.086  10.391  22.918  0.00  0.00    +0.000 NA
ENDBRANCH   6  25
BRANCH   6  27
ATOM     27  C   UNL     1       1.477   8.256  20.597  0.00  0.00    +0.000 C 
ATOM     28  N   UNL     1       1.774   7.136  20.531  0.00  0.00    +0.000 NA
ENDBRANCH   6  27
TORSDOF 6
ENDMDL
MODEL 7
REMARK VINA RESULT:      -5.5      0.949      1.137
REMARK  Name = 
REMARK  9 active torsions:
REMARK  status: ('A' for Active; 'I' for Inactive)
REMARK    1  A    between atoms: C_1  and  C_2
REMARK    2  A    between atoms: C_2  and  N_3
REMARK    3  A    between atoms: N_3  and  C_4
REMARK    4  A    between atoms: N_3  and  C_6
REMARK    5  A    between atoms: C_4  and  C_5
REMARK    6  A    between atoms: C_9  and  N_10
REMARK    7  A    between atoms: C_15  and  C_16
REMARK    8  A    between atoms: C_15  and  C_18
REMARK    9  A    between atoms: C_26  and  C_27
REMARK                            x       y       z     vdW  Elec       q    Type
REMARK                         _______ _______ _______ _____ _____    ______ ____
ROOT
ATOM      1  N   UNL     1       0.519  12.485  21.737  0.00  0.00    +0.000 NA
ATOM      2  C   UNL     1      -0.136  11.389  21.472  0.00  0.00    +0.000 C 
ATOM      3  C   UNL     1       0.258  10.082  22.110  0.00  0.00    +0.000 C 
ATOM      4  C   UNL     1       0.298   8.990  21.314  0.00  0.00    +0.000 C 
ATOM      5  C   UNL     1       0.158   9.221  19.859  0.00  0.00    +0.000 C 
ATOM      6  C   UNL     1       1.242   8.946  19.089  0.00  0.00    +0.000 C 
ATOM      7  C   UNL     1      -0.896  10.210  19.480  0.00  0.00    +0.000 A 
ATOM      8  C   UNL     1      -1.639  10.194  18.298  0.00  0.00    +0.000 A 
ATOM      9  C   UNL     1      -2.656  11.143  18.103  0.00  0.00    +0.000 A 
ATOM     10  C   UNL     1      -2.994  12.050  19.113  0.00  0.00    +0.000 A 
ATOM     11  C   UNL     1      -2.276  12.061  20.309  0.00  0.00    +0.000 A 
ATOM     12  C   UNL     1      -1.189  11.193  20.440  0.00  0.00    +0.000 A 
ENDROOT
BRANCH   1  16
ATOM     13  C   UNL     1       0.449  16.178  19.516  0.00  0.00    +0.000 A 
ATOM     14  C   UNL     1       0.893  15.001  18.947  0.00  0.00    +0.000 A 
ATOM     15  C   UNL     1       1.010  13.842  19.708  0.00  0.00    +0.000 A 
ATOM     16  C   UNL     1       0.438  13.690  20.975  0.00  0.00    +0.000 A 
ATOM     17  C   UNL     1      -0.130  14.851  21.525  0.00  0.00    +0.000 A 
ATOM     18  C   UNL     1      -0.783  14.848  22.878  0.00  0.00    +0.000 C 
ATOM     19  C   UNL     1      -0.039  16.088  20.827  0.00  0.00    +0.000 A 
BRANCH  13  20
ATOM     20  N   UNL     1       0.554  17.385  18.839  0.00  0.00    +0.000 N 
BRANCH  20  22
ATOM     21  C   UNL     1       1.438  18.114  16.590  0.00  0.00    +0.000 C 
ATOM     22  C   UNL     1       1.735  17.670  18.016  0.00  0.00    +0.000 C 
ENDBRANCH  20  22
BRANCH  20  23
ATOM     23  C   UNL     1      -0.335  18.479  19.242  0.00  0.00    +0.000 C 
ATOM     24  C   UNL     1      -1.672  18.460  18.506  0.00  0.00    +0.000 C 
ENDBRANCH  20  23
ENDBRANCH  13  20
ENDBRANCH   1  16
BRANCH   6  25
ATOM     25  C   UNL     1       1.754   9.944  18.207  0.00  0.00    +0.000 C 
ATOM     26  N   UNL     1       2.256  10.792  17.588  0.00  0.00    +0.000 NA
ENDBRANCH   6  25
BRANCH   6  27
ATOM     27  C   UNL     1       2.095   7.835  19.373  0.00  0.00    +0.000 C 
ATOM     28  N   UNL     1       2.848   6.976  19.581  0.00  0.00    +0.000 NA
ENDBRANCH   6  27
TORSDOF 6
ENDMDL
MODEL 8
REMARK VINA RESULT:      -5.4      3.221      5.909
REMARK  Name = 
REMARK  9 active torsions:
REMARK  status: ('A' for Active; 'I' for Inactive)
REMARK    1  A    between atoms: C_1  and  C_2
REMARK    2  A    between atoms: C_2  and  N_3
REMARK    3  A    between atoms: N_3  and  C_4
REMARK    4  A    between atoms: N_3  and  C_6
REMARK    5  A    between atoms: C_4  and  C_5
REMARK    6  A    between atoms: C_9  and  N_10
REMARK    7  A    between atoms: C_15  and  C_16
REMARK    8  A    between atoms: C_15  and  C_18
REMARK    9  A    between atoms: C_26  and  C_27
REMARK                            x       y       z     vdW  Elec       q    Type
REMARK                         _______ _______ _______ _____ _____    ______ ____
ROOT
ATOM      1  N   UNL     1      -2.713  11.345  18.920  0.00  0.00    +0.000 NA
ATOM      2  C   UNL     1      -1.451  11.364  18.593  0.00  0.00    +0.000 C 
ATOM      3  C   UNL     1      -0.810  10.177  17.923  0.00  0.00    +0.000 C 
ATOM      4  C   UNL     1       0.407   9.794  18.371  0.00  0.00    +0.000 C 
ATOM      5  C   UNL     1       0.895  10.442  19.608  0.00  0.00    +0.000 C 
ATOM      6  C   UNL     1       1.029   9.649  20.702  0.00  0.00    +0.000 C 
ATOM      7  C   UNL     1       0.659  11.916  19.679  0.00  0.00    +0.000 A 
ATOM      8  C   UNL     1       1.467  12.837  20.348  0.00  0.00    +0.000 A 
ATOM      9  C   UNL     1       1.170  14.208  20.269  0.00  0.00    +0.000 A 
ATOM     10  C   UNL     1       0.128  14.671  19.458  0.00  0.00    +0.000 A 
ATOM     11  C   UNL     1      -0.672  13.762  18.764  0.00  0.00    +0.000 A 
ATOM     12  C   UNL     1      -0.441  12.396  18.949  0.00  0.00    +0.000 A 
ENDROOT
BRANCH   1  16
ATOM     13  C   UNL     1      -4.686  13.964  21.718  0.00  0.00    +0.000 A 
ATOM     14  C   UNL     1      -3.374  13.573  21.896  0.00  0.00    +0.000 A 
ATOM     15  C   UNL     1      -2.786  12.644  21.043  0.00  0.00    +0.000 A 
ATOM     16  C   UNL     1      -3.339  12.265  19.816  0.00  0.00    +0.000 A 
ATOM     17  C   UNL     1      -4.631  12.752  19.559  0.00  0.00    +0.000 A 
ATOM     18  C   UNL     1      -5.358  12.432  18.284  0.00  0.00    +0.000 C 
ATOM     19  C   UNL     1      -5.313  13.518  20.546  0.00  0.00    +0.000 A 
BRANCH  13  20
ATOM     20  N   UNL     1      -5.353  14.698  22.689  0.00  0.00    +0.000 N 
BRANCH  20  22
ATOM     21  C   UNL     1      -6.839  13.130  23.995  0.00  0.00    +0.000 C 
ATOM     22  C   UNL     1      -6.722  14.339  23.076  0.00  0.00    +0.000 C 
ENDBRANCH  20  22
BRANCH  20  23
ATOM     23  C   UNL     1      -4.816  16.015  23.045  0.00  0.00    +0.000 C 
ATOM     24  C   UNL     1      -4.400  16.112  24.510  0.00  0.00    +0.000 C 
ENDBRANCH  20  23
ENDBRANCH  13  20
ENDBRANCH   1  16
BRANCH   6  25
ATOM     25  C   UNL     1       0.394  10.018  21.924  0.00  0.00    +0.000 C 
ATOM     26  N   UNL     1      -0.093  10.448  22.890  0.00  0.00    +0.000 NA
ENDBRANCH   6  25
BRANCH   6  27
ATOM     27  C   UNL     1       1.484   8.298  20.591  0.00  0.00    +0.000 C 
ATOM     28  N   UNL     1       1.823   7.200  20.429  0.00  0.00    +0.000 NA
ENDBRANCH   6  27
TORSDOF 6
ENDMDL
MODEL 9
REMARK VINA RESULT:      -5.4      4.366      8.433
REMARK  Name = 
REMARK  9 active torsions:
REMARK  status: ('A' for Active; 'I' for Inactive)
REMARK    1  A    between atoms: C_1  and  C_2
REMARK    2  A    between atoms: C_2  and  N_3
REMARK    3  A    between atoms: N_3  and  C_4
REMARK    4  A    between atoms: N_3  and  C_6
REMARK    5  A    between atoms: C_4  and  C_5
REMARK    6  A    between atoms: C_9  and  N_10
REMARK    7  A    between atoms: C_15  and  C_16
REMARK    8  A    between atoms: C_15  and  C_18
REMARK    9  A    between atoms: C_26  and  C_27
REMARK                            x       y       z     vdW  Elec       q    Type
REMARK                         _______ _______ _______ _____ _____    ______ ____
ROOT
ATOM      1  N   UNL     1      -4.268  12.135  16.986  0.00  0.00    +0.000 NA
ATOM      2  C   UNL     1      -5.559  12.189  17.161  0.00  0.00    +0.000 C 
ATOM      3  C   UNL     1      -6.419  13.073  16.294  0.00  0.00    +0.000 C 
ATOM      4  C   UNL     1      -7.375  13.804  16.910  0.00  0.00    +0.000 C 
ATOM      5  C   UNL     1      -7.347  13.827  18.389  0.00  0.00    +0.000 C 
ATOM      6  C   UNL     1      -7.059  15.017  18.977  0.00  0.00    +0.000 C 
ATOM      7  C   UNL     1      -7.088  12.503  19.032  0.00  0.00    +0.000 A 
ATOM      8  C   UNL     1      -7.569  12.097  20.278  0.00  0.00    +0.000 A 
ATOM      9  C   UNL     1      -7.313  10.791  20.730  0.00  0.00    +0.000 A 
ATOM     10  C   UNL     1      -6.656   9.865  19.912  0.00  0.00    +0.000 A 
ATOM     11  C   UNL     1      -6.192  10.251  18.655  0.00  0.00    +0.000 A 
ATOM     12  C   UNL     1      -6.346  11.586  18.270  0.00  0.00    +0.000 A 
ENDROOT
BRANCH   1  16
ATOM     13  C   UNL     1      -1.318  10.593  19.724  0.00  0.00    +0.000 A 
ATOM     14  C   UNL     1      -2.136  11.653  20.064  0.00  0.00    +0.000 A 
ATOM     15  C   UNL     1      -3.008  12.207  19.132  0.00  0.00    +0.000 A 
ATOM     16  C   UNL     1      -3.339  11.589  17.922  0.00  0.00    +0.000 A 
ATOM     17  C   UNL     1      -2.600  10.435  17.611  0.00  0.00    +0.000 A 
ATOM     18  C   UNL     1      -2.839   9.659  16.347  0.00  0.00    +0.000 C 
ATOM     19  C   UNL     1      -1.549  10.008  18.472  0.00  0.00    +0.000 A 
BRANCH  13  20
ATOM     20  N   UNL     1      -0.285  10.190  20.558  0.00  0.00    +0.000 N 
BRANCH  20  22
ATOM     21  C   UNL     1      -0.842  10.132  23.020  0.00  0.00    +0.000 C 
ATOM     22  C   UNL     1      -0.110  10.817  21.873  0.00  0.00    +0.000 C 
ENDBRANCH  20  22
BRANCH  20  23
ATOM     23  C   UNL     1       0.809   9.412  19.970  0.00  0.00    +0.000 C 
ATOM     24  C   UNL     1       1.295   8.287  20.880  0.00  0.00    +0.000 C 
ENDBRANCH  20  23
ENDBRANCH  13  20
ENDBRANCH   1  16
BRANCH   6  25
ATOM     25  C   UNL     1      -6.001  15.097  19.930  0.00  0.00    +0.000 C 
ATOM     26  N   UNL     1      -5.177  15.289  20.730  0.00  0.00    +0.000 NA
ENDBRANCH   6  25
BRANCH   6  27
ATOM     27  C   UNL     1      -7.534  16.251  18.433  0.00  0.00    +0.000 C 
ATOM     28  N   UNL     1      -7.915  17.220  17.920  0.00  0.00    +0.000 NA
ENDBRANCH   6  27
TORSDOF 6
ENDMDL
