MODEL 1
REMARK VINA RESULT:      -7.3      0.000      0.000
REMARK  Name = 
REMARK  10 active torsions:
REMARK  status: ('A' for Active; 'I' for Inactive)
REMARK    1  A    between atoms: C_1  and  O_2
REMARK    2  A    between atoms: O_2  and  C_3
REMARK    3  A    between atoms: C_6  and  C_7
REMARK    4  A    between atoms: C_7  and  N_8
REMARK    5  A    between atoms: C_12  and  C_13
REMARK    6  A    between atoms: N_15  and  C_16
REMARK    7  A    between atoms: N_15  and  C_17
REMARK    8  A    between atoms: C_17  and  C_18
REMARK    9  A    between atoms: C_26  and  O_27
REMARK   10  A    between atoms: O_27  and  C_28
REMARK                            x       y       z     vdW  Elec       q    Type
REMARK                         _______ _______ _______ _____ _____    ______ ____
ROOT
ATOM      1  N   UNL     1       3.374   4.428  18.855  0.00  0.00    +0.000 NA
ATOM      2  C   UNL     1       2.693   3.416  19.679  0.00  0.00    +0.000 C 
ATOM      3  C   UNL     1       1.258   3.768  20.048  0.00  0.00    +0.000 C 
ATOM      4  C   UNL     1       1.214   5.136  20.709  0.00  0.00    +0.000 C 
ATOM      5  C   UNL     1       1.673   6.174  19.682  0.00  0.00    +0.000 C 
ATOM      6  C   UNL     1       3.120   5.829  19.270  0.00  0.00    +0.000 C 
ENDROOT
BRANCH   5   7
ATOM      7  C   UNL     1       1.618   7.612  20.227  0.00  0.00    +0.000 C 
ATOM      8  O   UNL     1       1.556   7.805  21.444  0.00  0.00    +0.000 OA
ATOM      9  N   UNL     1       1.659   8.675  19.333  0.00  0.00    +0.000 N 
ATOM     10  C   UNL     1       1.774   8.562  17.887  0.00  0.00    +0.000 C 
BRANCH   9  11
ATOM     11  C   UNL     1       1.464  10.029  19.864  0.00  0.00    +0.000 C 
BRANCH  11  12
ATOM     12  C   UNL     1       0.303  10.740  19.206  0.00  0.00    +0.000 A 
ATOM     13  C   UNL     1       0.430  12.076  18.801  0.00  0.00    +0.000 A 
ATOM     14  C   UNL     1      -0.661  12.768  18.273  0.00  0.00    +0.000 A 
ATOM     15  C   UNL     1      -1.894  12.131  18.148  0.00  0.00    +0.000 A 
ATOM     16  C   UNL     1      -2.028  10.795  18.521  0.00  0.00    +0.000 A 
ATOM     17  C   UNL     1      -0.934  10.099  19.039  0.00  0.00    +0.000 A 
ENDBRANCH  11  12
ENDBRANCH   9  11
ENDBRANCH   5   7
BRANCH   1  18
ATOM     18  C   UNL     1       4.842   4.211  18.908  0.00  0.00    +0.000 C 
BRANCH  18  22
ATOM     19  C   UNL     1       6.888   5.120  15.198  0.00  0.00    +0.000 A 
ATOM     20  C   UNL     1       6.041   3.999  15.304  0.00  0.00    +0.000 A 
ATOM     21  C   UNL     1       5.378   3.700  16.494  0.00  0.00    +0.000 A 
ATOM     22  C   UNL     1       5.569   4.498  17.617  0.00  0.00    +0.000 A 
ATOM     23  C   UNL     1       6.448   5.585  17.528  0.00  0.00    +0.000 A 
ATOM     24  C   UNL     1       7.114   5.907  16.336  0.00  0.00    +0.000 A 
BRANCH  19  26
ATOM     25  C   UNL     1       7.333   4.506  12.956  0.00  0.00    +0.000 C 
ATOM     26  O   UNL     1       7.512   5.439  14.020  0.00  0.00    +0.000 OA
ENDBRANCH  19  26
BRANCH  24  27
ATOM     27  O   UNL     1       7.909   7.010  16.496  0.00  0.00    +0.000 OA
ATOM     28  C   UNL     1       7.709   7.869  17.605  0.00  0.00    +0.000 C 
ENDBRANCH  24  27
ENDBRANCH  18  22
ENDBRANCH   1  18
TORSDOF 7
ENDMDL
MODEL 2
REMARK VINA RESULT:      -7.1      1.248      2.367
REMARK  Name = 
REMARK  10 active torsions:
REMARK  status: ('A' for Active; 'I' for Inactive)
REMARK    1  A    between atoms: C_1  and  O_2
REMARK    2  A    between atoms: O_2  and  C_3
REMARK    3  A    between atoms: C_6  and  C_7
REMARK    4  A    between atoms: C_7  and  N_8
REMARK    5  A    between atoms: C_12  and  C_13
REMARK    6  A    between atoms: N_15  and  C_16
REMARK    7  A    between atoms: N_15  and  C_17
REMARK    8  A    between atoms: C_17  and  C_18
REMARK    9  A    between atoms: C_26  and  O_27
REMARK   10  A    between atoms: O_27  and  C_28
REMARK                            x       y       z     vdW  Elec       q    Type
REMARK                         _______ _______ _______ _____ _____    ______ ____
ROOT
ATOM      1  N   UNL     1       2.581   3.611  18.899  0.00  0.00    +0.000 NA
ATOM      2  C   UNL     1       2.865   3.155  20.270  0.00  0.00    +0.000 C 
ATOM      3  C   UNL     1       2.097   3.902  21.353  0.00  0.00    +0.000 C 
ATOM      4  C   UNL     1       2.326   5.397  21.212  0.00  0.00    +0.000 C 
ATOM      5  C   UNL     1       1.742   5.843  19.869  0.00  0.00    +0.000 C 
ATOM      6  C   UNL     1       2.486   5.083  18.750  0.00  0.00    +0.000 C 
ENDROOT
BRANCH   5   7
ATOM      7  C   UNL     1       1.870   7.359  19.640  0.00  0.00    +0.000 C 
ATOM      8  O   UNL     1       2.661   7.787  18.795  0.00  0.00    +0.000 OA
ATOM      9  N   UNL     1       1.074   8.224  20.380  0.00  0.00    +0.000 N 
ATOM     10  C   UNL     1       0.081   7.826  21.368  0.00  0.00    +0.000 C 
BRANCH   9  11
ATOM     11  C   UNL     1       1.313   9.665  20.246  0.00  0.00    +0.000 C 
BRANCH  11  12
ATOM     12  C   UNL     1       0.112  10.395  19.687  0.00  0.00    +0.000 A 
ATOM     13  C   UNL     1      -0.575  11.332  20.472  0.00  0.00    +0.000 A 
ATOM     14  C   UNL     1      -1.735  11.945  19.997  0.00  0.00    +0.000 A 
ATOM     15  C   UNL     1      -2.223  11.625  18.731  0.00  0.00    +0.000 A 
ATOM     16  C   UNL     1      -1.535  10.717  17.929  0.00  0.00    +0.000 A 
ATOM     17  C   UNL     1      -0.369  10.110  18.400  0.00  0.00    +0.000 A 
ENDBRANCH  11  12
ENDBRANCH   9  11
ENDBRANCH   5   7
BRANCH   1  18
ATOM     18  C   UNL     1       3.652   3.142  17.984  0.00  0.00    +0.000 C 
BRANCH  18  22
ATOM     19  C   UNL     1       6.787   6.004  17.113  0.00  0.00    +0.000 A 
ATOM     20  C   UNL     1       6.442   5.689  18.441  0.00  0.00    +0.000 A 
ATOM     21  C   UNL     1       5.435   4.767  18.731  0.00  0.00    +0.000 A 
ATOM     22  C   UNL     1       4.727   4.162  17.697  0.00  0.00    +0.000 A 
ATOM     23  C   UNL     1       5.036   4.511  16.376  0.00  0.00    +0.000 A 
ATOM     24  C   UNL     1       6.053   5.426  16.067  0.00  0.00    +0.000 A 
BRANCH  19  26
ATOM     25  C   UNL     1       7.809   8.086  17.586  0.00  0.00    +0.000 C 
ATOM     26  O   UNL     1       7.801   6.881  16.823  0.00  0.00    +0.000 OA
ENDBRANCH  19  26
BRANCH  24  27
ATOM     27  O   UNL     1       6.170   5.597  14.714  0.00  0.00    +0.000 OA
ATOM     28  C   UNL     1       6.677   4.545  13.911  0.00  0.00    +0.000 C 
ENDBRANCH  24  27
ENDBRANCH  18  22
ENDBRANCH   1  18
TORSDOF 7
ENDMDL
MODEL 3
REMARK VINA RESULT:      -7.1      3.523      6.686
REMARK  Name = 
REMARK  10 active torsions:
REMARK  status: ('A' for Active; 'I' for Inactive)
REMARK    1  A    between atoms: C_1  and  O_2
REMARK    2  A    between atoms: O_2  and  C_3
REMARK    3  A    between atoms: C_6  and  C_7
REMARK    4  A    between atoms: C_7  and  N_8
REMARK    5  A    between atoms: C_12  and  C_13
REMARK    6  A    between atoms: N_15  and  C_16
REMARK    7  A    between atoms: N_15  and  C_17
REMARK    8  A    between atoms: C_17  and  C_18
REMARK    9  A    between atoms: C_26  and  O_27
REMARK   10  A    between atoms: O_27  and  C_28
REMARK                            x       y       z     vdW  Elec       q    Type
REMARK                         _______ _______ _______ _____ _____    ______ ____
ROOT
ATOM      1  N   UNL     1       0.837  10.563  18.892  0.00  0.00    +0.000 NA
ATOM      2  C   UNL     1       1.503  11.876  18.881  0.00  0.00    +0.000 C 
ATOM      3  C   UNL     1       0.693  12.996  19.523  0.00  0.00    +0.000 C 
ATOM      4  C   UNL     1      -0.684  13.070  18.885  0.00  0.00    +0.000 C 
ATOM      5  C   UNL     1      -1.420  11.763  19.189  0.00  0.00    +0.000 C 
ATOM      6  C   UNL     1      -0.609  10.605  18.569  0.00  0.00    +0.000 C 
ENDROOT
BRANCH   5   7
ATOM      7  C   UNL     1      -2.855  11.746  18.632  0.00  0.00    +0.000 C 
ATOM      8  O   UNL     1      -3.073  11.277  17.512  0.00  0.00    +0.000 OA
ATOM      9  N   UNL     1      -3.888  12.247  19.415  0.00  0.00    +0.000 N 
ATOM     10  C   UNL     1      -3.750  12.782  20.761  0.00  0.00    +0.000 C 
BRANCH   9  11
ATOM     11  C   UNL     1      -5.221  12.350  18.811  0.00  0.00    +0.000 C 
BRANCH  11  12
ATOM     12  C   UNL     1      -6.209  11.389  19.434  0.00  0.00    +0.000 A 
ATOM     13  C   UNL     1      -7.036  11.809  20.485  0.00  0.00    +0.000 A 
ATOM     14  C   UNL     1      -7.888  10.907  21.125  0.00  0.00    +0.000 A 
ATOM     15  C   UNL     1      -7.917   9.573  20.724  0.00  0.00    +0.000 A 
ATOM     16  C   UNL     1      -7.120   9.148  19.663  0.00  0.00    +0.000 A 
ATOM     17  C   UNL     1      -6.275  10.052  19.015  0.00  0.00    +0.000 A 
ENDBRANCH  11  12
ENDBRANCH   9  11
ENDBRANCH   5   7
BRANCH   1  18
ATOM     18  C   UNL     1       1.486   9.666  17.901  0.00  0.00    +0.000 C 
BRANCH  18  22
ATOM     19  C   UNL     1       3.023   5.936  19.482  0.00  0.00    +0.000 A 
ATOM     20  C   UNL     1       2.185   6.761  20.256  0.00  0.00    +0.000 A 
ATOM     21  C   UNL     1       1.685   7.964  19.755  0.00  0.00    +0.000 A 
ATOM     22  C   UNL     1       2.035   8.384  18.476  0.00  0.00    +0.000 A 
ATOM     23  C   UNL     1       2.907   7.588  17.721  0.00  0.00    +0.000 A 
ATOM     24  C   UNL     1       3.411   6.371  18.206  0.00  0.00    +0.000 A 
BRANCH  19  26
ATOM     25  C   UNL     1       2.540   3.954  20.681  0.00  0.00    +0.000 C 
ATOM     26  O   UNL     1       3.487   4.736  19.956  0.00  0.00    +0.000 OA
ENDBRANCH  19  26
BRANCH  24  27
ATOM     27  O   UNL     1       4.232   5.775  17.288  0.00  0.00    +0.000 OA
ATOM     28  C   UNL     1       5.252   6.531  16.658  0.00  0.00    +0.000 C 
ENDBRANCH  24  27
ENDBRANCH  18  22
ENDBRANCH   1  18
TORSDOF 7
ENDMDL
MODEL 4
REMARK VINA RESULT:      -7.0      2.976      9.504
REMARK  Name = 
REMARK  10 active torsions:
REMARK  status: ('A' for Active; 'I' for Inactive)
REMARK    1  A    between atoms: C_1  and  O_2
REMARK    2  A    between atoms: O_2  and  C_3
REMARK    3  A    between atoms: C_6  and  C_7
REMARK    4  A    between atoms: C_7  and  N_8
REMARK    5  A    between atoms: C_12  and  C_13
REMARK    6  A    between atoms: N_15  and  C_16
REMARK    7  A    between atoms: N_15  and  C_17
REMARK    8  A    between atoms: C_17  and  C_18
REMARK    9  A    between atoms: C_26  and  O_27
REMARK   10  A    between atoms: O_27  and  C_28
REMARK                            x       y       z     vdW  Elec       q    Type
REMARK                         _______ _______ _______ _____ _____    ______ ____
ROOT
ATOM      1  N   UNL     1       0.954   8.856  20.323  0.00  0.00    +0.000 NA
ATOM      2  C   UNL     1       1.183   9.820  19.234  0.00  0.00    +0.000 C 
ATOM      3  C   UNL     1       1.406   9.184  17.868  0.00  0.00    +0.000 C 
ATOM      4  C   UNL     1       2.532   8.166  17.949  0.00  0.00    +0.000 C 
ATOM      5  C   UNL     1       2.091   7.044  18.892  0.00  0.00    +0.000 C 
ATOM      6  C   UNL     1       1.834   7.664  20.283  0.00  0.00    +0.000 C 
ENDROOT
BRANCH   5   7
ATOM      7  C   UNL     1       3.139   5.923  19.010  0.00  0.00    +0.000 C 
ATOM      8  O   UNL     1       4.178   6.119  19.646  0.00  0.00    +0.000 OA
ATOM      9  N   UNL     1       2.885   4.695  18.411  0.00  0.00    +0.000 N 
ATOM     10  C   UNL     1       1.678   4.344  17.677  0.00  0.00    +0.000 C 
BRANCH   9  11
ATOM     11  C   UNL     1       3.955   3.692  18.416  0.00  0.00    +0.000 C 
BRANCH  11  12
ATOM     12  C   UNL     1       5.046   4.013  17.419  0.00  0.00    +0.000 A 
ATOM     13  C   UNL     1       6.336   4.340  17.864  0.00  0.00    +0.000 A 
ATOM     14  C   UNL     1       7.325   4.724  16.957  0.00  0.00    +0.000 A 
ATOM     15  C   UNL     1       7.034   4.789  15.596  0.00  0.00    +0.000 A 
ATOM     16  C   UNL     1       5.766   4.440  15.138  0.00  0.00    +0.000 A 
ATOM     17  C   UNL     1       4.778   4.046  16.043  0.00  0.00    +0.000 A 
ENDBRANCH  11  12
ENDBRANCH   9  11
ENDBRANCH   5   7
BRANCH   1  18
ATOM     18  C   UNL     1       1.170   9.520  21.634  0.00  0.00    +0.000 C 
BRANCH  18  22
ATOM     19  C   UNL     1      -1.641  12.665  22.627  0.00  0.00    +0.000 A 
ATOM     20  C   UNL     1      -1.753  11.384  23.201  0.00  0.00    +0.000 A 
ATOM     21  C   UNL     1      -0.852  10.365  22.887  0.00  0.00    +0.000 A 
ATOM     22  C   UNL     1       0.167  10.597  21.968  0.00  0.00    +0.000 A 
ATOM     23  C   UNL     1       0.251  11.856  21.360  0.00  0.00    +0.000 A 
ATOM     24  C   UNL     1      -0.639  12.894  21.672  0.00  0.00    +0.000 A 
BRANCH  19  26
ATOM     25  C   UNL     1      -3.274  13.467  24.139  0.00  0.00    +0.000 C 
ATOM     26  O   UNL     1      -2.501  13.679  22.959  0.00  0.00    +0.000 OA
ENDBRANCH  19  26
BRANCH  24  27
ATOM     27  O   UNL     1      -0.351  14.024  20.956  0.00  0.00    +0.000 OA
ATOM     28  C   UNL     1      -0.622  14.068  19.566  0.00  0.00    +0.000 C 
ENDBRANCH  24  27
ENDBRANCH  18  22
ENDBRANCH   1  18
TORSDOF 7
ENDMDL
MODEL 5
REMARK VINA RESULT:      -7.0      1.112      2.313
REMARK  Name = 
REMARK  10 active torsions:
REMARK  status: ('A' for Active; 'I' for Inactive)
REMARK    1  A    between atoms: C_1  and  O_2
REMARK    2  A    between atoms: O_2  and  C_3
REMARK    3  A    between atoms: C_6  and  C_7
REMARK    4  A    between atoms: C_7  and  N_8
REMARK    5  A    between atoms: C_12  and  C_13
REMARK    6  A    between atoms: N_15  and  C_16
REMARK    7  A    between atoms: N_15  and  C_17
REMARK    8  A    between atoms: C_17  and  C_18
REMARK    9  A    between atoms: C_26  and  O_27
REMARK   10  A    between atoms: O_27  and  C_28
REMARK                            x       y       z     vdW  Elec       q    Type
REMARK                         _______ _______ _______ _____ _____    ______ ____
ROOT
ATOM      1  N   UNL     1       3.256   3.586  18.893  0.00  0.00    +0.000 NA
ATOM      2  C   UNL     1       2.568   2.687  19.833  0.00  0.00    +0.000 C 
ATOM      3  C   UNL     1       1.162   3.132  20.214  0.00  0.00    +0.000 C 
ATOM      4  C   UNL     1       1.195   4.558  20.739  0.00  0.00    +0.000 C 
ATOM      5  C   UNL     1       1.655   5.473  19.601  0.00  0.00    +0.000 C 
ATOM      6  C   UNL     1       3.072   5.030  19.177  0.00  0.00    +0.000 C 
ENDROOT
BRANCH   5   7
ATOM      7  C   UNL     1       1.676   6.958  20.005  0.00  0.00    +0.000 C 
ATOM      8  O   UNL     1       1.388   7.283  21.159  0.00  0.00    +0.000 OA
ATOM      9  N   UNL     1       2.040   7.909  19.060  0.00  0.00    +0.000 N 
ATOM     10  C   UNL     1       2.438   7.633  17.688  0.00  0.00    +0.000 C 
BRANCH   9  11
ATOM     11  C   UNL     1       1.916   9.325  19.426  0.00  0.00    +0.000 C 
BRANCH  11  12
ATOM     12  C   UNL     1       0.529   9.866  19.159  0.00  0.00    +0.000 A 
ATOM     13  C   UNL     1      -0.124   9.573  17.953  0.00  0.00    +0.000 A 
ATOM     14  C   UNL     1      -1.366  10.139  17.660  0.00  0.00    +0.000 A 
ATOM     15  C   UNL     1      -1.966  11.007  18.569  0.00  0.00    +0.000 A 
ATOM     16  C   UNL     1      -1.342  11.285  19.783  0.00  0.00    +0.000 A 
ATOM     17  C   UNL     1      -0.104  10.712  20.081  0.00  0.00    +0.000 A 
ENDBRANCH  11  12
ENDBRANCH   9  11
ENDBRANCH   5   7
BRANCH   1  18
ATOM     18  C   UNL     1       4.717   3.314  18.918  0.00  0.00    +0.000 C 
BRANCH  18  22
ATOM     19  C   UNL     1       7.236   6.488  17.384  0.00  0.00    +0.000 A 
ATOM     20  C   UNL     1       7.160   6.227  18.765  0.00  0.00    +0.000 A 
ATOM     21  C   UNL     1       6.352   5.206  19.268  0.00  0.00    +0.000 A 
ATOM     22  C   UNL     1       5.577   4.441  18.402  0.00  0.00    +0.000 A 
ATOM     23  C   UNL     1       5.615   4.731  17.032  0.00  0.00    +0.000 A 
ATOM     24  C   UNL     1       6.430   5.745  16.508  0.00  0.00    +0.000 A 
BRANCH  19  26
ATOM     25  C   UNL     1       8.101   8.676  17.632  0.00  0.00    +0.000 C 
ATOM     26  O   UNL     1       8.057   7.465  16.881  0.00  0.00    +0.000 OA
ENDBRANCH  19  26
BRANCH  24  27
ATOM     27  O   UNL     1       6.300   5.832  15.148  0.00  0.00    +0.000 OA
ATOM     28  C   UNL     1       6.160   4.652  14.377  0.00  0.00    +0.000 C 
ENDBRANCH  24  27
ENDBRANCH  18  22
ENDBRANCH   1  18
TORSDOF 7
ENDMDL
MODEL 6
REMARK VINA RESULT:      -6.9      4.454     11.168
REMARK  Name = 
REMARK  10 active torsions:
REMARK  status: ('A' for Active; 'I' for Inactive)
REMARK    1  A    between atoms: C_1  and  O_2
REMARK    2  A    between atoms: O_2  and  C_3
REMARK    3  A    between atoms: C_6  and  C_7
REMARK    4  A    between atoms: C_7  and  N_8
REMARK    5  A    between atoms: C_12  and  C_13
REMARK    6  A    between atoms: N_15  and  C_16
REMARK    7  A    between atoms: N_15  and  C_17
REMARK    8  A    between atoms: C_17  and  C_18
REMARK    9  A    between atoms: C_26  and  O_27
REMARK   10  A    between atoms: O_27  and  C_28
REMARK                            x       y       z     vdW  Elec       q    Type
REMARK                         _______ _______ _______ _____ _____    ______ ____
ROOT
ATOM      1  N   UNL     1      -1.039  11.624  21.534  0.00  0.00    +0.000 NA
ATOM      2  C   UNL     1      -0.405  12.745  20.821  0.00  0.00    +0.000 C 
ATOM      3  C   UNL     1       0.226  12.365  19.488  0.00  0.00    +0.000 C 
ATOM      4  C   UNL     1       1.201  11.216  19.686  0.00  0.00    +0.000 C 
ATOM      5  C   UNL     1       0.408   9.997  20.162  0.00  0.00    +0.000 C 
ATOM      6  C   UNL     1      -0.264  10.360  21.504  0.00  0.00    +0.000 C 
ENDROOT
BRANCH   5   7
ATOM      7  C   UNL     1       1.291   8.750  20.347  0.00  0.00    +0.000 C 
ATOM      8  O   UNL     1       1.474   8.289  21.476  0.00  0.00    +0.000 OA
ATOM      9  N   UNL     1       1.855   8.150  19.227  0.00  0.00    +0.000 N 
ATOM     10  C   UNL     1       1.670   8.583  17.850  0.00  0.00    +0.000 C 
BRANCH   9  11
ATOM     11  C   UNL     1       2.803   7.051  19.439  0.00  0.00    +0.000 C 
BRANCH  11  12
ATOM     12  C   UNL     1       2.132   5.697  19.382  0.00  0.00    +0.000 A 
ATOM     13  C   UNL     1       1.679   5.083  20.558  0.00  0.00    +0.000 A 
ATOM     14  C   UNL     1       1.138   3.796  20.528  0.00  0.00    +0.000 A 
ATOM     15  C   UNL     1       1.049   3.108  19.319  0.00  0.00    +0.000 A 
ATOM     16  C   UNL     1       1.470   3.717  18.139  0.00  0.00    +0.000 A 
ATOM     17  C   UNL     1       2.002   5.007  18.168  0.00  0.00    +0.000 A 
ENDBRANCH  11  12
ENDBRANCH   9  11
ENDBRANCH   5   7
BRANCH   1  18
ATOM     18  C   UNL     1      -1.236  11.987  22.961  0.00  0.00    +0.000 C 
BRANCH  18  22
ATOM     19  C   UNL     1      -4.666  14.548  23.633  0.00  0.00    +0.000 A 
ATOM     20  C   UNL     1      -3.369  14.967  23.983  0.00  0.00    +0.000 A 
ATOM     21  C   UNL     1      -2.258  14.149  23.770  0.00  0.00    +0.000 A 
ATOM     22  C   UNL     1      -2.423  12.879  23.227  0.00  0.00    +0.000 A 
ATOM     23  C   UNL     1      -3.719  12.441  22.922  0.00  0.00    +0.000 A 
ATOM     24  C   UNL     1      -4.845  13.254  23.120  0.00  0.00    +0.000 A 
BRANCH  19  26
ATOM     25  C   UNL     1      -6.104  16.170  22.683  0.00  0.00    +0.000 C 
ATOM     26  O   UNL     1      -5.756  15.362  23.806  0.00  0.00    +0.000 OA
ENDBRANCH  19  26
BRANCH  24  27
ATOM     27  O   UNL     1      -5.992  12.611  22.742  0.00  0.00    +0.000 OA
ATOM     28  C   UNL     1      -6.278  12.427  21.367  0.00  0.00    +0.000 C 
ENDBRANCH  24  27
ENDBRANCH  18  22
ENDBRANCH   1  18
TORSDOF 7
ENDMDL
MODEL 7
REMARK VINA RESULT:      -6.8      3.392      6.306
REMARK  Name = 
REMARK  10 active torsions:
REMARK  status: ('A' for Active; 'I' for Inactive)
REMARK    1  A    between atoms: C_1  and  O_2
REMARK    2  A    between atoms: O_2  and  C_3
REMARK    3  A    between atoms: C_6  and  C_7
REMARK    4  A    between atoms: C_7  and  N_8
REMARK    5  A    between atoms: C_12  and  C_13
REMARK    6  A    between atoms: N_15  and  C_16
REMARK    7  A    between atoms: N_15  and  C_17
REMARK    8  A    between atoms: C_17  and  C_18
REMARK    9  A    between atoms: C_26  and  O_27
REMARK   10  A    between atoms: O_27  and  C_28
REMARK                            x       y       z     vdW  Elec       q    Type
REMARK                         _______ _______ _______ _____ _____    ______ ____
ROOT
ATOM      1  N   UNL     1       1.052  10.139  18.624  0.00  0.00    +0.000 NA
ATOM      2  C   UNL     1       1.766  11.423  18.527  0.00  0.00    +0.000 C 
ATOM      3  C   UNL     1       1.033  12.599  19.160  0.00  0.00    +0.000 C 
ATOM      4  C   UNL     1      -0.371  12.704  18.586  0.00  0.00    +0.000 C 
ATOM      5  C   UNL     1      -1.140  11.441  18.979  0.00  0.00    +0.000 C 
ATOM      6  C   UNL     1      -0.406  10.227  18.370  0.00  0.00    +0.000 C 
ENDROOT
BRANCH   5   7
ATOM      7  C   UNL     1      -2.600  11.460  18.494  0.00  0.00    +0.000 C 
ATOM      8  O   UNL     1      -2.910  10.868  17.457  0.00  0.00    +0.000 OA
ATOM      9  N   UNL     1      -3.554  12.133  19.248  0.00  0.00    +0.000 N 
ATOM     10  C   UNL     1      -3.307  12.826  20.504  0.00  0.00    +0.000 C 
BRANCH   9  11
ATOM     11  C   UNL     1      -4.907  12.258  18.695  0.00  0.00    +0.000 C 
BRANCH  11  12
ATOM     12  C   UNL     1      -5.916  11.428  19.458  0.00  0.00    +0.000 A 
ATOM     13  C   UNL     1      -6.270  10.150  19.003  0.00  0.00    +0.000 A 
ATOM     14  C   UNL     1      -7.263   9.413  19.650  0.00  0.00    +0.000 A 
ATOM     15  C   UNL     1      -7.916   9.949  20.757  0.00  0.00    +0.000 A 
ATOM     16  C   UNL     1      -7.556  11.207  21.237  0.00  0.00    +0.000 A 
ATOM     17  C   UNL     1      -6.555  11.940  20.597  0.00  0.00    +0.000 A 
ENDBRANCH  11  12
ENDBRANCH   9  11
ENDBRANCH   5   7
BRANCH   1  18
ATOM     18  C   UNL     1       1.615   9.179  17.641  0.00  0.00    +0.000 C 
BRANCH  18  22
ATOM     19  C   UNL     1       3.576   5.696  19.316  0.00  0.00    +0.000 A 
ATOM     20  C   UNL     1       2.478   6.293  19.965  0.00  0.00    +0.000 A 
ATOM     21  C   UNL     1       1.839   7.414  19.433  0.00  0.00    +0.000 A 
ATOM     22  C   UNL     1       2.305   7.983  18.251  0.00  0.00    +0.000 A 
ATOM     23  C   UNL     1       3.427   7.421  17.629  0.00  0.00    +0.000 A 
ATOM     24  C   UNL     1       4.073   6.288  18.145  0.00  0.00    +0.000 A 
BRANCH  19  26
ATOM     25  C   UNL     1       3.360   3.411  19.888  0.00  0.00    +0.000 C 
ATOM     26  O   UNL     1       4.183   4.573  19.815  0.00  0.00    +0.000 OA
ENDBRANCH  19  26
BRANCH  24  27
ATOM     27  O   UNL     1       5.134   5.924  17.361  0.00  0.00    +0.000 OA
ATOM     28  C   UNL     1       6.272   6.764  17.280  0.00  0.00    +0.000 C 
ENDBRANCH  24  27
ENDBRANCH  18  22
ENDBRANCH   1  18
TORSDOF 7
ENDMDL
MODEL 8
REMARK VINA RESULT:      -6.8      3.656      8.415
REMARK  Name = 
REMARK  10 active torsions:
REMARK  status: ('A' for Active; 'I' for Inactive)
REMARK    1  A    between atoms: C_1  and  O_2
REMARK    2  A    between atoms: O_2  and  C_3
REMARK    3  A    between atoms: C_6  and  C_7
REMARK    4  A    between atoms: C_7  and  N_8
REMARK    5  A    between atoms: C_12  and  C_13
REMARK    6  A    between atoms: N_15  and  C_16
REMARK    7  A    between atoms: N_15  and  C_17
REMARK    8  A    between atoms: C_17  and  C_18
REMARK    9  A    between atoms: C_26  and  O_27
REMARK   10  A    between atoms: O_27  and  C_28
REMARK                            x       y       z     vdW  Elec       q    Type
REMARK                         _______ _______ _______ _____ _____    ______ ____
ROOT
ATOM      1  N   UNL     1      -0.099  12.541  18.815  0.00  0.00    +0.000 NA
ATOM      2  C   UNL     1      -1.326  12.317  18.033  0.00  0.00    +0.000 C 
ATOM      3  C   UNL     1      -1.895  10.909  18.146  0.00  0.00    +0.000 C 
ATOM      4  C   UNL     1      -0.824   9.888  17.795  0.00  0.00    +0.000 C 
ATOM      5  C   UNL     1       0.294   9.997  18.834  0.00  0.00    +0.000 C 
ATOM      6  C   UNL     1       0.876  11.425  18.760  0.00  0.00    +0.000 C 
ENDROOT
BRANCH   5   7
ATOM      7  C   UNL     1       1.416   8.968  18.608  0.00  0.00    +0.000 C 
ATOM      8  O   UNL     1       1.925   8.851  17.491  0.00  0.00    +0.000 OA
ATOM      9  N   UNL     1       1.850   8.197  19.680  0.00  0.00    +0.000 N 
ATOM     10  C   UNL     1       1.351   8.283  21.044  0.00  0.00    +0.000 C 
BRANCH   9  11
ATOM     11  C   UNL     1       2.818   7.128  19.410  0.00  0.00    +0.000 C 
BRANCH  11  12
ATOM     12  C   UNL     1       2.152   5.780  19.248  0.00  0.00    +0.000 A 
ATOM     13  C   UNL     1       1.662   5.094  20.368  0.00  0.00    +0.000 A 
ATOM     14  C   UNL     1       1.124   3.812  20.239  0.00  0.00    +0.000 A 
ATOM     15  C   UNL     1       1.076   3.200  18.988  0.00  0.00    +0.000 A 
ATOM     16  C   UNL     1       1.535   3.881  17.862  0.00  0.00    +0.000 A 
ATOM     17  C   UNL     1       2.063   5.168  17.989  0.00  0.00    +0.000 A 
ENDBRANCH  11  12
ENDBRANCH   9  11
ENDBRANCH   5   7
BRANCH   1  18
ATOM     18  C   UNL     1       0.595  13.758  18.321  0.00  0.00    +0.000 C 
BRANCH  18  22
ATOM     19  C   UNL     1       4.318  14.651  20.351  0.00  0.00    +0.000 A 
ATOM     20  C   UNL     1       3.182  14.232  21.070  0.00  0.00    +0.000 A 
ATOM     21  C   UNL     1       1.979  13.941  20.425  0.00  0.00    +0.000 A 
ATOM     22  C   UNL     1       1.876  14.092  19.045  0.00  0.00    +0.000 A 
ATOM     23  C   UNL     1       2.990  14.555  18.333  0.00  0.00    +0.000 A 
ATOM     24  C   UNL     1       4.210  14.841  18.965  0.00  0.00    +0.000 A 
BRANCH  19  26
ATOM     25  C   UNL     1       5.679  14.286  22.251  0.00  0.00    +0.000 C 
ATOM     26  O   UNL     1       5.512  14.901  20.976  0.00  0.00    +0.000 OA
ENDBRANCH  19  26
BRANCH  24  27
ATOM     27  O   UNL     1       5.145  15.269  18.063  0.00  0.00    +0.000 OA
ATOM     28  C   UNL     1       6.289  14.475  17.802  0.00  0.00    +0.000 C 
ENDBRANCH  24  27
ENDBRANCH  18  22
ENDBRANCH   1  18
TORSDOF 7
ENDMDL
MODEL 9
REMARK VINA RESULT:      -6.7      2.050      8.704
REMARK  Name = 
REMARK  10 active torsions:
REMARK  status: ('A' for Active; 'I' for Inactive)
REMARK    1  A    between atoms: C_1  and  O_2
REMARK    2  A    between atoms: O_2  and  C_3
REMARK    3  A    between atoms: C_6  and  C_7
REMARK    4  A    between atoms: C_7  and  N_8
REMARK    5  A    between atoms: C_12  and  C_13
REMARK    6  A    between atoms: N_15  and  C_16
REMARK    7  A    between atoms: N_15  and  C_17
REMARK    8  A    between atoms: C_17  and  C_18
REMARK    9  A    between atoms: C_26  and  O_27
REMARK   10  A    between atoms: O_27  and  C_28
REMARK                            x       y       z     vdW  Elec       q    Type
REMARK                         _______ _______ _______ _____ _____    ______ ____
ROOT
ATOM      1  N   UNL     1       2.937   6.282  19.577  0.00  0.00    +0.000 NA
ATOM      2  C   UNL     1       2.137   5.049  19.661  0.00  0.00    +0.000 C 
ATOM      3  C   UNL     1       2.949   3.790  19.937  0.00  0.00    +0.000 C 
ATOM      4  C   UNL     1       4.062   3.657  18.910  0.00  0.00    +0.000 C 
ATOM      5  C   UNL     1       5.013   4.843  19.084  0.00  0.00    +0.000 C 
ATOM      6  C   UNL     1       4.211   6.138  18.832  0.00  0.00    +0.000 C 
ENDROOT
BRANCH   5   7
ATOM      7  C   UNL     1       6.216   4.784  18.125  0.00  0.00    +0.000 C 
ATOM      8  O   UNL     1       7.270   4.261  18.495  0.00  0.00    +0.000 OA
ATOM      9  N   UNL     1       6.085   5.309  16.845  0.00  0.00    +0.000 N 
ATOM     10  C   UNL     1       4.879   5.907  16.293  0.00  0.00    +0.000 C 
BRANCH   9  11
ATOM     11  C   UNL     1       7.283   5.369  16.000  0.00  0.00    +0.000 C 
BRANCH  11  12
ATOM     12  C   UNL     1       7.018   4.872  14.596  0.00  0.00    +0.000 A 
ATOM     13  C   UNL     1       6.094   3.841  14.373  0.00  0.00    +0.000 A 
ATOM     14  C   UNL     1       5.907   3.317  13.093  0.00  0.00    +0.000 A 
ATOM     15  C   UNL     1       6.647   3.814  12.022  0.00  0.00    +0.000 A 
ATOM     16  C   UNL     1       7.549   4.857  12.225  0.00  0.00    +0.000 A 
ATOM     17  C   UNL     1       7.729   5.389  13.503  0.00  0.00    +0.000 A 
ENDBRANCH  11  12
ENDBRANCH   9  11
ENDBRANCH   5   7
BRANCH   1  18
ATOM     18  C   UNL     1       2.149   7.345  18.903  0.00  0.00    +0.000 C 
BRANCH  18  22
ATOM     19  C   UNL     1       0.479  10.345  21.546  0.00  0.00    +0.000 A 
ATOM     20  C   UNL     1       0.947   9.116  22.048  0.00  0.00    +0.000 A 
ATOM     21  C   UNL     1       1.488   8.144  21.205  0.00  0.00    +0.000 A 
ATOM     22  C   UNL     1       1.544   8.368  19.833  0.00  0.00    +0.000 A 
ATOM     23  C   UNL     1       1.034   9.570  19.325  0.00  0.00    +0.000 A 
ATOM     24  C   UNL     1       0.498  10.562  20.160  0.00  0.00    +0.000 A 
BRANCH  19  26
ATOM     25  C   UNL     1      -1.214  10.976  23.075  0.00  0.00    +0.000 C 
ATOM     26  O   UNL     1      -0.019  11.317  22.375  0.00  0.00    +0.000 OA
ENDBRANCH  19  26
BRANCH  24  27
ATOM     27  O   UNL     1       0.073  11.642  19.436  0.00  0.00    +0.000 OA
ATOM     28  C   UNL     1      -1.314  11.874  19.261  0.00  0.00    +0.000 C 
ENDBRANCH  24  27
ENDBRANCH  18  22
ENDBRANCH   1  18
TORSDOF 7
ENDMDL
