MODEL 1
REMARK VINA RESULT:      -7.4      0.000      0.000
REMARK  Name = 
REMARK  5 active torsions:
REMARK  status: ('A' for Active; 'I' for Inactive)
REMARK    1  A    between atoms: C_2  and  C_3
REMARK    2  A    between atoms: C_6  and  C_7
REMARK    3  A    between atoms: N_14  and  C_15
REMARK    4  A    between atoms: C_19  and  C_20
REMARK    5  A    between atoms: N_30  and  C_31
REMARK                            x       y       z     vdW  Elec       q    Type
REMARK                         _______ _______ _______ _____ _____    ______ ____
ROOT
ATOM      1  C   UNL     1       0.023  11.434  18.442  0.00  0.00    +0.000 C 
ATOM      2  C   UNL     1      -1.431  11.242  18.379  0.00  0.00    +0.000 C 
ATOM      3  C   UNL     1      -2.326  11.786  19.193  0.00  0.00    +0.000 C 
ATOM      4  C   UNL     1      -3.742  11.384  18.904  0.00  0.00    +0.000 C 
ATOM      5  C   UNL     1      -3.635  10.412  17.724  0.00  0.00    +0.000 C 
ATOM      6  C   UNL     1      -2.165  10.421  17.421  0.00  0.00    +0.000 C 
ATOM      7  O   UNL     1      -1.636   9.832  16.493  0.00  0.00    +0.000 OA
ATOM      8  N   UNL     1      -1.916  12.688  20.153  0.00  0.00    +0.000 N 
ATOM      9  C   UNL     1      -0.553  13.082  20.276  0.00  0.00    +0.000 C 
ATOM     10  O   UNL     1      -0.202  13.908  21.128  0.00  0.00    +0.000 OA
ATOM     11  N   UNL     1       0.382  12.478  19.419  0.00  0.00    +0.000 N 
ATOM     12  C   UNL     1       1.743  12.846  19.370  0.00  0.00    +0.000 C 
ATOM     13  O   UNL     1       2.538  12.357  18.566  0.00  0.00    +0.000 OA
ATOM     14  N   UNL     1       2.162  13.803  20.265  0.00  0.00    +0.000 N 
ATOM     15  H   UNL     1       1.480  14.181  20.920  0.00  0.00    +0.000 HD
ENDROOT
BRANCH   1  19
ATOM     16  C   UNL     1       2.078   7.709  19.262  0.00  0.00    +0.000 A 
ATOM     17  C   UNL     1       2.110   8.267  17.984  0.00  0.00    +0.000 A 
ATOM     18  C   UNL     1       1.422   9.450  17.726  0.00  0.00    +0.000 A 
ATOM     19  C   UNL     1       0.711  10.104  18.748  0.00  0.00    +0.000 A 
ATOM     20  C   UNL     1       0.670   9.526  20.027  0.00  0.00    +0.000 A 
ATOM     21  C   UNL     1       1.348   8.332  20.280  0.00  0.00    +0.000 A 
BRANCH  16  23
ATOM     22  N   UNL     1       3.405   5.538  19.757  0.00  0.00    +0.000 NA
ATOM     23  C   UNL     1       2.808   6.512  19.537  0.00  0.00    +0.000 C 
ENDBRANCH  16  23
ENDBRANCH   1  19
BRANCH   8  24
ATOM     24  C   UNL     1      -2.857  13.321  21.031  0.00  0.00    +0.000 A 
ATOM     25  C   UNL     1      -3.412  14.556  20.696  0.00  0.00    +0.000 A 
ATOM     26  C   UNL     1      -4.303  15.136  21.578  0.00  0.00    +0.000 A 
ATOM     27  N   UNL     1      -4.654  14.584  22.758  0.00  0.00    +0.000 NA
ATOM     28  C   UNL     1      -4.088  13.392  23.099  0.00  0.00    +0.000 A 
ATOM     29  C   UNL     1      -3.202  12.727  22.248  0.00  0.00    +0.000 A 
BRANCH  28  30
ATOM     30  C   UNL     1      -4.402  12.777  24.458  0.00  0.00    +0.000 C 
ATOM     31  F   UNL     1      -5.730  12.640  24.726  0.00  0.00    +0.000 F 
ATOM     32  F   UNL     1      -3.861  11.530  24.596  0.00  0.00    +0.000 F 
ATOM     33  F   UNL     1      -3.886  13.510  25.489  0.00  0.00    +0.000 F 
ENDBRANCH  28  30
ENDBRANCH   8  24
BRANCH  14  34
ATOM     34  C   UNL     1       3.529  14.209  20.367  0.00  0.00    +0.000 C 
ATOM     35  C   UNL     1       3.876  15.578  20.883  0.00  0.00    +0.000 C 
ATOM     36  C   UNL     1       4.204  14.365  21.701  0.00  0.00    +0.000 C 
ENDBRANCH  14  34
TORSDOF 5
ENDMDL
MODEL 2
REMARK VINA RESULT:      -7.4      0.131      1.044
REMARK  Name = 
REMARK  5 active torsions:
REMARK  status: ('A' for Active; 'I' for Inactive)
REMARK    1  A    between atoms: C_2  and  C_3
REMARK    2  A    between atoms: C_6  and  C_7
REMARK    3  A    between atoms: N_14  and  C_15
REMARK    4  A    between atoms: C_19  and  C_20
REMARK    5  A    between atoms: N_30  and  C_31
REMARK                            x       y       z     vdW  Elec       q    Type
REMARK                         _______ _______ _______ _____ _____    ______ ____
ROOT
ATOM      1  C   UNL     1       0.075  11.509  18.468  0.00  0.00    +0.000 C 
ATOM      2  C   UNL     1      -1.374  11.281  18.421  0.00  0.00    +0.000 C 
ATOM      3  C   UNL     1      -2.273  11.806  19.243  0.00  0.00    +0.000 C 
ATOM      4  C   UNL     1      -3.681  11.368  18.970  0.00  0.00    +0.000 C 
ATOM      5  C   UNL     1      -3.563  10.396  17.791  0.00  0.00    +0.000 C 
ATOM      6  C   UNL     1      -2.097  10.441  17.473  0.00  0.00    +0.000 C 
ATOM      7  O   UNL     1      -1.563   9.863  16.541  0.00  0.00    +0.000 OA
ATOM      8  N   UNL     1      -1.876  12.720  20.197  0.00  0.00    +0.000 N 
ATOM      9  C   UNL     1      -0.522  13.147  20.304  0.00  0.00    +0.000 C 
ATOM     10  O   UNL     1      -0.182  13.984  21.152  0.00  0.00    +0.000 OA
ATOM     11  N   UNL     1       0.420  12.564  19.439  0.00  0.00    +0.000 N 
ATOM     12  C   UNL     1       1.771  12.965  19.376  0.00  0.00    +0.000 C 
ATOM     13  O   UNL     1       2.569  12.494  18.564  0.00  0.00    +0.000 OA
ATOM     14  N   UNL     1       2.175  13.934  20.264  0.00  0.00    +0.000 N 
ATOM     15  H   UNL     1       1.490  14.298  20.925  0.00  0.00    +0.000 HD
ENDROOT
BRANCH   1  19
ATOM     16  C   UNL     1       2.022   7.745  19.370  0.00  0.00    +0.000 A 
ATOM     17  C   UNL     1       1.287   8.412  20.350  0.00  0.00    +0.000 A 
ATOM     18  C   UNL     1       0.689   9.636  20.056  0.00  0.00    +0.000 A 
ATOM     19  C   UNL     1       0.799  10.197  18.771  0.00  0.00    +0.000 A 
ATOM     20  C   UNL     1       1.556   9.526  17.797  0.00  0.00    +0.000 A 
ATOM     21  C   UNL     1       2.166   8.308  18.098  0.00  0.00    +0.000 A 
BRANCH  16  23
ATOM     22  N   UNL     1       3.093   5.444  19.895  0.00  0.00    +0.000 NA
ATOM     23  C   UNL     1       2.610   6.475  19.661  0.00  0.00    +0.000 C 
ENDBRANCH  16  23
ENDBRANCH   1  19
BRANCH   8  24
ATOM     24  C   UNL     1      -2.822  13.331  21.084  0.00  0.00    +0.000 A 
ATOM     25  C   UNL     1      -3.383  14.569  20.769  0.00  0.00    +0.000 A 
ATOM     26  C   UNL     1      -4.281  15.128  21.658  0.00  0.00    +0.000 A 
ATOM     27  N   UNL     1      -4.631  14.553  22.827  0.00  0.00    +0.000 NA
ATOM     28  C   UNL     1      -4.060  13.358  23.149  0.00  0.00    +0.000 A 
ATOM     29  C   UNL     1      -3.168  12.714  22.288  0.00  0.00    +0.000 A 
BRANCH  28  30
ATOM     30  C   UNL     1      -4.375  12.718  24.495  0.00  0.00    +0.000 C 
ATOM     31  F   UNL     1      -3.911  13.406  25.574  0.00  0.00    +0.000 F 
ATOM     32  F   UNL     1      -5.718  12.570  24.693  0.00  0.00    +0.000 F 
ATOM     33  F   UNL     1      -3.855  11.459  24.602  0.00  0.00    +0.000 F 
ENDBRANCH  28  30
ENDBRANCH   8  24
BRANCH  14  34
ATOM     34  C   UNL     1       3.532  14.374  20.351  0.00  0.00    +0.000 C 
ATOM     35  C   UNL     1       3.878  15.615  21.127  0.00  0.00    +0.000 C 
ATOM     36  C   UNL     1       4.310  14.271  21.633  0.00  0.00    +0.000 C 
ENDBRANCH  14  34
TORSDOF 5
ENDMDL
MODEL 3
REMARK VINA RESULT:      -6.9      1.621      2.188
REMARK  Name = 
REMARK  5 active torsions:
REMARK  status: ('A' for Active; 'I' for Inactive)
REMARK    1  A    between atoms: C_2  and  C_3
REMARK    2  A    between atoms: C_6  and  C_7
REMARK    3  A    between atoms: N_14  and  C_15
REMARK    4  A    between atoms: C_19  and  C_20
REMARK    5  A    between atoms: N_30  and  C_31
REMARK                            x       y       z     vdW  Elec       q    Type
REMARK                         _______ _______ _______ _____ _____    ______ ____
ROOT
ATOM      1  C   UNL     1      -1.040  12.226  18.998  0.00  0.00    +0.000 C 
ATOM      2  C   UNL     1      -2.416  11.875  18.625  0.00  0.00    +0.000 C 
ATOM      3  C   UNL     1      -3.518  12.260  19.256  0.00  0.00    +0.000 C 
ATOM      4  C   UNL     1      -4.784  11.720  18.660  0.00  0.00    +0.000 C 
ATOM      5  C   UNL     1      -4.320  10.846  17.491  0.00  0.00    +0.000 C 
ATOM      6  C   UNL     1      -2.832  11.041  17.503  0.00  0.00    +0.000 C 
ATOM      7  O   UNL     1      -2.057  10.578  16.683  0.00  0.00    +0.000 OA
ATOM      8  N   UNL     1      -3.426  13.138  20.316  0.00  0.00    +0.000 N 
ATOM      9  C   UNL     1      -2.176  13.674  20.737  0.00  0.00    +0.000 C 
ATOM     10  O   UNL     1      -2.111  14.477  21.677  0.00  0.00    +0.000 OA
ATOM     11  N   UNL     1      -1.018  13.238  20.071  0.00  0.00    +0.000 N 
ATOM     12  C   UNL     1       0.268  13.760  20.323  0.00  0.00    +0.000 C 
ATOM     13  O   UNL     1       1.264  13.417  19.684  0.00  0.00    +0.000 OA
ATOM     14  N   UNL     1       0.374  14.697  21.324  0.00  0.00    +0.000 N 
ATOM     15  H   UNL     1      -0.469  14.952  21.837  0.00  0.00    +0.000 HD
ENDROOT
BRANCH   1  19
ATOM     16  C   UNL     1       1.040   8.595  20.123  0.00  0.00    +0.000 A 
ATOM     17  C   UNL     1       0.065   9.139  20.960  0.00  0.00    +0.000 A 
ATOM     18  C   UNL     1      -0.577  10.321  20.600  0.00  0.00    +0.000 A 
ATOM     19  C   UNL     1      -0.268  10.965  19.388  0.00  0.00    +0.000 A 
ATOM     20  C   UNL     1       0.727  10.420  18.561  0.00  0.00    +0.000 A 
ATOM     21  C   UNL     1       1.379   9.242  18.930  0.00  0.00    +0.000 A 
BRANCH  16  23
ATOM     22  N   UNL     1       2.193   6.364  20.764  0.00  0.00    +0.000 NA
ATOM     23  C   UNL     1       1.678   7.366  20.475  0.00  0.00    +0.000 C 
ENDBRANCH  16  23
ENDBRANCH   1  19
BRANCH   8  24
ATOM     24  C   UNL     1      -4.596  13.601  21.003  0.00  0.00    +0.000 A 
ATOM     25  C   UNL     1      -5.215  14.791  20.617  0.00  0.00    +0.000 A 
ATOM     26  C   UNL     1      -6.332  15.206  21.315  0.00  0.00    +0.000 A 
ATOM     27  N   UNL     1      -6.849  14.536  22.366  0.00  0.00    +0.000 NA
ATOM     28  C   UNL     1      -6.226  13.391  22.763  0.00  0.00    +0.000 A 
ATOM     29  C   UNL     1      -5.111  12.888  22.089  0.00  0.00    +0.000 A 
BRANCH  28  30
ATOM     30  C   UNL     1      -6.737  12.650  23.992  0.00  0.00    +0.000 C 
ATOM     31  F   UNL     1      -5.762  12.145  24.797  0.00  0.00    +0.000 F 
ATOM     32  F   UNL     1      -7.507  13.447  24.791  0.00  0.00    +0.000 F 
ATOM     33  F   UNL     1      -7.536  11.592  23.663  0.00  0.00    +0.000 F 
ENDBRANCH  28  30
ENDBRANCH   8  24
BRANCH  14  34
ATOM     34  C   UNL     1       1.630  15.247  21.727  0.00  0.00    +0.000 C 
ATOM     35  C   UNL     1       2.036  16.622  21.272  0.00  0.00    +0.000 C 
ATOM     36  C   UNL     1       1.713  16.376  22.715  0.00  0.00    +0.000 C 
ENDBRANCH  14  34
TORSDOF 5
ENDMDL
MODEL 4
REMARK VINA RESULT:      -6.7      1.632      2.241
REMARK  Name = 
REMARK  5 active torsions:
REMARK  status: ('A' for Active; 'I' for Inactive)
REMARK    1  A    between atoms: C_2  and  C_3
REMARK    2  A    between atoms: C_6  and  C_7
REMARK    3  A    between atoms: N_14  and  C_15
REMARK    4  A    between atoms: C_19  and  C_20
REMARK    5  A    between atoms: N_30  and  C_31
REMARK                            x       y       z     vdW  Elec       q    Type
REMARK                         _______ _______ _______ _____ _____    ______ ____
ROOT
ATOM      1  C   UNL     1       0.035  11.526  18.565  0.00  0.00    +0.000 C 
ATOM      2  C   UNL     1      -1.415  11.305  18.507  0.00  0.00    +0.000 C 
ATOM      3  C   UNL     1      -2.315  11.815  19.338  0.00  0.00    +0.000 C 
ATOM      4  C   UNL     1      -3.724  11.389  19.050  0.00  0.00    +0.000 C 
ATOM      5  C   UNL     1      -3.605  10.444  17.850  0.00  0.00    +0.000 C 
ATOM      6  C   UNL     1      -2.139  10.489  17.538  0.00  0.00    +0.000 C 
ATOM      7  O   UNL     1      -1.604   9.929  16.596  0.00  0.00    +0.000 OA
ATOM      8  N   UNL     1      -1.917  12.706  20.313  0.00  0.00    +0.000 N 
ATOM      9  C   UNL     1      -0.562  13.125  20.435  0.00  0.00    +0.000 C 
ATOM     10  O   UNL     1      -0.222  13.942  21.301  0.00  0.00    +0.000 OA
ATOM     11  N   UNL     1       0.380  12.558  19.560  0.00  0.00    +0.000 N 
ATOM     12  C   UNL     1       1.733  12.955  19.510  0.00  0.00    +0.000 C 
ATOM     13  O   UNL     1       2.532  12.497  18.692  0.00  0.00    +0.000 OA
ATOM     14  N   UNL     1       2.138  13.902  20.421  0.00  0.00    +0.000 N 
ATOM     15  H   UNL     1       1.453  14.253  21.088  0.00  0.00    +0.000 HD
ENDROOT
BRANCH   1  19
ATOM     16  C   UNL     1       1.963   7.735  19.392  0.00  0.00    +0.000 A 
ATOM     17  C   UNL     1       1.240   8.391  20.388  0.00  0.00    +0.000 A 
ATOM     18  C   UNL     1       0.648   9.623  20.117  0.00  0.00    +0.000 A 
ATOM     19  C   UNL     1       0.753  10.204  18.841  0.00  0.00    +0.000 A 
ATOM     20  C   UNL     1       1.497   9.544  17.850  0.00  0.00    +0.000 A 
ATOM     21  C   UNL     1       2.102   8.317  18.128  0.00  0.00    +0.000 A 
BRANCH  16  23
ATOM     22  N   UNL     1       3.023   5.419  19.874  0.00  0.00    +0.000 NA
ATOM     23  C   UNL     1       2.545   6.457  19.657  0.00  0.00    +0.000 C 
ENDBRANCH  16  23
ENDBRANCH   1  19
BRANCH   8  24
ATOM     24  C   UNL     1      -2.865  13.302  21.210  0.00  0.00    +0.000 A 
ATOM     25  C   UNL     1      -3.171  12.684  22.423  0.00  0.00    +0.000 A 
ATOM     26  C   UNL     1      -4.099  13.286  23.250  0.00  0.00    +0.000 A 
ATOM     27  N   UNL     1      -4.744  14.430  22.942  0.00  0.00    +0.000 NA
ATOM     28  C   UNL     1      -4.468  15.017  21.743  0.00  0.00    +0.000 A 
ATOM     29  C   UNL     1      -3.519  14.487  20.866  0.00  0.00    +0.000 A 
BRANCH  28  30
ATOM     30  C   UNL     1      -5.234  16.268  21.329  0.00  0.00    +0.000 C 
ATOM     31  F   UNL     1      -6.580  16.199  21.521  0.00  0.00    +0.000 F 
ATOM     32  F   UNL     1      -4.814  17.376  22.008  0.00  0.00    +0.000 F 
ATOM     33  F   UNL     1      -5.059  16.567  20.008  0.00  0.00    +0.000 F 
ENDBRANCH  28  30
ENDBRANCH   8  24
BRANCH  14  34
ATOM     34  C   UNL     1       3.497  14.333  20.523  0.00  0.00    +0.000 C 
ATOM     35  C   UNL     1       3.820  15.692  21.082  0.00  0.00    +0.000 C 
ATOM     36  C   UNL     1       4.183  14.459  21.854  0.00  0.00    +0.000 C 
ENDBRANCH  14  34
TORSDOF 5
ENDMDL
MODEL 5
REMARK VINA RESULT:      -6.6      1.218      1.624
REMARK  Name = 
REMARK  5 active torsions:
REMARK  status: ('A' for Active; 'I' for Inactive)
REMARK    1  A    between atoms: C_2  and  C_3
REMARK    2  A    between atoms: C_6  and  C_7
REMARK    3  A    between atoms: N_14  and  C_15
REMARK    4  A    between atoms: C_19  and  C_20
REMARK    5  A    between atoms: N_30  and  C_31
REMARK                            x       y       z     vdW  Elec       q    Type
REMARK                         _______ _______ _______ _____ _____    ______ ____
ROOT
ATOM      1  C   UNL     1       0.177  11.853  18.378  0.00  0.00    +0.000 C 
ATOM      2  C   UNL     1      -1.281  11.811  18.546  0.00  0.00    +0.000 C 
ATOM      3  C   UNL     1      -1.991  12.556  19.384  0.00  0.00    +0.000 C 
ATOM      4  C   UNL     1      -3.463  12.271  19.357  0.00  0.00    +0.000 C 
ATOM      5  C   UNL     1      -3.621  11.140  18.336  0.00  0.00    +0.000 C 
ATOM      6  C   UNL     1      -2.219  10.950  17.835  0.00  0.00    +0.000 C 
ATOM      7  O   UNL     1      -1.890  10.185  16.944  0.00  0.00    +0.000 OA
ATOM      8  N   UNL     1      -1.364  13.532  20.130  0.00  0.00    +0.000 N 
ATOM      9  C   UNL     1       0.030  13.791  20.001  0.00  0.00    +0.000 C 
ATOM     10  O   UNL     1       0.576  14.685  20.662  0.00  0.00    +0.000 OA
ATOM     11  N   UNL     1       0.770  12.978  19.126  0.00  0.00    +0.000 N 
ATOM     12  C   UNL     1       2.134  13.188  18.834  0.00  0.00    +0.000 C 
ATOM     13  O   UNL     1       2.752  12.510  18.012  0.00  0.00    +0.000 OA
ATOM     14  N   UNL     1       2.764  14.209  19.507  0.00  0.00    +0.000 N 
ATOM     15  H   UNL     1       2.224  14.745  20.184  0.00  0.00    +0.000 HD
ENDROOT
BRANCH   1  19
ATOM     16  C   UNL     1       1.799   8.020  19.581  0.00  0.00    +0.000 A 
ATOM     17  C   UNL     1       1.127   8.824  20.503  0.00  0.00    +0.000 A 
ATOM     18  C   UNL     1       0.635  10.066  20.111  0.00  0.00    +0.000 A 
ATOM     19  C   UNL     1       0.788  10.512  18.786  0.00  0.00    +0.000 A 
ATOM     20  C   UNL     1       1.480   9.704  17.870  0.00  0.00    +0.000 A 
ATOM     21  C   UNL     1       1.985   8.466  18.269  0.00  0.00    +0.000 A 
BRANCH  16  23
ATOM     22  N   UNL     1       2.663   5.683  20.294  0.00  0.00    +0.000 NA
ATOM     23  C   UNL     1       2.278   6.732  19.973  0.00  0.00    +0.000 C 
ENDBRANCH  16  23
ENDBRANCH   1  19
BRANCH   8  24
ATOM     24  C   UNL     1      -2.102  14.377  21.023  0.00  0.00    +0.000 A 
ATOM     25  C   UNL     1      -2.703  15.545  20.551  0.00  0.00    +0.000 A 
ATOM     26  C   UNL     1      -3.393  16.336  21.449  0.00  0.00    +0.000 A 
ATOM     27  N   UNL     1      -3.503  16.054  22.764  0.00  0.00    +0.000 NA
ATOM     28  C   UNL     1      -2.889  14.930  23.230  0.00  0.00    +0.000 A 
ATOM     29  C   UNL     1      -2.200  14.062  22.380  0.00  0.00    +0.000 A 
BRANCH  28  30
ATOM     30  C   UNL     1      -2.927  14.622  24.721  0.00  0.00    +0.000 C 
ATOM     31  F   UNL     1      -3.484  13.421  25.039  0.00  0.00    +0.000 F 
ATOM     32  F   UNL     1      -1.679  14.614  25.278  0.00  0.00    +0.000 F 
ATOM     33  F   UNL     1      -3.630  15.558  25.425  0.00  0.00    +0.000 F 
ENDBRANCH  28  30
ENDBRANCH   8  24
BRANCH  14  34
ATOM     34  C   UNL     1       4.160  14.476  19.357  0.00  0.00    +0.000 C 
ATOM     35  C   UNL     1       4.623  15.789  18.788  0.00  0.00    +0.000 C 
ATOM     36  C   UNL     1       4.868  15.471  20.233  0.00  0.00    +0.000 C 
ENDBRANCH  14  34
TORSDOF 5
ENDMDL
MODEL 6
REMARK VINA RESULT:      -6.6      1.675      2.147
REMARK  Name = 
REMARK  5 active torsions:
REMARK  status: ('A' for Active; 'I' for Inactive)
REMARK    1  A    between atoms: C_2  and  C_3
REMARK    2  A    between atoms: C_6  and  C_7
REMARK    3  A    between atoms: N_14  and  C_15
REMARK    4  A    between atoms: C_19  and  C_20
REMARK    5  A    between atoms: N_30  and  C_31
REMARK                            x       y       z     vdW  Elec       q    Type
REMARK                         _______ _______ _______ _____ _____    ______ ____
ROOT
ATOM      1  C   UNL     1      -0.026  11.587  18.589  0.00  0.00    +0.000 C 
ATOM      2  C   UNL     1      -1.483  11.415  18.529  0.00  0.00    +0.000 C 
ATOM      3  C   UNL     1      -2.367  11.954  19.359  0.00  0.00    +0.000 C 
ATOM      4  C   UNL     1      -3.789  11.576  19.068  0.00  0.00    +0.000 C 
ATOM      5  C   UNL     1      -3.700  10.629  17.867  0.00  0.00    +0.000 C 
ATOM      6  C   UNL     1      -2.232  10.625  17.557  0.00  0.00    +0.000 C 
ATOM      7  O   UNL     1      -1.714  10.050  16.615  0.00  0.00    +0.000 OA
ATOM      8  N   UNL     1      -1.941  12.829  20.336  0.00  0.00    +0.000 N 
ATOM      9  C   UNL     1      -0.573  13.203  20.460  0.00  0.00    +0.000 C 
ATOM     10  O   UNL     1      -0.207  14.006  21.329  0.00  0.00    +0.000 OA
ATOM     11  N   UNL     1       0.351  12.606  19.587  0.00  0.00    +0.000 N 
ATOM     12  C   UNL     1       1.717  12.957  19.540  0.00  0.00    +0.000 C 
ATOM     13  O   UNL     1       2.502  12.475  18.721  0.00  0.00    +0.000 OA
ATOM     14  N   UNL     1       2.152  13.889  20.453  0.00  0.00    +0.000 N 
ATOM     15  H   UNL     1       1.477  14.262  21.119  0.00  0.00    +0.000 HD
ENDROOT
BRANCH   1  19
ATOM     16  C   UNL     1       1.984   7.819  19.320  0.00  0.00    +0.000 A 
ATOM     17  C   UNL     1       2.022   8.407  18.055  0.00  0.00    +0.000 A 
ATOM     18  C   UNL     1       1.349   9.604  17.825  0.00  0.00    +0.000 A 
ATOM     19  C   UNL     1       0.646  10.242  18.864  0.00  0.00    +0.000 A 
ATOM     20  C   UNL     1       0.599   9.635  20.128  0.00  0.00    +0.000 A 
ATOM     21  C   UNL     1       1.263   8.427  20.352  0.00  0.00    +0.000 A 
BRANCH  16  23
ATOM     22  N   UNL     1       3.284   5.623  19.769  0.00  0.00    +0.000 NA
ATOM     23  C   UNL     1       2.700   6.607  19.566  0.00  0.00    +0.000 C 
ENDBRANCH  16  23
ENDBRANCH   1  19
BRANCH   8  24
ATOM     24  C   UNL     1      -2.869  13.455  21.232  0.00  0.00    +0.000 A 
ATOM     25  C   UNL     1      -3.240  12.820  22.418  0.00  0.00    +0.000 A 
ATOM     26  C   UNL     1      -4.147  13.453  23.245  0.00  0.00    +0.000 A 
ATOM     27  N   UNL     1      -4.713  14.644  22.962  0.00  0.00    +0.000 NA
ATOM     28  C   UNL     1      -4.375  15.249  21.788  0.00  0.00    +0.000 A 
ATOM     29  C   UNL     1      -3.441  14.689  20.914  0.00  0.00    +0.000 A 
BRANCH  28  30
ATOM     30  C   UNL     1      -5.053  16.558  21.400  0.00  0.00    +0.000 C 
ATOM     31  F   UNL     1      -4.454  17.676  21.895  0.00  0.00    +0.000 F 
ATOM     32  F   UNL     1      -5.105  16.728  20.046  0.00  0.00    +0.000 F 
ATOM     33  F   UNL     1      -6.352  16.612  21.820  0.00  0.00    +0.000 F 
ENDBRANCH  28  30
ENDBRANCH   8  24
BRANCH  14  34
ATOM     34  C   UNL     1       3.524  14.274  20.557  0.00  0.00    +0.000 C 
ATOM     35  C   UNL     1       3.890  15.641  21.068  0.00  0.00    +0.000 C 
ATOM     36  C   UNL     1       4.198  14.426  21.892  0.00  0.00    +0.000 C 
ENDBRANCH  14  34
TORSDOF 5
ENDMDL
MODEL 7
REMARK VINA RESULT:      -6.6      1.277      1.457
REMARK  Name = 
REMARK  5 active torsions:
REMARK  status: ('A' for Active; 'I' for Inactive)
REMARK    1  A    between atoms: C_2  and  C_3
REMARK    2  A    between atoms: C_6  and  C_7
REMARK    3  A    between atoms: N_14  and  C_15
REMARK    4  A    between atoms: C_19  and  C_20
REMARK    5  A    between atoms: N_30  and  C_31
REMARK                            x       y       z     vdW  Elec       q    Type
REMARK                         _______ _______ _______ _____ _____    ______ ____
ROOT
ATOM      1  C   UNL     1      -0.741  11.988  18.915  0.00  0.00    +0.000 C 
ATOM      2  C   UNL     1      -2.156  11.759  18.602  0.00  0.00    +0.000 C 
ATOM      3  C   UNL     1      -3.192  12.234  19.282  0.00  0.00    +0.000 C 
ATOM      4  C   UNL     1      -4.525  11.809  18.742  0.00  0.00    +0.000 C 
ATOM      5  C   UNL     1      -4.190  10.905  17.552  0.00  0.00    +0.000 C 
ATOM      6  C   UNL     1      -2.692  10.971  17.498  0.00  0.00    +0.000 C 
ATOM      7  O   UNL     1      -1.997  10.447  16.644  0.00  0.00    +0.000 OA
ATOM      8  N   UNL     1      -2.979  13.095  20.339  0.00  0.00    +0.000 N 
ATOM      9  C   UNL     1      -1.670  13.519  20.705  0.00  0.00    +0.000 C 
ATOM     10  O   UNL     1      -1.494  14.309  21.642  0.00  0.00    +0.000 OA
ATOM     11  N   UNL     1      -0.584  12.989  19.987  0.00  0.00    +0.000 N 
ATOM     12  C   UNL     1       0.752  13.396  20.183  0.00  0.00    +0.000 C 
ATOM     13  O   UNL     1       1.685  12.973  19.500  0.00  0.00    +0.000 OA
ATOM     14  N   UNL     1       0.983  14.316  21.180  0.00  0.00    +0.000 N 
ATOM     15  H   UNL     1       0.188  14.639  21.730  0.00  0.00    +0.000 HD
ENDROOT
BRANCH   1  19
ATOM     16  C   UNL     1       1.286   8.284  19.889  0.00  0.00    +0.000 A 
ATOM     17  C   UNL     1       1.522   8.919  18.669  0.00  0.00    +0.000 A 
ATOM     18  C   UNL     1       0.843  10.094  18.356  0.00  0.00    +0.000 A 
ATOM     19  C   UNL     1      -0.064  10.663  19.268  0.00  0.00    +0.000 A 
ATOM     20  C   UNL     1      -0.308  10.008  20.485  0.00  0.00    +0.000 A 
ATOM     21  C   UNL     1       0.362   8.822  20.791  0.00  0.00    +0.000 A 
BRANCH  16  23
ATOM     22  N   UNL     1       2.585   6.127  20.502  0.00  0.00    +0.000 NA
ATOM     23  C   UNL     1       2.003   7.095  20.225  0.00  0.00    +0.000 C 
ENDBRANCH  16  23
ENDBRANCH   1  19
BRANCH   8  24
ATOM     24  C   UNL     1      -4.073  13.654  21.078  0.00  0.00    +0.000 A 
ATOM     25  C   UNL     1      -4.495  14.960  20.831  0.00  0.00    +0.000 A 
ATOM     26  C   UNL     1      -5.545  15.463  21.575  0.00  0.00    +0.000 A 
ATOM     27  N   UNL     1      -6.174  14.767  22.545  0.00  0.00    +0.000 NA
ATOM     28  C   UNL     1      -5.741  13.502  22.808  0.00  0.00    +0.000 A 
ATOM     29  C   UNL     1      -4.707  12.912  22.077  0.00  0.00    +0.000 A 
BRANCH  28  30
ATOM     30  C   UNL     1      -6.378  12.715  23.947  0.00  0.00    +0.000 C 
ATOM     31  F   UNL     1      -7.190  11.697  23.550  0.00  0.00    +0.000 F 
ATOM     32  F   UNL     1      -5.443  12.150  24.768  0.00  0.00    +0.000 F 
ATOM     33  F   UNL     1      -7.139  13.507  24.759  0.00  0.00    +0.000 F 
ENDBRANCH  28  30
ENDBRANCH   8  24
BRANCH  14  34
ATOM     34  C   UNL     1       2.298  14.753  21.527  0.00  0.00    +0.000 C 
ATOM     35  C   UNL     1       2.820  16.066  21.012  0.00  0.00    +0.000 C 
ATOM     36  C   UNL     1       2.520  15.901  22.472  0.00  0.00    +0.000 C 
ENDBRANCH  14  34
TORSDOF 5
ENDMDL
MODEL 8
REMARK VINA RESULT:      -6.5      0.867      1.226
REMARK  Name = 
REMARK  5 active torsions:
REMARK  status: ('A' for Active; 'I' for Inactive)
REMARK    1  A    between atoms: C_2  and  C_3
REMARK    2  A    between atoms: C_6  and  C_7
REMARK    3  A    between atoms: N_14  and  C_15
REMARK    4  A    between atoms: C_19  and  C_20
REMARK    5  A    between atoms: N_30  and  C_31
REMARK                            x       y       z     vdW  Elec       q    Type
REMARK                         _______ _______ _______ _____ _____    ______ ____
ROOT
ATOM      1  C   UNL     1       0.000  11.710  18.432  0.00  0.00    +0.000 C 
ATOM      2  C   UNL     1      -1.464  11.613  18.481  0.00  0.00    +0.000 C 
ATOM      3  C   UNL     1      -2.263  12.282  19.303  0.00  0.00    +0.000 C 
ATOM      4  C   UNL     1      -3.717  11.955  19.142  0.00  0.00    +0.000 C 
ATOM      5  C   UNL     1      -3.755  10.887  18.044  0.00  0.00    +0.000 C 
ATOM      6  C   UNL     1      -2.314  10.772  17.646  0.00  0.00    +0.000 C 
ATOM      7  O   UNL     1      -1.890  10.075  16.739  0.00  0.00    +0.000 OA
ATOM      8  N   UNL     1      -1.730  13.227  20.155  0.00  0.00    +0.000 N 
ATOM      9  C   UNL     1      -0.339  13.535  20.154  0.00  0.00    +0.000 C 
ATOM     10  O   UNL     1       0.122  14.401  20.909  0.00  0.00    +0.000 OA
ATOM     11  N   UNL     1       0.494  12.802  19.292  0.00  0.00    +0.000 N 
ATOM     12  C   UNL     1       1.868  13.071  19.123  0.00  0.00    +0.000 C 
ATOM     13  O   UNL     1       2.571  12.466  18.313  0.00  0.00    +0.000 OA
ATOM     14  N   UNL     1       2.409  14.066  19.904  0.00  0.00    +0.000 N 
ATOM     15  H   UNL     1       1.799  14.541  20.568  0.00  0.00    +0.000 HD
ENDROOT
BRANCH   1  19
ATOM     16  C   UNL     1       1.872   7.933  19.433  0.00  0.00    +0.000 A 
ATOM     17  C   UNL     1       1.900   8.410  18.122  0.00  0.00    +0.000 A 
ATOM     18  C   UNL     1       1.271   9.612  17.807  0.00  0.00    +0.000 A 
ATOM     19  C   UNL     1       0.624  10.365  18.804  0.00  0.00    +0.000 A 
ATOM     20  C   UNL     1       0.587   9.869  20.117  0.00  0.00    +0.000 A 
ATOM     21  C   UNL     1       1.205   8.657  20.427  0.00  0.00    +0.000 A 
BRANCH  16  23
ATOM     22  N   UNL     1       3.093   5.727  20.030  0.00  0.00    +0.000 NA
ATOM     23  C   UNL     1       2.544   6.716  19.764  0.00  0.00    +0.000 C 
ENDBRANCH  16  23
ENDBRANCH   1  19
BRANCH   8  24
ATOM     24  C   UNL     1      -2.564  13.991  21.036  0.00  0.00    +0.000 A 
ATOM     25  C   UNL     1      -3.463  14.925  20.521  0.00  0.00    +0.000 A 
ATOM     26  C   UNL     1      -4.238  15.648  21.406  0.00  0.00    +0.000 A 
ATOM     27  N   UNL     1      -4.159  15.518  22.747  0.00  0.00    +0.000 NA
ATOM     28  C   UNL     1      -3.259  14.628  23.252  0.00  0.00    +0.000 A 
ATOM     29  C   UNL     1      -2.462  13.837  22.420  0.00  0.00    +0.000 A 
BRANCH  28  30
ATOM     30  C   UNL     1      -3.090  14.510  24.761  0.00  0.00    +0.000 C 
ATOM     31  F   UNL     1      -1.797  14.491  25.188  0.00  0.00    +0.000 F 
ATOM     32  F   UNL     1      -3.689  15.541  25.428  0.00  0.00    +0.000 F 
ATOM     33  F   UNL     1      -3.665  13.376  25.259  0.00  0.00    +0.000 F 
ENDBRANCH  28  30
ENDBRANCH   8  24
BRANCH  14  34
ATOM     34  C   UNL     1       3.802  14.384  19.882  0.00  0.00    +0.000 C 
ATOM     35  C   UNL     1       4.269  15.765  20.251  0.00  0.00    +0.000 C 
ATOM     36  C   UNL     1       4.577  14.605  21.151  0.00  0.00    +0.000 C 
ENDBRANCH  14  34
TORSDOF 5
ENDMDL
MODEL 9
REMARK VINA RESULT:      -6.4      7.073     11.419
REMARK  Name = 
REMARK  5 active torsions:
REMARK  status: ('A' for Active; 'I' for Inactive)
REMARK    1  A    between atoms: C_2  and  C_3
REMARK    2  A    between atoms: C_6  and  C_7
REMARK    3  A    between atoms: N_14  and  C_15
REMARK    4  A    between atoms: C_19  and  C_20
REMARK    5  A    between atoms: N_30  and  C_31
REMARK                            x       y       z     vdW  Elec       q    Type
REMARK                         _______ _______ _______ _____ _____    ______ ____
ROOT
ATOM      1  C   UNL     1       6.407  15.059  23.499  0.00  0.00    +0.000 C 
ATOM      2  C   UNL     1       7.844  15.359  23.488  0.00  0.00    +0.000 C 
ATOM      3  C   UNL     1       8.655  15.251  22.442  0.00  0.00    +0.000 C 
ATOM      4  C   UNL     1      10.083  15.600  22.738  0.00  0.00    +0.000 C 
ATOM      5  C   UNL     1      10.097  15.945  24.231  0.00  0.00    +0.000 C 
ATOM      6  C   UNL     1       8.651  15.824  24.611  0.00  0.00    +0.000 C 
ATOM      7  O   UNL     1       8.189  16.086  25.709  0.00  0.00    +0.000 OA
ATOM      8  N   UNL     1       8.138  14.911  21.210  0.00  0.00    +0.000 N 
ATOM      9  C   UNL     1       6.743  14.702  21.016  0.00  0.00    +0.000 C 
ATOM     10  O   UNL     1       6.290  14.416  19.899  0.00  0.00    +0.000 OA
ATOM     11  N   UNL     1       5.904  14.798  22.138  0.00  0.00    +0.000 N 
ATOM     12  C   UNL     1       4.498  14.709  22.068  0.00  0.00    +0.000 C 
ATOM     13  O   UNL     1       3.770  14.865  23.050  0.00  0.00    +0.000 OA
ATOM     14  N   UNL     1       3.951  14.449  20.833  0.00  0.00    +0.000 N 
ATOM     15  H   UNL     1       4.583  14.319  20.044  0.00  0.00    +0.000 HD
ENDROOT
BRANCH   1  19
ATOM     16  C   UNL     1       5.496  11.790  26.194  0.00  0.00    +0.000 A 
ATOM     17  C   UNL     1       5.224  13.108  26.564  0.00  0.00    +0.000 A 
ATOM     18  C   UNL     1       5.548  14.152  25.701  0.00  0.00    +0.000 A 
ATOM     19  C   UNL     1       6.126  13.891  24.445  0.00  0.00    +0.000 A 
ATOM     20  C   UNL     1       6.411  12.564  24.089  0.00  0.00    +0.000 A 
ATOM     21  C   UNL     1       6.100  11.520  24.961  0.00  0.00    +0.000 A 
BRANCH  16  23
ATOM     22  N   UNL     1       4.840   9.843  27.772  0.00  0.00    +0.000 NA
ATOM     23  C   UNL     1       5.137  10.716  27.064  0.00  0.00    +0.000 C 
ENDBRANCH  16  23
ENDBRANCH   1  19
BRANCH   8  24
ATOM     24  C   UNL     1       8.977  14.815  20.051  0.00  0.00    +0.000 A 
ATOM     25  C   UNL     1       9.141  15.914  19.207  0.00  0.00    +0.000 A 
ATOM     26  C   UNL     1       9.947  15.773  18.095  0.00  0.00    +0.000 A 
ATOM     27  N   UNL     1      10.572  14.624  17.765  0.00  0.00    +0.000 NA
ATOM     28  C   UNL     1      10.387  13.541  18.572  0.00  0.00    +0.000 A 
ATOM     29  C   UNL     1       9.612  13.612  19.732  0.00  0.00    +0.000 A 
BRANCH  28  30
ATOM     30  C   UNL     1      11.014  12.207  18.188  0.00  0.00    +0.000 C 
ATOM     31  F   UNL     1      10.174  11.347  17.549  0.00  0.00    +0.000 F 
ATOM     32  F   UNL     1      12.091  12.363  17.361  0.00  0.00    +0.000 F 
ATOM     33  F   UNL     1      11.490  11.528  19.273  0.00  0.00    +0.000 F 
ENDBRANCH  28  30
ENDBRANCH   8  24
BRANCH  14  34
ATOM     34  C   UNL     1       2.547  14.261  20.642  0.00  0.00    +0.000 C 
ATOM     35  C   UNL     1       2.023  13.747  19.330  0.00  0.00    +0.000 C 
ATOM     36  C   UNL     1       1.943  12.888  20.556  0.00  0.00    +0.000 C 
ENDBRANCH  14  34
TORSDOF 5
ENDMDL
