MODEL 1
REMARK VINA RESULT:      -7.6      0.000      0.000
REMARK  Name = 
REMARK  8 active torsions:
REMARK  status: ('A' for Active; 'I' for Inactive)
REMARK    1  A    between atoms: C_1  and  C_2
REMARK    2  A    between atoms: C_2  and  N_3
REMARK    3  A    between atoms: C_5  and  C_6
REMARK    4  A    between atoms: C_6  and  N_7
REMARK    5  A    between atoms: C_13  and  O_14
REMARK    6  A    between atoms: O_14  and  C_15
REMARK    7  A    between atoms: C_20  and  C_21
REMARK    8  A    between atoms: C_21  and  O_22
REMARK                            x       y       z     vdW  Elec       q    Type
REMARK                         _______ _______ _______ _____ _____    ______ ____
ROOT
ATOM      1  N   UNL     1       5.769   4.973  14.887  0.00  0.00    +0.000 NA
ATOM      2  C   UNL     1       4.987   4.031  15.673  0.00  0.00    +0.000 C 
ATOM      3  C   UNL     1       5.569   3.987  17.091  0.00  0.00    +0.000 C 
ATOM      4  C   UNL     1       4.416   3.672  18.004  0.00  0.00    +0.000 A 
ATOM      5  C   UNL     1       3.753   2.434  17.925  0.00  0.00    +0.000 A 
ATOM      6  C   UNL     1       2.597   2.193  18.677  0.00  0.00    +0.000 A 
ATOM      7  C   UNL     1       2.138   3.144  19.582  0.00  0.00    +0.000 A 
ATOM      8  C   UNL     1       2.760   4.387  19.629  0.00  0.00    +0.000 A 
ATOM      9  C   UNL     1       3.838   4.665  18.779  0.00  0.00    +0.000 A 
ATOM     10  O   UNL     1       4.118   5.983  18.572  0.00  0.00    +0.000 OA
ATOM     11  C   UNL     1       5.459   6.305  18.219  0.00  0.00    +0.000 C 
ATOM     12  C   UNL     1       6.261   5.350  17.295  0.00  0.00    +0.000 C 
ATOM     13  C   UNL     1       6.470   5.849  15.836  0.00  0.00    +0.000 C 
ENDROOT
BRANCH   7  14
ATOM     14  O   UNL     1       1.033   2.770  20.297  0.00  0.00    +0.000 OA
ATOM     15  C   UNL     1       1.220   2.605  21.697  0.00  0.00    +0.000 C 
ENDBRANCH   7  14
BRANCH   1  16
ATOM     16  C   UNL     1       6.648   4.305  13.918  0.00  0.00    +0.000 C 
BRANCH  16  19
ATOM     17  N   UNL     1       4.380   2.933  11.364  0.00  0.00    +0.000 N 
ATOM     18  C   UNL     1       4.586   3.812  12.385  0.00  0.00    +0.000 A 
ATOM     19  C   UNL     1       5.865   3.577  12.869  0.00  0.00    +0.000 A 
ATOM     20  C   UNL     1       6.305   2.477  12.088  0.00  0.00    +0.000 A 
ATOM     21  N   UNL     1       5.411   2.087  11.176  0.00  0.00    +0.000 NA
BRANCH  17  23
ATOM     22  C   UNL     1       3.096   4.268   9.743  0.00  0.00    +0.000 C 
ATOM     23  C   UNL     1       3.259   2.926  10.444  0.00  0.00    +0.000 C 
ENDBRANCH  17  23
ENDBRANCH  16  19
ENDBRANCH   1  16
BRANCH  12  24
ATOM     24  C   UNL     1       7.678   5.293  17.937  0.00  0.00    +0.000 C 
BRANCH  24  25
ATOM     25  O   UNL     1       8.299   4.026  17.672  0.00  0.00    +0.000 OA
ATOM     26  H   UNL     1       7.620   3.329  17.649  0.00  0.00    +0.000 HD
ENDBRANCH  24  25
ENDBRANCH  12  24
TORSDOF 6
ENDMDL
MODEL 2
REMARK VINA RESULT:      -7.6      4.217      8.235
REMARK  Name = 
REMARK  8 active torsions:
REMARK  status: ('A' for Active; 'I' for Inactive)
REMARK    1  A    between atoms: C_1  and  C_2
REMARK    2  A    between atoms: C_2  and  N_3
REMARK    3  A    between atoms: C_5  and  C_6
REMARK    4  A    between atoms: C_6  and  N_7
REMARK    5  A    between atoms: C_13  and  O_14
REMARK    6  A    between atoms: O_14  and  C_15
REMARK    7  A    between atoms: C_20  and  C_21
REMARK    8  A    between atoms: C_21  and  O_22
REMARK                            x       y       z     vdW  Elec       q    Type
REMARK                         _______ _______ _______ _____ _____    ______ ____
ROOT
ATOM      1  N   UNL     1       2.147   5.895  19.585  0.00  0.00    +0.000 NA
ATOM      2  C   UNL     1       3.456   6.189  19.024  0.00  0.00    +0.000 C 
ATOM      3  C   UNL     1       4.321   4.926  19.127  0.00  0.00    +0.000 C 
ATOM      4  C   UNL     1       5.274   4.979  17.965  0.00  0.00    +0.000 A 
ATOM      5  C   UNL     1       6.248   5.990  17.878  0.00  0.00    +0.000 A 
ATOM      6  C   UNL     1       7.043   6.120  16.734  0.00  0.00    +0.000 A 
ATOM      7  C   UNL     1       6.943   5.194  15.700  0.00  0.00    +0.000 A 
ATOM      8  C   UNL     1       5.948   4.223  15.758  0.00  0.00    +0.000 A 
ATOM      9  C   UNL     1       5.072   4.180  16.850  0.00  0.00    +0.000 A 
ATOM     10  O   UNL     1       3.900   3.512  16.656  0.00  0.00    +0.000 OA
ATOM     11  C   UNL     1       3.274   2.968  17.813  0.00  0.00    +0.000 C 
ATOM     12  C   UNL     1       3.326   3.747  19.154  0.00  0.00    +0.000 C 
ATOM     13  C   UNL     1       1.996   4.433  19.582  0.00  0.00    +0.000 C 
ENDROOT
BRANCH   7  14
ATOM     14  O   UNL     1       7.810   5.396  14.662  0.00  0.00    +0.000 OA
ATOM     15  C   UNL     1       7.391   4.908  13.393  0.00  0.00    +0.000 C 
ENDBRANCH   7  14
BRANCH   1  16
ATOM     16  C   UNL     1       1.943   6.521  20.898  0.00  0.00    +0.000 C 
BRANCH  16  19
ATOM     17  N   UNL     1       0.450   9.878  21.128  0.00  0.00    +0.000 N 
ATOM     18  C   UNL     1       0.719   8.682  21.723  0.00  0.00    +0.000 A 
ATOM     19  C   UNL     1       1.345   7.889  20.771  0.00  0.00    +0.000 A 
ATOM     20  C   UNL     1       1.335   8.710  19.615  0.00  0.00    +0.000 A 
ATOM     21  N   UNL     1       0.797   9.914  19.827  0.00  0.00    +0.000 NA
BRANCH  17  23
ATOM     22  C   UNL     1      -0.991  10.752  22.922  0.00  0.00    +0.000 C 
ATOM     23  C   UNL     1      -0.035  11.078  21.783  0.00  0.00    +0.000 C 
ENDBRANCH  17  23
ENDBRANCH  16  19
ENDBRANCH   1  16
BRANCH  12  24
ATOM     24  C   UNL     1       3.612   2.655  20.225  0.00  0.00    +0.000 C 
BRANCH  24  25
ATOM     25  O   UNL     1       4.860   1.998  19.954  0.00  0.00    +0.000 OA
ATOM     26  H   UNL     1       5.388   2.543  19.343  0.00  0.00    +0.000 HD
ENDBRANCH  24  25
ENDBRANCH  12  24
TORSDOF 6
ENDMDL
MODEL 3
REMARK VINA RESULT:      -7.6      4.154      7.882
REMARK  Name = 
REMARK  8 active torsions:
REMARK  status: ('A' for Active; 'I' for Inactive)
REMARK    1  A    between atoms: C_1  and  C_2
REMARK    2  A    between atoms: C_2  and  N_3
REMARK    3  A    between atoms: C_5  and  C_6
REMARK    4  A    between atoms: C_6  and  N_7
REMARK    5  A    between atoms: C_13  and  O_14
REMARK    6  A    between atoms: O_14  and  C_15
REMARK    7  A    between atoms: C_20  and  C_21
REMARK    8  A    between atoms: C_21  and  O_22
REMARK                            x       y       z     vdW  Elec       q    Type
REMARK                         _______ _______ _______ _____ _____    ______ ____
ROOT
ATOM      1  N   UNL     1       2.109   5.930  19.575  0.00  0.00    +0.000 NA
ATOM      2  C   UNL     1       3.419   6.219  19.012  0.00  0.00    +0.000 C 
ATOM      3  C   UNL     1       4.274   4.949  19.105  0.00  0.00    +0.000 C 
ATOM      4  C   UNL     1       5.225   5.003  17.940  0.00  0.00    +0.000 A 
ATOM      5  C   UNL     1       6.206   6.007  17.859  0.00  0.00    +0.000 A 
ATOM      6  C   UNL     1       6.999   6.139  16.713  0.00  0.00    +0.000 A 
ATOM      7  C   UNL     1       6.890   5.222  15.673  0.00  0.00    +0.000 A 
ATOM      8  C   UNL     1       5.888   4.258  15.727  0.00  0.00    +0.000 A 
ATOM      9  C   UNL     1       5.014   4.213  16.820  0.00  0.00    +0.000 A 
ATOM     10  O   UNL     1       3.837   3.555  16.625  0.00  0.00    +0.000 OA
ATOM     11  C   UNL     1       3.210   3.007  17.779  0.00  0.00    +0.000 C 
ATOM     12  C   UNL     1       3.271   3.777  19.125  0.00  0.00    +0.000 C 
ATOM     13  C   UNL     1       1.947   4.469  19.562  0.00  0.00    +0.000 C 
ENDROOT
BRANCH   7  14
ATOM     14  O   UNL     1       7.756   5.425  14.634  0.00  0.00    +0.000 OA
ATOM     15  C   UNL     1       7.400   4.823  13.396  0.00  0.00    +0.000 C 
ENDBRANCH   7  14
BRANCH   1  16
ATOM     16  C   UNL     1       1.912   6.548  20.892  0.00  0.00    +0.000 C 
BRANCH  16  19
ATOM     17  N   UNL     1       0.773   9.952  20.079  0.00  0.00    +0.000 N 
ATOM     18  C   UNL     1       1.242   8.749  19.645  0.00  0.00    +0.000 A 
ATOM     19  C   UNL     1       1.482   7.979  20.774  0.00  0.00    +0.000 A 
ATOM     20  C   UNL     1       1.175   8.865  21.838  0.00  0.00    +0.000 A 
ATOM     21  N   UNL     1       0.744  10.059  21.421  0.00  0.00    +0.000 NA
BRANCH  17  23
ATOM     22  C   UNL     1      -0.838  10.484  18.296  0.00  0.00    +0.000 C 
ATOM     23  C   UNL     1       0.220  11.011  19.255  0.00  0.00    +0.000 C 
ENDBRANCH  17  23
ENDBRANCH  16  19
ENDBRANCH   1  16
BRANCH  12  24
ATOM     24  C   UNL     1       3.551   2.674  20.188  0.00  0.00    +0.000 C 
BRANCH  24  25
ATOM     25  O   UNL     1       4.834   2.072  19.961  0.00  0.00    +0.000 OA
ATOM     26  H   UNL     1       5.534   2.731  20.112  0.00  0.00    +0.000 HD
ENDBRANCH  24  25
ENDBRANCH  12  24
TORSDOF 6
ENDMDL
MODEL 4
REMARK VINA RESULT:      -7.5      3.078      5.329
REMARK  Name = 
REMARK  8 active torsions:
REMARK  status: ('A' for Active; 'I' for Inactive)
REMARK    1  A    between atoms: C_1  and  C_2
REMARK    2  A    between atoms: C_2  and  N_3
REMARK    3  A    between atoms: C_5  and  C_6
REMARK    4  A    between atoms: C_6  and  N_7
REMARK    5  A    between atoms: C_13  and  O_14
REMARK    6  A    between atoms: O_14  and  C_15
REMARK    7  A    between atoms: C_20  and  C_21
REMARK    8  A    between atoms: C_21  and  O_22
REMARK                            x       y       z     vdW  Elec       q    Type
REMARK                         _______ _______ _______ _____ _____    ______ ____
ROOT
ATOM      1  N   UNL     1       4.487   4.321  17.986  0.00  0.00    +0.000 NA
ATOM      2  C   UNL     1       3.844   5.599  17.726  0.00  0.00    +0.000 C 
ATOM      3  C   UNL     1       2.375   5.496  18.157  0.00  0.00    +0.000 C 
ATOM      4  C   UNL     1       1.971   6.879  18.589  0.00  0.00    +0.000 A 
ATOM      5  C   UNL     1       1.927   7.937  17.663  0.00  0.00    +0.000 A 
ATOM      6  C   UNL     1       1.684   9.248  18.088  0.00  0.00    +0.000 A 
ATOM      7  C   UNL     1       1.394   9.511  19.423  0.00  0.00    +0.000 A 
ATOM      8  C   UNL     1       1.485   8.478  20.350  0.00  0.00    +0.000 A 
ATOM      9  C   UNL     1       1.855   7.193  19.934  0.00  0.00    +0.000 A 
ATOM     10  O   UNL     1       2.327   6.359  20.903  0.00  0.00    +0.000 OA
ATOM     11  C   UNL     1       2.177   4.962  20.674  0.00  0.00    +0.000 C 
ATOM     12  C   UNL     1       2.340   4.396  19.238  0.00  0.00    +0.000 C 
ATOM     13  C   UNL     1       3.659   3.614  18.972  0.00  0.00    +0.000 C 
ENDROOT
BRANCH   7  14
ATOM     14  O   UNL     1       1.121  10.822  19.704  0.00  0.00    +0.000 OA
ATOM     15  C   UNL     1       0.182  11.462  18.849  0.00  0.00    +0.000 C 
ENDBRANCH   7  14
BRANCH   1  16
ATOM     16  C   UNL     1       4.747   3.560  16.757  0.00  0.00    +0.000 C 
BRANCH  16  19
ATOM     17  N   UNL     1       7.195   4.855  14.333  0.00  0.00    +0.000 N 
ATOM     18  C   UNL     1       6.190   3.978  14.615  0.00  0.00    +0.000 A 
ATOM     19  C   UNL     1       5.844   4.176  15.944  0.00  0.00    +0.000 A 
ATOM     20  C   UNL     1       6.767   5.165  16.372  0.00  0.00    +0.000 A 
ATOM     21  N   UNL     1       7.584   5.579  15.400  0.00  0.00    +0.000 NA
BRANCH  17  23
ATOM     22  C   UNL     1       7.137   4.252  11.947  0.00  0.00    +0.000 C 
ATOM     23  C   UNL     1       7.752   5.136  13.023  0.00  0.00    +0.000 C 
ENDBRANCH  17  23
ENDBRANCH  16  19
ENDBRANCH   1  16
BRANCH  12  24
ATOM     24  C   UNL     1       1.189   3.357  19.099  0.00  0.00    +0.000 C 
BRANCH  24  25
ATOM     25  O   UNL     1       0.371   3.351  20.280  0.00  0.00    +0.000 OA
ATOM     26  H   UNL     1      -0.374   3.967  20.163  0.00  0.00    +0.000 HD
ENDBRANCH  24  25
ENDBRANCH  12  24
TORSDOF 6
ENDMDL
MODEL 5
REMARK VINA RESULT:      -7.2      1.303      1.878
REMARK  Name = 
REMARK  8 active torsions:
REMARK  status: ('A' for Active; 'I' for Inactive)
REMARK    1  A    between atoms: C_1  and  C_2
REMARK    2  A    between atoms: C_2  and  N_3
REMARK    3  A    between atoms: C_5  and  C_6
REMARK    4  A    between atoms: C_6  and  N_7
REMARK    5  A    between atoms: C_13  and  O_14
REMARK    6  A    between atoms: O_14  and  C_15
REMARK    7  A    between atoms: C_20  and  C_21
REMARK    8  A    between atoms: C_21  and  O_22
REMARK                            x       y       z     vdW  Elec       q    Type
REMARK                         _______ _______ _______ _____ _____    ______ ____
ROOT
ATOM      1  N   UNL     1       5.290   5.094  14.729  0.00  0.00    +0.000 NA
ATOM      2  C   UNL     1       4.828   4.180  15.761  0.00  0.00    +0.000 C 
ATOM      3  C   UNL     1       5.195   4.771  17.129  0.00  0.00    +0.000 C 
ATOM      4  C   UNL     1       4.139   4.289  18.086  0.00  0.00    +0.000 A 
ATOM      5  C   UNL     1       4.012   2.922  18.388  0.00  0.00    +0.000 A 
ATOM      6  C   UNL     1       2.947   2.458  19.169  0.00  0.00    +0.000 A 
ATOM      7  C   UNL     1       2.048   3.357  19.734  0.00  0.00    +0.000 A 
ATOM      8  C   UNL     1       2.140   4.704  19.400  0.00  0.00    +0.000 A 
ATOM      9  C   UNL     1       3.132   5.141  18.513  0.00  0.00    +0.000 A 
ATOM     10  O   UNL     1       2.916   6.345  17.912  0.00  0.00    +0.000 OA
ATOM     11  C   UNL     1       4.067   7.065  17.486  0.00  0.00    +0.000 C 
ATOM     12  C   UNL     1       5.285   6.295  16.907  0.00  0.00    +0.000 C 
ATOM     13  C   UNL     1       5.476   6.406  15.366  0.00  0.00    +0.000 C 
ENDROOT
BRANCH   7  14
ATOM     14  O   UNL     1       1.085   2.788  20.522  0.00  0.00    +0.000 OA
ATOM     15  C   UNL     1       1.456   2.520  21.868  0.00  0.00    +0.000 C 
ENDBRANCH   7  14
BRANCH   1  16
ATOM     16  C   UNL     1       6.474   4.594  14.020  0.00  0.00    +0.000 C 
BRANCH  16  19
ATOM     17  N   UNL     1       6.031   2.051  11.396  0.00  0.00    +0.000 N 
ATOM     18  C   UNL     1       6.867   2.711  12.246  0.00  0.00    +0.000 A 
ATOM     19  C   UNL     1       6.101   3.657  12.911  0.00  0.00    +0.000 A 
ATOM     20  C   UNL     1       4.821   3.506  12.319  0.00  0.00    +0.000 A 
ATOM     21  N   UNL     1       4.774   2.534  11.404  0.00  0.00    +0.000 NA
BRANCH  17  23
ATOM     22  C   UNL     1       6.124  -0.409  11.436  0.00  0.00    +0.000 C 
ATOM     23  C   UNL     1       6.346   0.861  10.627  0.00  0.00    +0.000 C 
ENDBRANCH  17  23
ENDBRANCH  16  19
ENDBRANCH   1  16
BRANCH  12  24
ATOM     24  C   UNL     1       6.521   6.993  17.545  0.00  0.00    +0.000 C 
BRANCH  24  25
ATOM     25  O   UNL     1       7.670   6.857  16.695  0.00  0.00    +0.000 OA
ATOM     26  H   UNL     1       7.846   7.704  16.248  0.00  0.00    +0.000 HD
ENDBRANCH  24  25
ENDBRANCH  12  24
TORSDOF 6
ENDMDL
MODEL 6
REMARK VINA RESULT:      -6.7      4.713      8.292
REMARK  Name = 
REMARK  8 active torsions:
REMARK  status: ('A' for Active; 'I' for Inactive)
REMARK    1  A    between atoms: C_1  and  C_2
REMARK    2  A    between atoms: C_2  and  N_3
REMARK    3  A    between atoms: C_5  and  C_6
REMARK    4  A    between atoms: C_6  and  N_7
REMARK    5  A    between atoms: C_13  and  O_14
REMARK    6  A    between atoms: O_14  and  C_15
REMARK    7  A    between atoms: C_20  and  C_21
REMARK    8  A    between atoms: C_21  and  O_22
REMARK                            x       y       z     vdW  Elec       q    Type
REMARK                         _______ _______ _______ _____ _____    ______ ____
ROOT
ATOM      1  N   UNL     1       1.586   6.958  20.131  0.00  0.00    +0.000 NA
ATOM      2  C   UNL     1       2.861   6.752  19.464  0.00  0.00    +0.000 C 
ATOM      3  C   UNL     1       3.404   5.378  19.875  0.00  0.00    +0.000 C 
ATOM      4  C   UNL     1       4.217   4.886  18.708  0.00  0.00    +0.000 A 
ATOM      5  C   UNL     1       5.390   5.555  18.315  0.00  0.00    +0.000 A 
ATOM      6  C   UNL     1       6.070   5.181  17.150  0.00  0.00    +0.000 A 
ATOM      7  C   UNL     1       5.644   4.083  16.411  0.00  0.00    +0.000 A 
ATOM      8  C   UNL     1       4.458   3.449  16.766  0.00  0.00    +0.000 A 
ATOM      9  C   UNL     1       3.715   3.911  17.859  0.00  0.00    +0.000 A 
ATOM     10  O   UNL     1       2.404   3.542  17.896  0.00  0.00    +0.000 OA
ATOM     11  C   UNL     1       1.789   3.489  19.179  0.00  0.00    +0.000 C 
ATOM     12  C   UNL     1       2.165   4.542  20.256  0.00  0.00    +0.000 C 
ATOM     13  C   UNL     1       1.089   5.633  20.530  0.00  0.00    +0.000 C 
ENDROOT
BRANCH   7  14
ATOM     14  O   UNL     1       6.422   3.784  15.326  0.00  0.00    +0.000 OA
ATOM     15  C   UNL     1       6.601   4.829  14.378  0.00  0.00    +0.000 C 
ENDBRANCH   7  14
BRANCH   1  16
ATOM     16  C   UNL     1       1.674   7.927  21.231  0.00  0.00    +0.000 C 
BRANCH  16  19
ATOM     17  N   UNL     1      -0.495  10.689  20.129  0.00  0.00    +0.000 N 
ATOM     18  C   UNL     1       0.375   9.693  19.802  0.00  0.00    +0.000 A 
ATOM     19  C   UNL     1       0.795   9.117  20.992  0.00  0.00    +0.000 A 
ATOM     20  C   UNL     1       0.148   9.907  21.977  0.00  0.00    +0.000 A 
ATOM     21  N   UNL     1      -0.635  10.858  21.458  0.00  0.00    +0.000 NA
BRANCH  17  23
ATOM     22  C   UNL     1      -1.668  10.642  17.965  0.00  0.00    +0.000 C 
ATOM     23  C   UNL     1      -1.324  11.447  19.211  0.00  0.00    +0.000 C 
ENDBRANCH  17  23
ENDBRANCH  16  19
ENDBRANCH   1  16
BRANCH  12  24
ATOM     24  C   UNL     1       2.290   3.721  21.572  0.00  0.00    +0.000 C 
BRANCH  24  25
ATOM     25  O   UNL     1       1.347   2.638  21.581  0.00  0.00    +0.000 OA
ATOM     26  H   UNL     1       0.946   2.563  22.464  0.00  0.00    +0.000 HD
ENDBRANCH  24  25
ENDBRANCH  12  24
TORSDOF 6
ENDMDL
MODEL 7
REMARK VINA RESULT:      -6.7      2.685      4.598
REMARK  Name = 
REMARK  8 active torsions:
REMARK  status: ('A' for Active; 'I' for Inactive)
REMARK    1  A    between atoms: C_1  and  C_2
REMARK    2  A    between atoms: C_2  and  N_3
REMARK    3  A    between atoms: C_5  and  C_6
REMARK    4  A    between atoms: C_6  and  N_7
REMARK    5  A    between atoms: C_13  and  O_14
REMARK    6  A    between atoms: O_14  and  C_15
REMARK    7  A    between atoms: C_20  and  C_21
REMARK    8  A    between atoms: C_21  and  O_22
REMARK                            x       y       z     vdW  Elec       q    Type
REMARK                         _______ _______ _______ _____ _____    ______ ____
ROOT
ATOM      1  N   UNL     1       6.373   4.812  18.810  0.00  0.00    +0.000 NA
ATOM      2  C   UNL     1       5.600   5.974  18.402  0.00  0.00    +0.000 C 
ATOM      3  C   UNL     1       4.223   5.494  17.926  0.00  0.00    +0.000 C 
ATOM      4  C   UNL     1       3.265   6.613  18.233  0.00  0.00    +0.000 A 
ATOM      5  C   UNL     1       3.378   7.855  17.583  0.00  0.00    +0.000 A 
ATOM      6  C   UNL     1       2.575   8.936  17.965  0.00  0.00    +0.000 A 
ATOM      7  C   UNL     1       1.590   8.773  18.933  0.00  0.00    +0.000 A 
ATOM      8  C   UNL     1       1.507   7.562  19.613  0.00  0.00    +0.000 A 
ATOM      9  C   UNL     1       2.400   6.526  19.313  0.00  0.00    +0.000 A 
ATOM     10  O   UNL     1       2.546   5.561  20.265  0.00  0.00    +0.000 OA
ATOM     11  C   UNL     1       2.956   4.275  19.815  0.00  0.00    +0.000 C 
ATOM     12  C   UNL     1       3.980   4.156  18.654  0.00  0.00    +0.000 C 
ATOM     13  C   UNL     1       5.417   3.727  19.069  0.00  0.00    +0.000 C 
ENDROOT
BRANCH   7  14
ATOM     14  O   UNL     1       0.836   9.887  19.180  0.00  0.00    +0.000 OA
ATOM     15  C   UNL     1      -0.206  10.155  18.250  0.00  0.00    +0.000 C 
ENDBRANCH   7  14
BRANCH   1  16
ATOM     16  C   UNL     1       7.429   4.471  17.847  0.00  0.00    +0.000 C 
BRANCH  16  19
ATOM     17  N   UNL     1       5.987   4.278  14.466  0.00  0.00    +0.000 N 
ATOM     18  C   UNL     1       6.307   3.648  15.631  0.00  0.00    +0.000 A 
ATOM     19  C   UNL     1       6.946   4.582  16.433  0.00  0.00    +0.000 A 
ATOM     20  C   UNL     1       7.006   5.730  15.602  0.00  0.00    +0.000 A 
ATOM     21  N   UNL     1       6.425   5.551  14.412  0.00  0.00    +0.000 NA
BRANCH  17  23
ATOM     22  C   UNL     1       5.980   3.321  12.198  0.00  0.00    +0.000 C 
ATOM     23  C   UNL     1       5.153   3.753  13.402  0.00  0.00    +0.000 C 
ENDBRANCH  17  23
ENDBRANCH  16  19
ENDBRANCH   1  16
BRANCH  12  24
ATOM     24  C   UNL     1       3.426   3.003  17.768  0.00  0.00    +0.000 C 
BRANCH  24  25
ATOM     25  O   UNL     1       2.189   3.392  17.150  0.00  0.00    +0.000 OA
ATOM     26  H   UNL     1       1.473   2.811  17.462  0.00  0.00    +0.000 HD
ENDBRANCH  24  25
ENDBRANCH  12  24
TORSDOF 6
ENDMDL
MODEL 8
REMARK VINA RESULT:      -6.7      4.859      8.656
REMARK  Name = 
REMARK  8 active torsions:
REMARK  status: ('A' for Active; 'I' for Inactive)
REMARK    1  A    between atoms: C_1  and  C_2
REMARK    2  A    between atoms: C_2  and  N_3
REMARK    3  A    between atoms: C_5  and  C_6
REMARK    4  A    between atoms: C_6  and  N_7
REMARK    5  A    between atoms: C_13  and  O_14
REMARK    6  A    between atoms: O_14  and  C_15
REMARK    7  A    between atoms: C_20  and  C_21
REMARK    8  A    between atoms: C_21  and  O_22
REMARK                            x       y       z     vdW  Elec       q    Type
REMARK                         _______ _______ _______ _____ _____    ______ ____
ROOT
ATOM      1  N   UNL     1       1.585   6.913  20.193  0.00  0.00    +0.000 NA
ATOM      2  C   UNL     1       2.843   6.666  19.506  0.00  0.00    +0.000 C 
ATOM      3  C   UNL     1       3.343   5.271  19.901  0.00  0.00    +0.000 C 
ATOM      4  C   UNL     1       4.120   4.758  18.720  0.00  0.00    +0.000 A 
ATOM      5  C   UNL     1       5.311   5.387  18.314  0.00  0.00    +0.000 A 
ATOM      6  C   UNL     1       5.960   4.997  17.137  0.00  0.00    +0.000 A 
ATOM      7  C   UNL     1       5.485   3.919  16.398  0.00  0.00    +0.000 A 
ATOM      8  C   UNL     1       4.283   3.325  16.767  0.00  0.00    +0.000 A 
ATOM      9  C   UNL     1       3.572   3.807  17.873  0.00  0.00    +0.000 A 
ATOM     10  O   UNL     1       2.249   3.484  17.928  0.00  0.00    +0.000 OA
ATOM     11  C   UNL     1       1.652   3.445  19.219  0.00  0.00    +0.000 C 
ATOM     12  C   UNL     1       2.080   4.478  20.296  0.00  0.00    +0.000 C 
ATOM     13  C   UNL     1       1.048   5.604  20.592  0.00  0.00    +0.000 C 
ENDROOT
BRANCH   7  14
ATOM     14  O   UNL     1       6.236   3.600  15.300  0.00  0.00    +0.000 OA
ATOM     15  C   UNL     1       5.856   4.222  14.079  0.00  0.00    +0.000 C 
ENDBRANCH   7  14
BRANCH   1  16
ATOM     16  C   UNL     1       1.724   7.871  21.297  0.00  0.00    +0.000 C 
BRANCH  16  19
ATOM     17  N   UNL     1      -0.401  10.876  21.374  0.00  0.00    +0.000 N 
ATOM     18  C   UNL     1       0.211   9.867  22.056  0.00  0.00    +0.000 A 
ATOM     19  C   UNL     1       0.833   9.062  21.112  0.00  0.00    +0.000 A 
ATOM     20  C   UNL     1       0.462   9.664  19.883  0.00  0.00    +0.000 A 
ATOM     21  N   UNL     1      -0.283  10.763  20.038  0.00  0.00    +0.000 NA
BRANCH  17  23
ATOM     22  C   UNL     1      -1.962  11.695  23.093  0.00  0.00    +0.000 C 
ATOM     23  C   UNL     1      -1.022  12.054  21.951  0.00  0.00    +0.000 C 
ENDBRANCH  17  23
ENDBRANCH  16  19
ENDBRANCH   1  16
BRANCH  12  24
ATOM     24  C   UNL     1       2.195   3.644  21.605  0.00  0.00    +0.000 C 
BRANCH  24  25
ATOM     25  O   UNL     1       3.164   2.595  21.451  0.00  0.00    +0.000 OA
ATOM     26  H   UNL     1       3.818   2.649  22.170  0.00  0.00    +0.000 HD
ENDBRANCH  24  25
ENDBRANCH  12  24
TORSDOF 6
ENDMDL
MODEL 9
REMARK VINA RESULT:      -6.6      7.340      9.605
REMARK  Name = 
REMARK  8 active torsions:
REMARK  status: ('A' for Active; 'I' for Inactive)
REMARK    1  A    between atoms: C_1  and  C_2
REMARK    2  A    between atoms: C_2  and  N_3
REMARK    3  A    between atoms: C_5  and  C_6
REMARK    4  A    between atoms: C_6  and  N_7
REMARK    5  A    between atoms: C_13  and  O_14
REMARK    6  A    between atoms: O_14  and  C_15
REMARK    7  A    between atoms: C_20  and  C_21
REMARK    8  A    between atoms: C_21  and  O_22
REMARK                            x       y       z     vdW  Elec       q    Type
REMARK                         _______ _______ _______ _____ _____    ______ ____
ROOT
ATOM      1  N   UNL     1       0.994   8.904  19.466  0.00  0.00    +0.000 NA
ATOM      2  C   UNL     1       0.328   9.466  20.630  0.00  0.00    +0.000 C 
ATOM      3  C   UNL     1       0.511  10.989  20.601  0.00  0.00    +0.000 C 
ATOM      4  C   UNL     1      -0.706  11.566  21.272  0.00  0.00    +0.000 A 
ATOM      5  C   UNL     1      -0.954  11.331  22.636  0.00  0.00    +0.000 A 
ATOM      6  C   UNL     1      -2.151  11.751  23.227  0.00  0.00    +0.000 A 
ATOM      7  C   UNL     1      -3.076  12.488  22.494  0.00  0.00    +0.000 A 
ATOM      8  C   UNL     1      -2.858  12.681  21.134  0.00  0.00    +0.000 A 
ATOM      9  C   UNL     1      -1.718  12.145  20.522  0.00  0.00    +0.000 A 
ATOM     10  O   UNL     1      -1.771  12.002  19.168  0.00  0.00    +0.000 OA
ATOM     11  C   UNL     1      -0.529  12.014  18.473  0.00  0.00    +0.000 C 
ATOM     12  C   UNL     1       0.719  11.351  19.116  0.00  0.00    +0.000 C 
ATOM     13  C   UNL     1       1.152   9.992  18.491  0.00  0.00    +0.000 C 
ENDROOT
BRANCH   7  14
ATOM     14  O   UNL     1      -4.179  12.888  23.196  0.00  0.00    +0.000 OA
ATOM     15  C   UNL     1      -4.259  12.440  24.544  0.00  0.00    +0.000 C 
ENDBRANCH   7  14
BRANCH   1  16
ATOM     16  C   UNL     1       2.244   8.214  19.809  0.00  0.00    +0.000 C 
BRANCH  16  19
ATOM     17  N   UNL     1       1.638   4.586  19.952  0.00  0.00    +0.000 N 
ATOM     18  C   UNL     1       1.666   5.786  20.597  0.00  0.00    +0.000 A 
ATOM     19  C   UNL     1       2.110   6.727  19.679  0.00  0.00    +0.000 A 
ATOM     20  C   UNL     1       2.379   5.947  18.525  0.00  0.00    +0.000 A 
ATOM     21  N   UNL     1       2.092   4.652  18.686  0.00  0.00    +0.000 NA
BRANCH  17  23
ATOM     22  C   UNL     1       1.920   2.755  21.572  0.00  0.00    +0.000 C 
ATOM     23  C   UNL     1       1.072   3.349  20.457  0.00  0.00    +0.000 C 
ENDBRANCH  17  23
ENDBRANCH  16  19
ENDBRANCH   1  16
BRANCH  12  24
ATOM     24  C   UNL     1       1.878  12.347  18.826  0.00  0.00    +0.000 C 
BRANCH  24  25
ATOM     25  O   UNL     1       2.532  12.013  17.591  0.00  0.00    +0.000 OA
ATOM     26  H   UNL     1       2.120  12.508  16.861  0.00  0.00    +0.000 HD
ENDBRANCH  24  25
ENDBRANCH  12  24
TORSDOF 6
ENDMDL
