MODEL 1
REMARK VINA RESULT:      -7.9      0.000      0.000
REMARK  Name = 
REMARK  8 active torsions:
REMARK  status: ('A' for Active; 'I' for Inactive)
REMARK    1  A    between atoms: C_1  and  C_2
REMARK    2  A    between atoms: C_5  and  N_6
REMARK    3  A    between atoms: N_6  and  S_7
REMARK    4  A    between atoms: S_7  and  C_10
REMARK    5  A    between atoms: C_10  and  C_11
REMARK    6  A    between atoms: N_19  and  C_20
REMARK    7  A    between atoms: C_20  and  C_21
REMARK    8  A    between atoms: N_23  and  C_24
REMARK                            x       y       z     vdW  Elec       q    Type
REMARK                         _______ _______ _______ _____ _____    ______ ____
ROOT
ATOM      1  C   UNL     1       0.322  10.210  18.146  0.00  0.00    +0.000 C 
ATOM      2  C   UNL     1       1.196   9.084  18.621  0.00  0.00    +0.000 A 
ATOM      3  C   UNL     1       2.183   8.649  17.825  0.00  0.00    +0.000 A 
ATOM      4  C   UNL     1       3.063   7.593  18.240  0.00  0.00    +0.000 A 
ATOM      5  C   UNL     1       2.811   6.894  19.350  0.00  0.00    +0.000 A 
ATOM      6  C   UNL     1       1.702   7.334  20.275  0.00  0.00    +0.000 A 
ATOM      7  O   UNL     1       1.475   6.741  21.330  0.00  0.00    +0.000 OA
ATOM      8  N   UNL     1       0.983   8.481  19.870  0.00  0.00    +0.000 N 
ENDROOT
BRANCH   5   9
ATOM      9  N   UNL     1       3.719   5.816  19.683  0.00  0.00    +0.000 N 
ATOM     10  H   UNL     1       4.544   5.863  19.082  0.00  0.00    +0.000 HD
BRANCH   9  11
ATOM     11  S   UNL     1       2.974   4.283  19.429  0.00  0.00    +0.000 S 
ATOM     12  O   UNL     1       2.527   3.800  20.717  0.00  0.00    +0.000 OA
ATOM     13  O   UNL     1       2.063   4.463  18.316  0.00  0.00    +0.000 OA
BRANCH  11  14
ATOM     14  C   UNL     1       4.354   3.281  18.838  0.00  0.00    +0.000 C 
BRANCH  14  15
ATOM     15  C   UNL     1       5.127   4.111  17.841  0.00  0.00    +0.000 A 
ATOM     16  C   UNL     1       4.717   4.198  16.499  0.00  0.00    +0.000 A 
ATOM     17  C   UNL     1       5.485   4.900  15.565  0.00  0.00    +0.000 A 
ATOM     18  C   UNL     1       6.666   5.525  15.960  0.00  0.00    +0.000 A 
ATOM     19  C   UNL     1       7.079   5.451  17.289  0.00  0.00    +0.000 A 
ATOM     20  C   UNL     1       6.315   4.749  18.223  0.00  0.00    +0.000 A 
ENDBRANCH  14  15
ENDBRANCH  11  14
ENDBRANCH   9  11
ENDBRANCH   5   9
BRANCH   8  21
ATOM     21  C   UNL     1       0.084   9.101  20.859  0.00  0.00    +0.000 C 
BRANCH  21  22
ATOM     22  C   UNL     1       0.231  10.606  21.140  0.00  0.00    +0.000 C 
ATOM     23  O   UNL     1       1.313  11.081  21.490  0.00  0.00    +0.000 OA
ATOM     24  N   UNL     1      -0.928  11.345  21.109  0.00  0.00    +0.000 N 
ATOM     25  H   UNL     1      -1.780  10.802  21.207  0.00  0.00    +0.000 HD
BRANCH  24  26
ATOM     26  C   UNL     1      -0.976  12.751  21.551  0.00  0.00    +0.000 C 
ATOM     27  C   UNL     1      -1.252  12.805  23.074  0.00  0.00    +0.000 C 
ATOM     28  C   UNL     1      -2.635  12.225  23.434  0.00  0.00    +0.000 C 
ATOM     29  C   UNL     1      -3.685  12.733  22.508  0.00  0.00    +0.000 A 
ATOM     30  N   UNL     1      -5.026  12.568  22.777  0.00  0.00    +0.000 NA
ATOM     31  C   UNL     1      -5.737  13.068  21.793  0.00  0.00    +0.000 A 
ATOM     32  N   UNL     1      -7.077  13.009  21.757  0.00  0.00    +0.000 N 
ATOM     33  S   UNL     1      -4.834  13.774  20.507  0.00  0.00    +0.000 S 
ATOM     34  C   UNL     1      -3.397  13.346  21.308  0.00  0.00    +0.000 A 
ATOM     35  C   UNL     1      -2.025  13.619  20.789  0.00  0.00    +0.000 C 
ATOM     36  H   UNL     1      -7.483  12.317  22.378  0.00  0.00    +0.000 HD
ATOM     37  H   UNL     1      -7.517  13.055  20.846  0.00  0.00    +0.000 HD
ENDBRANCH  24  26
ENDBRANCH  21  22
ENDBRANCH   8  21
TORSDOF 7
ENDMDL
MODEL 2
REMARK VINA RESULT:      -7.6      1.420      1.478
REMARK  Name = 
REMARK  8 active torsions:
REMARK  status: ('A' for Active; 'I' for Inactive)
REMARK    1  A    between atoms: C_1  and  C_2
REMARK    2  A    between atoms: C_5  and  N_6
REMARK    3  A    between atoms: N_6  and  S_7
REMARK    4  A    between atoms: S_7  and  C_10
REMARK    5  A    between atoms: C_10  and  C_11
REMARK    6  A    between atoms: N_19  and  C_20
REMARK    7  A    between atoms: C_20  and  C_21
REMARK    8  A    between atoms: N_23  and  C_24
REMARK                            x       y       z     vdW  Elec       q    Type
REMARK                         _______ _______ _______ _____ _____    ______ ____
ROOT
ATOM      1  C   UNL     1      -0.586  10.659  18.170  0.00  0.00    +0.000 C 
ATOM      2  C   UNL     1       0.431   9.669  18.664  0.00  0.00    +0.000 A 
ATOM      3  C   UNL     1       1.229   9.059  17.776  0.00  0.00    +0.000 A 
ATOM      4  C   UNL     1       2.233   8.124  18.196  0.00  0.00    +0.000 A 
ATOM      5  C   UNL     1       2.281   7.700  19.461  0.00  0.00    +0.000 A 
ATOM      6  C   UNL     1       1.396   8.345  20.500  0.00  0.00    +0.000 A 
ATOM      7  O   UNL     1       1.450   8.012  21.684  0.00  0.00    +0.000 OA
ATOM      8  N   UNL     1       0.545   9.370  20.031  0.00  0.00    +0.000 N 
ENDROOT
BRANCH   5   9
ATOM      9  N   UNL     1       3.296   6.726  19.803  0.00  0.00    +0.000 N 
ATOM     10  H   UNL     1       4.056   6.766  19.120  0.00  0.00    +0.000 HD
BRANCH   9  11
ATOM     11  S   UNL     1       2.650   5.128  19.772  0.00  0.00    +0.000 S 
ATOM     12  O   UNL     1       2.201   4.817  21.110  0.00  0.00    +0.000 OA
ATOM     13  O   UNL     1       1.758   5.082  18.630  0.00  0.00    +0.000 OA
BRANCH  11  14
ATOM     14  C   UNL     1       4.101   4.137  19.361  0.00  0.00    +0.000 C 
BRANCH  14  15
ATOM     15  C   UNL     1       5.090   5.042  18.662  0.00  0.00    +0.000 A 
ATOM     16  C   UNL     1       4.830   5.539  17.373  0.00  0.00    +0.000 A 
ATOM     17  C   UNL     1       5.786   6.307  16.702  0.00  0.00    +0.000 A 
ATOM     18  C   UNL     1       7.008   6.588  17.309  0.00  0.00    +0.000 A 
ATOM     19  C   UNL     1       7.273   6.106  18.589  0.00  0.00    +0.000 A 
ATOM     20  C   UNL     1       6.322   5.338  19.262  0.00  0.00    +0.000 A 
ENDBRANCH  14  15
ENDBRANCH  11  14
ENDBRANCH   9  11
ENDBRANCH   5   9
BRANCH   8  21
ATOM     21  C   UNL     1      -0.131  10.205  21.039  0.00  0.00    +0.000 C 
BRANCH  21  22
ATOM     22  C   UNL     1       0.147  11.717  21.045  0.00  0.00    +0.000 C 
ATOM     23  O   UNL     1       1.300  12.148  21.101  0.00  0.00    +0.000 OA
ATOM     24  N   UNL     1      -0.955  12.537  21.121  0.00  0.00    +0.000 N 
ATOM     25  H   UNL     1      -1.796  12.085  21.465  0.00  0.00    +0.000 HD
BRANCH  24  26
ATOM     26  C   UNL     1      -0.840  13.990  21.335  0.00  0.00    +0.000 C 
ATOM     27  C   UNL     1      -0.436  14.266  22.804  0.00  0.00    +0.000 C 
ATOM     28  C   UNL     1      -1.515  13.799  23.801  0.00  0.00    +0.000 C 
ATOM     29  C   UNL     1      -2.873  14.217  23.353  0.00  0.00    +0.000 A 
ATOM     30  N   UNL     1      -3.964  14.146  24.191  0.00  0.00    +0.000 NA
ATOM     31  C   UNL     1      -5.039  14.534  23.547  0.00  0.00    +0.000 A 
ATOM     32  N   UNL     1      -6.264  14.526  24.098  0.00  0.00    +0.000 N 
ATOM     33  S   UNL     1      -4.794  15.018  21.912  0.00  0.00    +0.000 S 
ATOM     34  C   UNL     1      -3.143  14.645  22.071  0.00  0.00    +0.000 A 
ATOM     35  C   UNL     1      -2.134  14.788  20.981  0.00  0.00    +0.000 C 
ATOM     36  H   UNL     1      -6.347  13.944  24.924  0.00  0.00    +0.000 HD
ATOM     37  H   UNL     1      -7.053  14.463  23.467  0.00  0.00    +0.000 HD
ENDBRANCH  24  26
ENDBRANCH  21  22
ENDBRANCH   8  21
TORSDOF 7
ENDMDL
MODEL 3
REMARK VINA RESULT:      -7.6      3.069      4.442
REMARK  Name = 
REMARK  8 active torsions:
REMARK  status: ('A' for Active; 'I' for Inactive)
REMARK    1  A    between atoms: C_1  and  C_2
REMARK    2  A    between atoms: C_5  and  N_6
REMARK    3  A    between atoms: N_6  and  S_7
REMARK    4  A    between atoms: S_7  and  C_10
REMARK    5  A    between atoms: C_10  and  C_11
REMARK    6  A    between atoms: N_19  and  C_20
REMARK    7  A    between atoms: C_20  and  C_21
REMARK    8  A    between atoms: N_23  and  C_24
REMARK                            x       y       z     vdW  Elec       q    Type
REMARK                         _______ _______ _______ _____ _____    ______ ____
ROOT
ATOM      1  C   UNL     1      -0.873  10.930  17.932  0.00  0.00    +0.000 C 
ATOM      2  C   UNL     1       0.117   9.969  18.528  0.00  0.00    +0.000 A 
ATOM      3  C   UNL     1       1.086   9.468  17.749  0.00  0.00    +0.000 A 
ATOM      4  C   UNL     1       2.072   8.566  18.273  0.00  0.00    +0.000 A 
ATOM      5  C   UNL     1       1.944   8.059  19.502  0.00  0.00    +0.000 A 
ATOM      6  C   UNL     1       0.862   8.579  20.417  0.00  0.00    +0.000 A 
ATOM      7  O   UNL     1       0.748   8.170  21.572  0.00  0.00    +0.000 OA
ATOM      8  N   UNL     1       0.030   9.584  19.875  0.00  0.00    +0.000 N 
ENDROOT
BRANCH   5   9
ATOM      9  N   UNL     1       2.955   7.123  19.948  0.00  0.00    +0.000 N 
ATOM     10  H   UNL     1       3.848   7.344  19.504  0.00  0.00    +0.000 HD
BRANCH   9  11
ATOM     11  S   UNL     1       2.537   5.510  19.508  0.00  0.00    +0.000 S 
ATOM     12  O   UNL     1       1.806   4.935  20.615  0.00  0.00    +0.000 OA
ATOM     13  O   UNL     1       1.974   5.596  18.175  0.00  0.00    +0.000 OA
BRANCH  11  14
ATOM     14  C   UNL     1       4.154   4.724  19.360  0.00  0.00    +0.000 C 
BRANCH  14  15
ATOM     15  C   UNL     1       4.657   4.974  17.958  0.00  0.00    +0.000 A 
ATOM     16  C   UNL     1       5.009   6.268  17.535  0.00  0.00    +0.000 A 
ATOM     17  C   UNL     1       5.396   6.503  16.213  0.00  0.00    +0.000 A 
ATOM     18  C   UNL     1       5.437   5.452  15.299  0.00  0.00    +0.000 A 
ATOM     19  C   UNL     1       5.096   4.164  15.708  0.00  0.00    +0.000 A 
ATOM     20  C   UNL     1       4.709   3.926  17.028  0.00  0.00    +0.000 A 
ENDBRANCH  14  15
ENDBRANCH  11  14
ENDBRANCH   9  11
ENDBRANCH   5   9
BRANCH   8  21
ATOM     21  C   UNL     1      -0.855  10.307  20.805  0.00  0.00    +0.000 C 
BRANCH  21  22
ATOM     22  C   UNL     1      -0.329  11.592  21.467  0.00  0.00    +0.000 C 
ATOM     23  O   UNL     1      -0.132  11.643  22.682  0.00  0.00    +0.000 OA
ATOM     24  N   UNL     1      -0.227  12.696  20.652  0.00  0.00    +0.000 N 
ATOM     25  H   UNL     1      -0.778  12.647  19.801  0.00  0.00    +0.000 HD
BRANCH  24  26
ATOM     26  C   UNL     1       0.068  14.039  21.182  0.00  0.00    +0.000 C 
ATOM     27  C   UNL     1      -0.444  15.111  20.188  0.00  0.00    +0.000 C 
ATOM     28  C   UNL     1       0.291  15.044  18.834  0.00  0.00    +0.000 C 
ATOM     29  C   UNL     1       1.761  14.909  19.030  0.00  0.00    +0.000 A 
ATOM     30  N   UNL     1       2.648  15.088  17.990  0.00  0.00    +0.000 NA
ATOM     31  C   UNL     1       3.871  14.876  18.415  0.00  0.00    +0.000 A 
ATOM     32  N   UNL     1       4.944  14.933  17.609  0.00  0.00    +0.000 N 
ATOM     33  S   UNL     1       4.021  14.470  20.082  0.00  0.00    +0.000 S 
ATOM     34  C   UNL     1       2.329  14.547  20.231  0.00  0.00    +0.000 A 
ATOM     35  C   UNL     1       1.578  14.280  21.493  0.00  0.00    +0.000 C 
ATOM     36  H   UNL     1       4.729  14.865  16.620  0.00  0.00    +0.000 HD
ATOM     37  H   UNL     1       5.761  14.406  17.891  0.00  0.00    +0.000 HD
ENDBRANCH  24  26
ENDBRANCH  21  22
ENDBRANCH   8  21
TORSDOF 7
ENDMDL
MODEL 4
REMARK VINA RESULT:      -7.5      2.817      3.672
REMARK  Name = 
REMARK  8 active torsions:
REMARK  status: ('A' for Active; 'I' for Inactive)
REMARK    1  A    between atoms: C_1  and  C_2
REMARK    2  A    between atoms: C_5  and  N_6
REMARK    3  A    between atoms: N_6  and  S_7
REMARK    4  A    between atoms: S_7  and  C_10
REMARK    5  A    between atoms: C_10  and  C_11
REMARK    6  A    between atoms: N_19  and  C_20
REMARK    7  A    between atoms: C_20  and  C_21
REMARK    8  A    between atoms: N_23  and  C_24
REMARK                            x       y       z     vdW  Elec       q    Type
REMARK                         _______ _______ _______ _____ _____    ______ ____
ROOT
ATOM      1  C   UNL     1       1.255   8.553  21.610  0.00  0.00    +0.000 C 
ATOM      2  C   UNL     1       1.616   7.572  20.530  0.00  0.00    +0.000 A 
ATOM      3  C   UNL     1       1.495   6.260  20.778  0.00  0.00    +0.000 A 
ATOM      4  C   UNL     1       1.803   5.281  19.774  0.00  0.00    +0.000 A 
ATOM      5  C   UNL     1       2.389   5.642  18.630  0.00  0.00    +0.000 A 
ATOM      6  C   UNL     1       2.561   7.106  18.306  0.00  0.00    +0.000 A 
ATOM      7  O   UNL     1       3.052   7.473  17.239  0.00  0.00    +0.000 OA
ATOM      8  N   UNL     1       2.086   8.010  19.282  0.00  0.00    +0.000 N 
ENDROOT
BRANCH   5   9
ATOM      9  N   UNL     1       2.708   4.595  17.682  0.00  0.00    +0.000 N 
ATOM     10  H   UNL     1       1.976   3.882  17.698  0.00  0.00    +0.000 HD
BRANCH   9  11
ATOM     11  S   UNL     1       4.195   3.826  18.091  0.00  0.00    +0.000 S 
ATOM     12  O   UNL     1       4.649   4.398  19.339  0.00  0.00    +0.000 OA
ATOM     13  O   UNL     1       3.962   2.403  17.936  0.00  0.00    +0.000 OA
BRANCH  11  14
ATOM     14  C   UNL     1       5.276   4.344  16.743  0.00  0.00    +0.000 C 
BRANCH  14  15
ATOM     15  C   UNL     1       6.296   5.301  17.316  0.00  0.00    +0.000 A 
ATOM     16  C   UNL     1       7.183   4.892  18.327  0.00  0.00    +0.000 A 
ATOM     17  C   UNL     1       8.067   5.806  18.909  0.00  0.00    +0.000 A 
ATOM     18  C   UNL     1       8.076   7.134  18.487  0.00  0.00    +0.000 A 
ATOM     19  C   UNL     1       7.205   7.549  17.482  0.00  0.00    +0.000 A 
ATOM     20  C   UNL     1       6.321   6.639  16.900  0.00  0.00    +0.000 A 
ENDBRANCH  14  15
ENDBRANCH  11  14
ENDBRANCH   9  11
ENDBRANCH   5   9
BRANCH   8  21
ATOM     21  C   UNL     1       1.984   9.429  18.899  0.00  0.00    +0.000 C 
BRANCH  21  22
ATOM     22  C   UNL     1       0.588  10.018  18.633  0.00  0.00    +0.000 C 
ATOM     23  O   UNL     1      -0.117   9.585  17.719  0.00  0.00    +0.000 OA
ATOM     24  N   UNL     1       0.243  11.123  19.374  0.00  0.00    +0.000 N 
ATOM     25  H   UNL     1       1.027  11.616  19.790  0.00  0.00    +0.000 HD
BRANCH  24  26
ATOM     26  C   UNL     1      -0.970  11.912  19.093  0.00  0.00    +0.000 C 
ATOM     27  C   UNL     1      -0.599  13.139  18.224  0.00  0.00    +0.000 C 
ATOM     28  C   UNL     1       0.346  14.108  18.962  0.00  0.00    +0.000 C 
ATOM     29  C   UNL     1      -0.116  14.346  20.357  0.00  0.00    +0.000 A 
ATOM     30  N   UNL     1       0.406  15.362  21.128  0.00  0.00    +0.000 NA
ATOM     31  C   UNL     1      -0.139  15.333  22.322  0.00  0.00    +0.000 A 
ATOM     32  N   UNL     1       0.210  16.178  23.304  0.00  0.00    +0.000 N 
ATOM     33  S   UNL     1      -1.314  14.099  22.573  0.00  0.00    +0.000 S 
ATOM     34  C   UNL     1      -1.044  13.547  20.989  0.00  0.00    +0.000 A 
ATOM     35  C   UNL     1      -1.735  12.377  20.371  0.00  0.00    +0.000 C 
ATOM     36  H   UNL     1       1.102  16.639  23.163  0.00  0.00    +0.000 HD
ATOM     37  H   UNL     1       0.051  15.871  24.256  0.00  0.00    +0.000 HD
ENDBRANCH  24  26
ENDBRANCH  21  22
ENDBRANCH   8  21
TORSDOF 7
ENDMDL
MODEL 5
REMARK VINA RESULT:      -7.5      2.915      4.230
REMARK  Name = 
REMARK  8 active torsions:
REMARK  status: ('A' for Active; 'I' for Inactive)
REMARK    1  A    between atoms: C_1  and  C_2
REMARK    2  A    between atoms: C_5  and  N_6
REMARK    3  A    between atoms: N_6  and  S_7
REMARK    4  A    between atoms: S_7  and  C_10
REMARK    5  A    between atoms: C_10  and  C_11
REMARK    6  A    between atoms: N_19  and  C_20
REMARK    7  A    between atoms: C_20  and  C_21
REMARK    8  A    between atoms: N_23  and  C_24
REMARK                            x       y       z     vdW  Elec       q    Type
REMARK                         _______ _______ _______ _____ _____    ______ ____
ROOT
ATOM      1  C   UNL     1      -0.719  10.496  18.009  0.00  0.00    +0.000 C 
ATOM      2  C   UNL     1       0.361   9.568  18.490  0.00  0.00    +0.000 A 
ATOM      3  C   UNL     1       1.310   9.176  17.628  0.00  0.00    +0.000 A 
ATOM      4  C   UNL     1       2.379   8.310  18.040  0.00  0.00    +0.000 A 
ATOM      5  C   UNL     1       2.357   7.728  19.242  0.00  0.00    +0.000 A 
ATOM      6  C   UNL     1       1.302   8.125  20.246  0.00  0.00    +0.000 A 
ATOM      7  O   UNL     1       1.283   7.644  21.379  0.00  0.00    +0.000 OA
ATOM      8  N   UNL     1       0.379   9.103  19.813  0.00  0.00    +0.000 N 
ENDROOT
BRANCH   5   9
ATOM      9  N   UNL     1       3.447   6.835  19.573  0.00  0.00    +0.000 N 
ATOM     10  H   UNL     1       4.298   7.139  19.095  0.00  0.00    +0.000 HD
BRANCH   9  11
ATOM     11  S   UNL     1       3.104   5.227  19.057  0.00  0.00    +0.000 S 
ATOM     12  O   UNL     1       3.648   4.329  20.051  0.00  0.00    +0.000 OA
ATOM     13  O   UNL     1       1.701   5.217  18.695  0.00  0.00    +0.000 OA
BRANCH  11  14
ATOM     14  C   UNL     1       4.055   5.105  17.528  0.00  0.00    +0.000 C 
BRANCH  14  15
ATOM     15  C   UNL     1       5.422   5.691  17.792  0.00  0.00    +0.000 A 
ATOM     16  C   UNL     1       6.267   5.144  18.774  0.00  0.00    +0.000 A 
ATOM     17  C   UNL     1       7.496   5.743  19.068  0.00  0.00    +0.000 A 
ATOM     18  C   UNL     1       7.894   6.891  18.385  0.00  0.00    +0.000 A 
ATOM     19  C   UNL     1       7.068   7.438  17.406  0.00  0.00    +0.000 A 
ATOM     20  C   UNL     1       5.840   6.843  17.111  0.00  0.00    +0.000 A 
ENDBRANCH  14  15
ENDBRANCH  11  14
ENDBRANCH   9  11
ENDBRANCH   5   9
BRANCH   8  21
ATOM     21  C   UNL     1      -0.490   9.714  20.834  0.00  0.00    +0.000 C 
BRANCH  21  22
ATOM     22  C   UNL     1       0.028  10.944  21.597  0.00  0.00    +0.000 C 
ATOM     23  O   UNL     1       0.322  10.871  22.792  0.00  0.00    +0.000 OA
ATOM     24  N   UNL     1       0.013  12.136  20.909  0.00  0.00    +0.000 N 
ATOM     25  H   UNL     1      -0.603  12.151  20.103  0.00  0.00    +0.000 HD
BRANCH  24  26
ATOM     26  C   UNL     1       0.289  13.426  21.566  0.00  0.00    +0.000 C 
ATOM     27  C   UNL     1      -0.589  14.530  20.926  0.00  0.00    +0.000 C 
ATOM     28  C   UNL     1      -0.245  14.756  19.440  0.00  0.00    +0.000 C 
ATOM     29  C   UNL     1       1.229  14.820  19.237  0.00  0.00    +0.000 A 
ATOM     30  N   UNL     1       1.776  15.267  18.054  0.00  0.00    +0.000 NA
ATOM     31  C   UNL     1       3.085  15.189  18.117  0.00  0.00    +0.000 A 
ATOM     32  N   UNL     1       3.886  15.514  17.091  0.00  0.00    +0.000 N 
ATOM     33  S   UNL     1       3.723  14.593  19.602  0.00  0.00    +0.000 S 
ATOM     34  C   UNL     1       2.137  14.391  20.180  0.00  0.00    +0.000 A 
ATOM     35  C   UNL     1       1.790  13.850  21.526  0.00  0.00    +0.000 C 
ATOM     36  H   UNL     1       3.421  15.546  16.190  0.00  0.00    +0.000 HD
ATOM     37  H   UNL     1       4.803  15.084  17.067  0.00  0.00    +0.000 HD
ENDBRANCH  24  26
ENDBRANCH  21  22
ENDBRANCH   8  21
TORSDOF 7
ENDMDL
MODEL 6
REMARK VINA RESULT:      -7.5      1.164      1.444
REMARK  Name = 
REMARK  8 active torsions:
REMARK  status: ('A' for Active; 'I' for Inactive)
REMARK    1  A    between atoms: C_1  and  C_2
REMARK    2  A    between atoms: C_5  and  N_6
REMARK    3  A    between atoms: N_6  and  S_7
REMARK    4  A    between atoms: S_7  and  C_10
REMARK    5  A    between atoms: C_10  and  C_11
REMARK    6  A    between atoms: N_19  and  C_20
REMARK    7  A    between atoms: C_20  and  C_21
REMARK    8  A    between atoms: N_23  and  C_24
REMARK                            x       y       z     vdW  Elec       q    Type
REMARK                         _______ _______ _______ _____ _____    ______ ____
ROOT
ATOM      1  C   UNL     1      -0.432  10.696  18.177  0.00  0.00    +0.000 C 
ATOM      2  C   UNL     1       0.538   9.663  18.677  0.00  0.00    +0.000 A 
ATOM      3  C   UNL     1       1.402   9.111  17.813  0.00  0.00    +0.000 A 
ATOM      4  C   UNL     1       2.366   8.138  18.242  0.00  0.00    +0.000 A 
ATOM      5  C   UNL     1       2.310   7.623  19.473  0.00  0.00    +0.000 A 
ATOM      6  C   UNL     1       1.346   8.198  20.482  0.00  0.00    +0.000 A 
ATOM      7  O   UNL     1       1.303   7.779  21.638  0.00  0.00    +0.000 OA
ATOM      8  N   UNL     1       0.540   9.264  20.022  0.00  0.00    +0.000 N 
ENDROOT
BRANCH   5   9
ATOM      9  N   UNL     1       3.290   6.615  19.822  0.00  0.00    +0.000 N 
ATOM     10  H   UNL     1       4.076   6.660  19.171  0.00  0.00    +0.000 HD
BRANCH   9  11
ATOM     11  S   UNL     1       2.612   5.034  19.715  0.00  0.00    +0.000 S 
ATOM     12  O   UNL     1       2.104   4.692  21.024  0.00  0.00    +0.000 OA
ATOM     13  O   UNL     1       1.766   5.044  18.538  0.00  0.00    +0.000 OA
BRANCH  11  14
ATOM     14  C   UNL     1       4.057   4.025  19.330  0.00  0.00    +0.000 C 
BRANCH  14  15
ATOM     15  C   UNL     1       5.011   4.879  18.528  0.00  0.00    +0.000 A 
ATOM     16  C   UNL     1       6.225   5.323  19.081  0.00  0.00    +0.000 A 
ATOM     17  C   UNL     1       7.062   6.180  18.361  0.00  0.00    +0.000 A 
ATOM     18  C   UNL     1       6.700   6.601  17.084  0.00  0.00    +0.000 A 
ATOM     19  C   UNL     1       5.502   6.162  16.523  0.00  0.00    +0.000 A 
ATOM     20  C   UNL     1       4.663   5.307  17.239  0.00  0.00    +0.000 A 
ENDBRANCH  14  15
ENDBRANCH  11  14
ENDBRANCH   9  11
ENDBRANCH   5   9
BRANCH   8  21
ATOM     21  C   UNL     1      -0.213  10.029  21.032  0.00  0.00    +0.000 C 
BRANCH  21  22
ATOM     22  C   UNL     1       0.113  11.521  21.213  0.00  0.00    +0.000 C 
ATOM     23  O   UNL     1       1.273  11.899  21.381  0.00  0.00    +0.000 OA
ATOM     24  N   UNL     1      -0.965  12.370  21.310  0.00  0.00    +0.000 N 
ATOM     25  H   UNL     1      -1.840  11.917  21.556  0.00  0.00    +0.000 HD
BRANCH  24  26
ATOM     26  C   UNL     1      -0.818  13.788  21.683  0.00  0.00    +0.000 C 
ATOM     27  C   UNL     1      -0.979  13.939  23.216  0.00  0.00    +0.000 C 
ATOM     28  C   UNL     1      -2.391  13.545  23.693  0.00  0.00    +0.000 C 
ATOM     29  C   UNL     1      -3.436  14.136  22.812  0.00  0.00    +0.000 A 
ATOM     30  N   UNL     1      -4.766  14.145  23.175  0.00  0.00    +0.000 NA
ATOM     31  C   UNL     1      -5.480  14.684  22.215  0.00  0.00    +0.000 A 
ATOM     32  N   UNL     1      -6.817  14.785  22.268  0.00  0.00    +0.000 N 
ATOM     33  S   UNL     1      -4.593  15.222  20.840  0.00  0.00    +0.000 S 
ATOM     34  C   UNL     1      -3.163  14.659  21.567  0.00  0.00    +0.000 A 
ATOM     35  C   UNL     1      -1.808  14.743  20.947  0.00  0.00    +0.000 C 
ATOM     36  H   UNL     1      -7.257  14.174  22.948  0.00  0.00    +0.000 HD
ATOM     37  H   UNL     1      -7.311  14.845  21.386  0.00  0.00    +0.000 HD
ENDBRANCH  24  26
ENDBRANCH  21  22
ENDBRANCH   8  21
TORSDOF 7
ENDMDL
MODEL 7
REMARK VINA RESULT:      -7.5      2.281     10.756
REMARK  Name = 
REMARK  8 active torsions:
REMARK  status: ('A' for Active; 'I' for Inactive)
REMARK    1  A    between atoms: C_1  and  C_2
REMARK    2  A    between atoms: C_5  and  N_6
REMARK    3  A    between atoms: N_6  and  S_7
REMARK    4  A    between atoms: S_7  and  C_10
REMARK    5  A    between atoms: C_10  and  C_11
REMARK    6  A    between atoms: N_19  and  C_20
REMARK    7  A    between atoms: C_20  and  C_21
REMARK    8  A    between atoms: N_23  and  C_24
REMARK                            x       y       z     vdW  Elec       q    Type
REMARK                         _______ _______ _______ _____ _____    ______ ____
ROOT
ATOM      1  C   UNL     1       3.095   7.922  17.816  0.00  0.00    +0.000 C 
ATOM      2  C   UNL     1       1.941   8.596  18.504  0.00  0.00    +0.000 A 
ATOM      3  C   UNL     1       1.190   9.464  17.811  0.00  0.00    +0.000 A 
ATOM      4  C   UNL     1       0.062  10.118  18.412  0.00  0.00    +0.000 A 
ATOM      5  C   UNL     1      -0.161  10.019  19.725  0.00  0.00    +0.000 A 
ATOM      6  C   UNL     1       0.664   9.066  20.554  0.00  0.00    +0.000 A 
ATOM      7  O   UNL     1       0.452   8.915  21.757  0.00  0.00    +0.000 OA
ATOM      8  N   UNL     1       1.654   8.341  19.853  0.00  0.00    +0.000 N 
ENDROOT
BRANCH   5   9
ATOM      9  N   UNL     1      -1.294  10.740  20.267  0.00  0.00    +0.000 N 
ATOM     10  H   UNL     1      -1.913  11.030  19.507  0.00  0.00    +0.000 HD
BRANCH   9  11
ATOM     11  S   UNL     1      -0.780  12.161  21.095  0.00  0.00    +0.000 S 
ATOM     12  O   UNL     1       0.640  12.304  20.869  0.00  0.00    +0.000 OA
ATOM     13  O   UNL     1      -1.727  13.197  20.730  0.00  0.00    +0.000 OA
BRANCH  11  14
ATOM     14  C   UNL     1      -1.091  11.732  22.820  0.00  0.00    +0.000 C 
BRANCH  14  15
ATOM     15  C   UNL     1      -1.976  12.807  23.407  0.00  0.00    +0.000 A 
ATOM     16  C   UNL     1      -3.351  12.588  23.600  0.00  0.00    +0.000 A 
ATOM     17  C   UNL     1      -4.175  13.616  24.066  0.00  0.00    +0.000 A 
ATOM     18  C   UNL     1      -3.638  14.870  24.347  0.00  0.00    +0.000 A 
ATOM     19  C   UNL     1      -2.275  15.097  24.164  0.00  0.00    +0.000 A 
ATOM     20  C   UNL     1      -1.449  14.073  23.698  0.00  0.00    +0.000 A 
ENDBRANCH  14  15
ENDBRANCH  11  14
ENDBRANCH   9  11
ENDBRANCH   5   9
BRANCH   8  21
ATOM     21  C   UNL     1       2.294   7.215  20.556  0.00  0.00    +0.000 C 
BRANCH  21  22
ATOM     22  C   UNL     1       2.233   5.819  19.911  0.00  0.00    +0.000 C 
ATOM     23  O   UNL     1       1.274   5.072  20.112  0.00  0.00    +0.000 OA
ATOM     24  N   UNL     1       3.355   5.418  19.225  0.00  0.00    +0.000 N 
ATOM     25  H   UNL     1       4.200   5.929  19.459  0.00  0.00    +0.000 HD
BRANCH  24  26
ATOM     26  C   UNL     1       3.522   4.041  18.727  0.00  0.00    +0.000 C 
ATOM     27  C   UNL     1       4.798   3.419  19.345  0.00  0.00    +0.000 C 
ATOM     28  C   UNL     1       6.076   4.161  18.904  0.00  0.00    +0.000 C 
ATOM     29  C   UNL     1       6.060   4.429  17.439  0.00  0.00    +0.000 A 
ATOM     30  N   UNL     1       7.190   4.844  16.768  0.00  0.00    +0.000 NA
ATOM     31  C   UNL     1       6.901   5.046  15.504  0.00  0.00    +0.000 A 
ATOM     32  N   UNL     1       7.797   5.501  14.614  0.00  0.00    +0.000 N 
ATOM     33  S   UNL     1       5.267   4.734  15.055  0.00  0.00    +0.000 S 
ATOM     34  C   UNL     1       4.920   4.339  16.671  0.00  0.00    +0.000 A 
ATOM     35  C   UNL     1       3.574   3.930  17.172  0.00  0.00    +0.000 C 
ATOM     36  H   UNL     1       8.611   5.942  15.027  0.00  0.00    +0.000 HD
ATOM     37  H   UNL     1       7.436   5.981  13.799  0.00  0.00    +0.000 HD
ENDBRANCH  24  26
ENDBRANCH  21  22
ENDBRANCH   8  21
TORSDOF 7
ENDMDL
MODEL 8
REMARK VINA RESULT:      -7.5      1.488      1.564
REMARK  Name = 
REMARK  8 active torsions:
REMARK  status: ('A' for Active; 'I' for Inactive)
REMARK    1  A    between atoms: C_1  and  C_2
REMARK    2  A    between atoms: C_5  and  N_6
REMARK    3  A    between atoms: N_6  and  S_7
REMARK    4  A    between atoms: S_7  and  C_10
REMARK    5  A    between atoms: C_10  and  C_11
REMARK    6  A    between atoms: N_19  and  C_20
REMARK    7  A    between atoms: C_20  and  C_21
REMARK    8  A    between atoms: N_23  and  C_24
REMARK                            x       y       z     vdW  Elec       q    Type
REMARK                         _______ _______ _______ _____ _____    ______ ____
ROOT
ATOM      1  C   UNL     1      -0.865  11.017  18.338  0.00  0.00    +0.000 C 
ATOM      2  C   UNL     1       0.164  10.009  18.767  0.00  0.00    +0.000 A 
ATOM      3  C   UNL     1       0.983   9.483  17.845  0.00  0.00    +0.000 A 
ATOM      4  C   UNL     1       1.998   8.535  18.205  0.00  0.00    +0.000 A 
ATOM      5  C   UNL     1       2.039   8.015  19.434  0.00  0.00    +0.000 A 
ATOM      6  C   UNL     1       1.130   8.562  20.508  0.00  0.00    +0.000 A 
ATOM      7  O   UNL     1       1.175   8.139  21.663  0.00  0.00    +0.000 OA
ATOM      8  N   UNL     1       0.266   9.607  20.108  0.00  0.00    +0.000 N 
ENDROOT
BRANCH   5   9
ATOM      9  N   UNL     1       3.066   7.033  19.712  0.00  0.00    +0.000 N 
ATOM     10  H   UNL     1       3.869   7.193  19.100  0.00  0.00    +0.000 HD
BRANCH   9  11
ATOM     11  S   UNL     1       2.490   5.437  19.412  0.00  0.00    +0.000 S 
ATOM     12  O   UNL     1       1.776   5.006  20.593  0.00  0.00    +0.000 OA
ATOM     13  O   UNL     1       1.862   5.480  18.106  0.00  0.00    +0.000 OA
BRANCH  11  14
ATOM     14  C   UNL     1       4.024   4.503  19.241  0.00  0.00    +0.000 C 
BRANCH  14  15
ATOM     15  C   UNL     1       4.598   4.812  17.878  0.00  0.00    +0.000 A 
ATOM     16  C   UNL     1       4.587   3.849  16.853  0.00  0.00    +0.000 A 
ATOM     17  C   UNL     1       5.194   4.116  15.622  0.00  0.00    +0.000 A 
ATOM     18  C   UNL     1       5.815   5.343  15.401  0.00  0.00    +0.000 A 
ATOM     19  C   UNL     1       5.827   6.306  16.407  0.00  0.00    +0.000 A 
ATOM     20  C   UNL     1       5.223   6.044  17.638  0.00  0.00    +0.000 A 
ENDBRANCH  14  15
ENDBRANCH  11  14
ENDBRANCH   9  11
ENDBRANCH   5   9
BRANCH   8  21
ATOM     21  C   UNL     1      -0.437  10.348  21.169  0.00  0.00    +0.000 C 
BRANCH  21  22
ATOM     22  C   UNL     1      -0.043  11.813  21.423  0.00  0.00    +0.000 C 
ATOM     23  O   UNL     1       1.141  12.145  21.504  0.00  0.00    +0.000 OA
ATOM     24  N   UNL     1      -1.076  12.683  21.685  0.00  0.00    +0.000 N 
ATOM     25  H   UNL     1      -1.939  12.239  21.982  0.00  0.00    +0.000 HD
BRANCH  24  26
ATOM     26  C   UNL     1      -0.843  14.065  22.142  0.00  0.00    +0.000 C 
ATOM     27  C   UNL     1      -1.192  14.178  23.646  0.00  0.00    +0.000 C 
ATOM     28  C   UNL     1      -2.687  13.914  23.917  0.00  0.00    +0.000 C 
ATOM     29  C   UNL     1      -3.543  14.639  22.937  0.00  0.00    +0.000 A 
ATOM     30  N   UNL     1      -4.902  14.771  23.124  0.00  0.00    +0.000 NA
ATOM     31  C   UNL     1      -5.426  15.413  22.106  0.00  0.00    +0.000 A 
ATOM     32  N   UNL     1      -6.742  15.648  21.991  0.00  0.00    +0.000 N 
ATOM     33  S   UNL     1      -4.315  15.905  20.886  0.00  0.00    +0.000 S 
ATOM     34  C   UNL     1      -3.057  15.174  21.764  0.00  0.00    +0.000 A 
ATOM     35  C   UNL     1      -1.629  15.141  21.330  0.00  0.00    +0.000 C 
ATOM     36  H   UNL     1      -7.326  15.062  22.577  0.00  0.00    +0.000 HD
ATOM     37  H   UNL     1      -7.106  15.789  21.056  0.00  0.00    +0.000 HD
ENDBRANCH  24  26
ENDBRANCH  21  22
ENDBRANCH   8  21
TORSDOF 7
ENDMDL
MODEL 9
REMARK VINA RESULT:      -7.5      1.795      2.220
REMARK  Name = 
REMARK  8 active torsions:
REMARK  status: ('A' for Active; 'I' for Inactive)
REMARK    1  A    between atoms: C_1  and  C_2
REMARK    2  A    between atoms: C_5  and  N_6
REMARK    3  A    between atoms: N_6  and  S_7
REMARK    4  A    between atoms: S_7  and  C_10
REMARK    5  A    between atoms: C_10  and  C_11
REMARK    6  A    between atoms: N_19  and  C_20
REMARK    7  A    between atoms: C_20  and  C_21
REMARK    8  A    between atoms: N_23  and  C_24
REMARK                            x       y       z     vdW  Elec       q    Type
REMARK                         _______ _______ _______ _____ _____    ______ ____
ROOT
ATOM      1  C   UNL     1       1.836  10.487  17.821  0.00  0.00    +0.000 C 
ATOM      2  C   UNL     1       2.062   9.141  18.451  0.00  0.00    +0.000 A 
ATOM      3  C   UNL     1       2.772   8.222  17.781  0.00  0.00    +0.000 A 
ATOM      4  C   UNL     1       3.038   6.930  18.346  0.00  0.00    +0.000 A 
ATOM      5  C   UNL     1       2.434   6.543  19.473  0.00  0.00    +0.000 A 
ATOM      6  C   UNL     1       1.613   7.535  20.260  0.00  0.00    +0.000 A 
ATOM      7  O   UNL     1       1.084   7.225  21.327  0.00  0.00    +0.000 OA
ATOM      8  N   UNL     1       1.531   8.835  19.713  0.00  0.00    +0.000 N 
ENDROOT
BRANCH   5   9
ATOM      9  N   UNL     1       2.719   5.210  19.961  0.00  0.00    +0.000 N 
ATOM     10  H   UNL     1       3.705   4.989  19.804  0.00  0.00    +0.000 HD
BRANCH   9  11
ATOM     11  S   UNL     1       1.781   4.033  19.121  0.00  0.00    +0.000 S 
ATOM     12  O   UNL     1       0.823   3.493  20.061  0.00  0.00    +0.000 OA
ATOM     13  O   UNL     1       1.372   4.663  17.881  0.00  0.00    +0.000 OA
BRANCH  11  14
ATOM     14  C   UNL     1       3.015   2.783  18.709  0.00  0.00    +0.000 C 
BRANCH  14  15
ATOM     15  C   UNL     1       4.177   3.488  18.048  0.00  0.00    +0.000 A 
ATOM     16  C   UNL     1       5.267   3.951  18.805  0.00  0.00    +0.000 A 
ATOM     17  C   UNL     1       6.298   4.674  18.197  0.00  0.00    +0.000 A 
ATOM     18  C   UNL     1       6.253   4.940  16.830  0.00  0.00    +0.000 A 
ATOM     19  C   UNL     1       5.180   4.480  16.069  0.00  0.00    +0.000 A 
ATOM     20  C   UNL     1       4.149   3.759  16.673  0.00  0.00    +0.000 A 
ENDBRANCH  14  15
ENDBRANCH  11  14
ENDBRANCH   9  11
ENDBRANCH   5   9
BRANCH   8  21
ATOM     21  C   UNL     1       0.976   9.897  20.570  0.00  0.00    +0.000 C 
BRANCH  21  22
ATOM     22  C   UNL     1      -0.334  10.578  20.137  0.00  0.00    +0.000 C 
ATOM     23  O   UNL     1      -1.148   9.988  19.426  0.00  0.00    +0.000 OA
ATOM     24  N   UNL     1      -0.468  11.905  20.474  0.00  0.00    +0.000 N 
ATOM     25  H   UNL     1       0.403  12.376  20.695  0.00  0.00    +0.000 HD
BRANCH  24  26
ATOM     26  C   UNL     1      -1.569  12.739  19.959  0.00  0.00    +0.000 C 
ATOM     27  C   UNL     1      -1.144  14.228  19.984  0.00  0.00    +0.000 C 
ATOM     28  C   UNL     1      -0.894  14.737  21.418  0.00  0.00    +0.000 C 
ATOM     29  C   UNL     1      -1.980  14.298  22.337  0.00  0.00    +0.000 A 
ATOM     30  N   UNL     1      -2.119  14.834  23.599  0.00  0.00    +0.000 NA
ATOM     31  C   UNL     1      -3.122  14.253  24.215  0.00  0.00    +0.000 A 
ATOM     32  N   UNL     1      -3.466  14.540  25.481  0.00  0.00    +0.000 N 
ATOM     33  S   UNL     1      -3.957  13.050  23.308  0.00  0.00    +0.000 S 
ATOM     34  C   UNL     1      -2.876  13.300  22.020  0.00  0.00    +0.000 A 
ATOM     35  C   UNL     1      -2.915  12.557  20.726  0.00  0.00    +0.000 C 
ATOM     36  H   UNL     1      -2.743  15.010  26.015  0.00  0.00    +0.000 HD
ATOM     37  H   UNL     1      -3.963  13.825  25.997  0.00  0.00    +0.000 HD
ENDBRANCH  24  26
ENDBRANCH  21  22
ENDBRANCH   8  21
TORSDOF 7
ENDMDL
