MODEL 1
REMARK VINA RESULT:      -6.7      0.000      0.000
REMARK  Name = 
REMARK  4 active torsions:
REMARK  status: ('A' for Active; 'I' for Inactive)
REMARK    1  A    between atoms: C_2  and  C_3
REMARK    2  A    between atoms: C_3  and  N_4
REMARK    3  A    between atoms: C_8  and  C_9
REMARK    4  A    between atoms: N_11  and  C_12
REMARK                            x       y       z     vdW  Elec       q    Type
REMARK                         _______ _______ _______ _____ _____    ______ ____
ROOT
ATOM      1  C   UNL     1       2.404   7.503  18.590  0.00  0.00    +0.000 C 
ATOM      2  O   UNL     1       2.188   7.558  19.803  0.00  0.00    +0.000 OA
ATOM      3  N   UNL     1       2.105   8.506  17.689  0.00  0.00    +0.000 N 
ATOM      4  H   UNL     1       2.247   8.293  16.701  0.00  0.00    +0.000 HD
ENDROOT
BRANCH   1   9
ATOM      5  N   UNL     1       4.692   4.870  16.909  0.00  0.00    +0.000 N 
ATOM      6  C   UNL     1       3.844   3.777  16.993  0.00  0.00    +0.000 A 
ATOM      7  C   UNL     1       2.634   3.884  17.551  0.00  0.00    +0.000 A 
ATOM      8  C   UNL     1       2.201   5.146  18.081  0.00  0.00    +0.000 A 
ATOM      9  C   UNL     1       2.973   6.246  18.010  0.00  0.00    +0.000 A 
ATOM     10  C   UNL     1       4.318   6.142  17.361  0.00  0.00    +0.000 A 
ATOM     11  O   UNL     1       5.025   7.143  17.248  0.00  0.00    +0.000 OA
BRANCH   5  12
ATOM     12  C   UNL     1       6.021   4.687  16.332  0.00  0.00    +0.000 C 
BRANCH  12  14
ATOM     13  C   UNL     1       6.057   3.918  13.935  0.00  0.00    +0.000 C 
ATOM     14  C   UNL     1       5.966   4.896  14.848  0.00  0.00    +0.000 C 
ENDBRANCH  12  14
ENDBRANCH   5  12
ENDBRANCH   1   9
BRANCH   3  15
ATOM     15  C   UNL     1       1.477   9.731  18.003  0.00  0.00    +0.000 A 
ATOM     16  C   UNL     1       2.184  10.918  18.222  0.00  0.00    +0.000 A 
ATOM     17  C   UNL     1       1.527  12.082  18.631  0.00  0.00    +0.000 A 
ATOM     18  C   UNL     1       0.149  12.066  18.813  0.00  0.00    +0.000 A 
ATOM     19 CL   UNL     1      -0.651  13.479  19.379  0.00  0.00    +0.000 Cl
ATOM     20  C   UNL     1      -0.579  10.907  18.548  0.00  0.00    +0.000 A 
ATOM     21  C   UNL     1       0.082   9.746  18.128  0.00  0.00    +0.000 A 
ENDBRANCH   3  15
TORSDOF 4
ENDMDL
MODEL 2
REMARK VINA RESULT:      -6.6      0.319      1.119
REMARK  Name = 
REMARK  4 active torsions:
REMARK  status: ('A' for Active; 'I' for Inactive)
REMARK    1  A    between atoms: C_2  and  C_3
REMARK    2  A    between atoms: C_3  and  N_4
REMARK    3  A    between atoms: C_8  and  C_9
REMARK    4  A    between atoms: N_11  and  C_12
REMARK                            x       y       z     vdW  Elec       q    Type
REMARK                         _______ _______ _______ _____ _____    ______ ____
ROOT
ATOM      1  C   UNL     1       2.324   7.457  18.698  0.00  0.00    +0.000 C 
ATOM      2  O   UNL     1       2.189   7.531  19.922  0.00  0.00    +0.000 OA
ATOM      3  N   UNL     1       2.001   8.460  17.807  0.00  0.00    +0.000 N 
ATOM      4  H   UNL     1       2.071   8.234  16.814  0.00  0.00    +0.000 HD
ENDROOT
BRANCH   1   9
ATOM      5  N   UNL     1       4.415   4.732  16.910  0.00  0.00    +0.000 N 
ATOM      6  C   UNL     1       3.536   3.671  17.054  0.00  0.00    +0.000 A 
ATOM      7  C   UNL     1       2.367   3.825  17.682  0.00  0.00    +0.000 A 
ATOM      8  C   UNL     1       2.010   5.105  18.224  0.00  0.00    +0.000 A 
ATOM      9  C   UNL     1       2.814   6.177  18.097  0.00  0.00    +0.000 A 
ATOM     10  C   UNL     1       4.114   6.019  17.372  0.00  0.00    +0.000 A 
ATOM     11  O   UNL     1       4.848   6.994  17.207  0.00  0.00    +0.000 OA
BRANCH   5  12
ATOM     12  C   UNL     1       5.701   4.497  16.257  0.00  0.00    +0.000 C 
BRANCH  12  14
ATOM     13  C   UNL     1       6.315   3.994  13.869  0.00  0.00    +0.000 C 
ATOM     14  C   UNL     1       5.548   4.623  14.770  0.00  0.00    +0.000 C 
ENDBRANCH  12  14
ENDBRANCH   5  12
ENDBRANCH   1   9
BRANCH   3  15
ATOM     15  C   UNL     1       1.435   9.709  18.145  0.00  0.00    +0.000 A 
ATOM     16  C   UNL     1       0.066   9.891  18.370  0.00  0.00    +0.000 A 
ATOM     17  C   UNL     1      -0.461  11.165  18.601  0.00  0.00    +0.000 A 
ATOM     18  C   UNL     1       0.385  12.267  18.619  0.00  0.00    +0.000 A 
ATOM     19 CL   UNL     1      -0.271  13.842  18.837  0.00  0.00    +0.000 Cl
ATOM     20  C   UNL     1       1.758  12.098  18.450  0.00  0.00    +0.000 A 
ATOM     21  C   UNL     1       2.284  10.819  18.229  0.00  0.00    +0.000 A 
ENDBRANCH   3  15
TORSDOF 4
ENDMDL
MODEL 3
REMARK VINA RESULT:      -6.6      2.586      2.919
REMARK  Name = 
REMARK  4 active torsions:
REMARK  status: ('A' for Active; 'I' for Inactive)
REMARK    1  A    between atoms: C_2  and  C_3
REMARK    2  A    between atoms: C_3  and  N_4
REMARK    3  A    between atoms: C_8  and  C_9
REMARK    4  A    between atoms: N_11  and  C_12
REMARK                            x       y       z     vdW  Elec       q    Type
REMARK                         _______ _______ _______ _____ _____    ______ ____
ROOT
ATOM      1  C   UNL     1       2.120   6.434  20.165  0.00  0.00    +0.000 C 
ATOM      2  O   UNL     1       1.245   5.754  20.707  0.00  0.00    +0.000 OA
ATOM      3  N   UNL     1       2.171   7.814  20.183  0.00  0.00    +0.000 N 
ATOM      4  H   UNL     1       2.895   8.254  19.613  0.00  0.00    +0.000 HD
ENDROOT
BRANCH   1   9
ATOM      5  N   UNL     1       4.849   5.545  17.565  0.00  0.00    +0.000 N 
ATOM      6  C   UNL     1       5.167   4.278  18.027  0.00  0.00    +0.000 A 
ATOM      7  C   UNL     1       4.552   3.758  19.093  0.00  0.00    +0.000 A 
ATOM      8  C   UNL     1       3.549   4.520  19.782  0.00  0.00    +0.000 A 
ATOM      9  C   UNL     1       3.184   5.747  19.368  0.00  0.00    +0.000 A 
ATOM     10  C   UNL     1       3.848   6.326  18.157  0.00  0.00    +0.000 A 
ATOM     11  O   UNL     1       3.501   7.429  17.735  0.00  0.00    +0.000 OA
BRANCH   5  12
ATOM     12  C   UNL     1       5.584   6.084  16.424  0.00  0.00    +0.000 C 
BRANCH  12  14
ATOM     13  C   UNL     1       7.485   7.220  17.620  0.00  0.00    +0.000 C 
ATOM     14  C   UNL     1       7.027   6.272  16.790  0.00  0.00    +0.000 C 
ENDBRANCH  12  14
ENDBRANCH   5  12
ENDBRANCH   1   9
BRANCH   3  15
ATOM     15  C   UNL     1       1.220   8.663  20.789  0.00  0.00    +0.000 A 
ATOM     16  C   UNL     1       0.386   9.519  20.061  0.00  0.00    +0.000 A 
ATOM     17  C   UNL     1      -0.467  10.415  20.711  0.00  0.00    +0.000 A 
ATOM     18  C   UNL     1      -0.497  10.453  22.100  0.00  0.00    +0.000 A 
ATOM     19 CL   UNL     1      -1.498  11.601  22.899  0.00  0.00    +0.000 Cl
ATOM     20  C   UNL     1       0.287   9.571  22.841  0.00  0.00    +0.000 A 
ATOM     21  C   UNL     1       1.132   8.667  22.187  0.00  0.00    +0.000 A 
ENDBRANCH   3  15
TORSDOF 4
ENDMDL
MODEL 4
REMARK VINA RESULT:      -6.5      2.121      2.422
REMARK  Name = 
REMARK  4 active torsions:
REMARK  status: ('A' for Active; 'I' for Inactive)
REMARK    1  A    between atoms: C_2  and  C_3
REMARK    2  A    between atoms: C_3  and  N_4
REMARK    3  A    between atoms: C_8  and  C_9
REMARK    4  A    between atoms: N_11  and  C_12
REMARK                            x       y       z     vdW  Elec       q    Type
REMARK                         _______ _______ _______ _____ _____    ______ ____
ROOT
ATOM      1  C   UNL     1       2.221   6.303  19.694  0.00  0.00    +0.000 C 
ATOM      2  O   UNL     1       1.764   5.710  20.675  0.00  0.00    +0.000 OA
ATOM      3  N   UNL     1       2.098   7.659  19.465  0.00  0.00    +0.000 N 
ATOM      4  H   UNL     1       2.438   8.006  18.567  0.00  0.00    +0.000 HD
ENDROOT
BRANCH   1   9
ATOM      5  N   UNL     1       4.569   5.133  16.845  0.00  0.00    +0.000 N 
ATOM      6  C   UNL     1       4.068   3.853  16.679  0.00  0.00    +0.000 A 
ATOM      7  C   UNL     1       3.057   3.404  17.430  0.00  0.00    +0.000 A 
ATOM      8  C   UNL     1       2.480   4.255  18.432  0.00  0.00    +0.000 A 
ATOM      9  C   UNL     1       2.911   5.515  18.626  0.00  0.00    +0.000 A 
ATOM     10  C   UNL     1       4.024   6.034  17.770  0.00  0.00    +0.000 A 
ATOM     11  O   UNL     1       4.408   7.197  17.900  0.00  0.00    +0.000 OA
BRANCH   5  12
ATOM     12  C   UNL     1       5.705   5.557  16.031  0.00  0.00    +0.000 C 
BRANCH  12  14
ATOM     13  C   UNL     1       7.514   4.644  17.524  0.00  0.00    +0.000 C 
ATOM     14  C   UNL     1       6.897   4.699  16.335  0.00  0.00    +0.000 C 
ENDBRANCH  12  14
ENDBRANCH   5  12
ENDBRANCH   1   9
BRANCH   3  15
ATOM     15  C   UNL     1       1.405   8.572  20.289  0.00  0.00    +0.000 A 
ATOM     16  C   UNL     1       1.421   8.505  21.686  0.00  0.00    +0.000 A 
ATOM     17  C   UNL     1       0.637   9.368  22.456  0.00  0.00    +0.000 A 
ATOM     18  C   UNL     1      -0.165  10.314  21.829  0.00  0.00    +0.000 A 
ATOM     19 CL   UNL     1      -1.180  11.331  22.774  0.00  0.00    +0.000 Cl
ATOM     20  C   UNL     1      -0.154  10.431  20.441  0.00  0.00    +0.000 A 
ATOM     21  C   UNL     1       0.642   9.571  19.672  0.00  0.00    +0.000 A 
ENDBRANCH   3  15
TORSDOF 4
ENDMDL
MODEL 5
REMARK VINA RESULT:      -6.5      0.669      1.612
REMARK  Name = 
REMARK  4 active torsions:
REMARK  status: ('A' for Active; 'I' for Inactive)
REMARK    1  A    between atoms: C_2  and  C_3
REMARK    2  A    between atoms: C_3  and  N_4
REMARK    3  A    between atoms: C_8  and  C_9
REMARK    4  A    between atoms: N_11  and  C_12
REMARK                            x       y       z     vdW  Elec       q    Type
REMARK                         _______ _______ _______ _____ _____    ______ ____
ROOT
ATOM      1  C   UNL     1       2.460   7.494  18.589  0.00  0.00    +0.000 C 
ATOM      2  O   UNL     1       2.151   7.442  19.781  0.00  0.00    +0.000 OA
ATOM      3  N   UNL     1       2.201   8.562  17.753  0.00  0.00    +0.000 N 
ATOM      4  H   UNL     1       2.424   8.437  16.764  0.00  0.00    +0.000 HD
ENDROOT
BRANCH   1   9
ATOM      5  N   UNL     1       4.870   5.115  16.710  0.00  0.00    +0.000 N 
ATOM      6  C   UNL     1       4.147   3.942  16.847  0.00  0.00    +0.000 A 
ATOM      7  C   UNL     1       2.980   3.922  17.497  0.00  0.00    +0.000 A 
ATOM      8  C   UNL     1       2.462   5.130  18.072  0.00  0.00    +0.000 A 
ATOM      9  C   UNL     1       3.108   6.305  17.954  0.00  0.00    +0.000 A 
ATOM     10  C   UNL     1       4.404   6.341  17.203  0.00  0.00    +0.000 A 
ATOM     11  O   UNL     1       4.993   7.410  17.047  0.00  0.00    +0.000 OA
BRANCH   5  12
ATOM     12  C   UNL     1       6.163   5.072  16.031  0.00  0.00    +0.000 C 
BRANCH  12  14
ATOM     13  C   UNL     1       7.549   5.090  18.132  0.00  0.00    +0.000 C 
ATOM     14  C   UNL     1       7.209   4.532  16.961  0.00  0.00    +0.000 C 
ENDBRANCH  12  14
ENDBRANCH   5  12
ENDBRANCH   1   9
BRANCH   3  15
ATOM     15  C   UNL     1       1.515   9.742  18.116  0.00  0.00    +0.000 A 
ATOM     16  C   UNL     1       0.127   9.798  18.283  0.00  0.00    +0.000 A 
ATOM     17  C   UNL     1      -0.517  11.011  18.542  0.00  0.00    +0.000 A 
ATOM     18  C   UNL     1       0.229  12.179  18.645  0.00  0.00    +0.000 A 
ATOM     19 CL   UNL     1      -0.569  13.681  18.897  0.00  0.00    +0.000 Cl
ATOM     20  C   UNL     1       1.618  12.134  18.534  0.00  0.00    +0.000 A 
ATOM     21  C   UNL     1       2.261  10.915  18.286  0.00  0.00    +0.000 A 
ENDBRANCH   3  15
TORSDOF 4
ENDMDL
MODEL 6
REMARK VINA RESULT:      -6.4      2.432      2.614
REMARK  Name = 
REMARK  4 active torsions:
REMARK  status: ('A' for Active; 'I' for Inactive)
REMARK    1  A    between atoms: C_2  and  C_3
REMARK    2  A    between atoms: C_3  and  N_4
REMARK    3  A    between atoms: C_8  and  C_9
REMARK    4  A    between atoms: N_11  and  C_12
REMARK                            x       y       z     vdW  Elec       q    Type
REMARK                         _______ _______ _______ _____ _____    ______ ____
ROOT
ATOM      1  C   UNL     1       2.157   6.429  20.090  0.00  0.00    +0.000 C 
ATOM      2  O   UNL     1       1.262   5.744  20.590  0.00  0.00    +0.000 OA
ATOM      3  N   UNL     1       2.224   7.807  20.150  0.00  0.00    +0.000 N 
ATOM      4  H   UNL     1       2.966   8.256  19.612  0.00  0.00    +0.000 HD
ENDROOT
BRANCH   1   9
ATOM      5  N   UNL     1       4.912   5.570  17.507  0.00  0.00    +0.000 N 
ATOM      6  C   UNL     1       5.238   4.305  17.969  0.00  0.00    +0.000 A 
ATOM      7  C   UNL     1       4.621   3.777  19.030  0.00  0.00    +0.000 A 
ATOM      8  C   UNL     1       3.606   4.528  19.713  0.00  0.00    +0.000 A 
ATOM      9  C   UNL     1       3.233   5.753  19.299  0.00  0.00    +0.000 A 
ATOM     10  C   UNL     1       3.900   6.341  18.094  0.00  0.00    +0.000 A 
ATOM     11  O   UNL     1       3.547   7.442  17.672  0.00  0.00    +0.000 OA
BRANCH   5  12
ATOM     12  C   UNL     1       5.651   6.118  16.373  0.00  0.00    +0.000 C 
BRANCH  12  14
ATOM     13  C   UNL     1       6.348   4.613  14.480  0.00  0.00    +0.000 C 
ATOM     14  C   UNL     1       5.401   5.284  15.151  0.00  0.00    +0.000 C 
ENDBRANCH  12  14
ENDBRANCH   5  12
ENDBRANCH   1   9
BRANCH   3  15
ATOM     15  C   UNL     1       1.268   8.649  20.758  0.00  0.00    +0.000 A 
ATOM     16  C   UNL     1       0.411   9.483  20.031  0.00  0.00    +0.000 A 
ATOM     17  C   UNL     1      -0.448  10.374  20.681  0.00  0.00    +0.000 A 
ATOM     18  C   UNL     1      -0.460  10.429  22.069  0.00  0.00    +0.000 A 
ATOM     19 CL   UNL     1      -1.467  11.573  22.867  0.00  0.00    +0.000 Cl
ATOM     20  C   UNL     1       0.348   9.570  22.811  0.00  0.00    +0.000 A 
ATOM     21  C   UNL     1       1.199   8.670  22.157  0.00  0.00    +0.000 A 
ENDBRANCH   3  15
TORSDOF 4
ENDMDL
MODEL 7
REMARK VINA RESULT:      -6.4      2.531      3.328
REMARK  Name = 
REMARK  4 active torsions:
REMARK  status: ('A' for Active; 'I' for Inactive)
REMARK    1  A    between atoms: C_2  and  C_3
REMARK    2  A    between atoms: C_3  and  N_4
REMARK    3  A    between atoms: C_8  and  C_9
REMARK    4  A    between atoms: N_11  and  C_12
REMARK                            x       y       z     vdW  Elec       q    Type
REMARK                         _______ _______ _______ _____ _____    ______ ____
ROOT
ATOM      1  C   UNL     1       2.175   7.765  18.937  0.00  0.00    +0.000 C 
ATOM      2  O   UNL     1       1.782   8.542  18.064  0.00  0.00    +0.000 OA
ATOM      3  N   UNL     1       1.843   7.847  20.275  0.00  0.00    +0.000 N 
ATOM      4  H   UNL     1       2.314   7.198  20.906  0.00  0.00    +0.000 HD
ENDROOT
BRANCH   1   9
ATOM      5  N   UNL     1       4.154   4.443  18.726  0.00  0.00    +0.000 N 
ATOM      6  C   UNL     1       5.008   4.778  17.688  0.00  0.00    +0.000 A 
ATOM      7  C   UNL     1       4.945   5.978  17.103  0.00  0.00    +0.000 A 
ATOM      8  C   UNL     1       3.975   6.939  17.547  0.00  0.00    +0.000 A 
ATOM      9  C   UNL     1       3.133   6.677  18.563  0.00  0.00    +0.000 A 
ATOM     10  C   UNL     1       3.215   5.345  19.242  0.00  0.00    +0.000 A 
ATOM     11  O   UNL     1       2.483   5.098  20.200  0.00  0.00    +0.000 OA
BRANCH   5  12
ATOM     12  C   UNL     1       4.233   3.101  19.298  0.00  0.00    +0.000 C 
BRANCH  12  14
ATOM     13  C   UNL     1       2.392   2.150  17.869  0.00  0.00    +0.000 C 
ATOM     14  C   UNL     1       3.645   2.104  18.343  0.00  0.00    +0.000 C 
ENDBRANCH  12  14
ENDBRANCH   5  12
ENDBRANCH   1   9
BRANCH   3  15
ATOM     15  C   UNL     1       1.036   8.847  20.860  0.00  0.00    +0.000 A 
ATOM     16  C   UNL     1       0.984  10.162  20.386  0.00  0.00    +0.000 A 
ATOM     17  C   UNL     1       0.251  11.142  21.061  0.00  0.00    +0.000 A 
ATOM     18  C   UNL     1      -0.446  10.806  22.215  0.00  0.00    +0.000 A 
ATOM     19 CL   UNL     1      -1.295  12.025  23.083  0.00  0.00    +0.000 Cl
ATOM     20  C   UNL     1      -0.449   9.490  22.673  0.00  0.00    +0.000 A 
ATOM     21  C   UNL     1       0.278   8.508  21.988  0.00  0.00    +0.000 A 
ENDBRANCH   3  15
TORSDOF 4
ENDMDL
MODEL 8
REMARK VINA RESULT:      -6.3      2.021      2.356
REMARK  Name = 
REMARK  4 active torsions:
REMARK  status: ('A' for Active; 'I' for Inactive)
REMARK    1  A    between atoms: C_2  and  C_3
REMARK    2  A    between atoms: C_3  and  N_4
REMARK    3  A    between atoms: C_8  and  C_9
REMARK    4  A    between atoms: N_11  and  C_12
REMARK                            x       y       z     vdW  Elec       q    Type
REMARK                         _______ _______ _______ _____ _____    ______ ____
ROOT
ATOM      1  C   UNL     1       2.224   6.277  19.530  0.00  0.00    +0.000 C 
ATOM      2  O   UNL     1       1.697   5.691  20.479  0.00  0.00    +0.000 OA
ATOM      3  N   UNL     1       2.119   7.631  19.282  0.00  0.00    +0.000 N 
ATOM      4  H   UNL     1       2.523   7.971  18.409  0.00  0.00    +0.000 HD
ENDROOT
BRANCH   1   9
ATOM      5  N   UNL     1       4.735   5.105  16.825  0.00  0.00    +0.000 N 
ATOM      6  C   UNL     1       4.289   3.801  16.682  0.00  0.00    +0.000 A 
ATOM      7  C   UNL     1       3.265   3.339  17.405  0.00  0.00    +0.000 A 
ATOM      8  C   UNL     1       2.613   4.199  18.352  0.00  0.00    +0.000 A 
ATOM      9  C   UNL     1       2.988   5.481  18.519  0.00  0.00    +0.000 A 
ATOM     10  C   UNL     1       4.117   6.014  17.694  0.00  0.00    +0.000 A 
ATOM     11  O   UNL     1       4.452   7.194  17.799  0.00  0.00    +0.000 OA
BRANCH   5  12
ATOM     12  C   UNL     1       5.889   5.544  16.044  0.00  0.00    +0.000 C 
BRANCH  12  14
ATOM     13  C   UNL     1       7.614   4.644  17.641  0.00  0.00    +0.000 C 
ATOM     14  C   UNL     1       7.092   4.726  16.409  0.00  0.00    +0.000 C 
ENDBRANCH  12  14
ENDBRANCH   5  12
ENDBRANCH   1   9
BRANCH   3  15
ATOM     15  C   UNL     1       1.368   8.550  20.048  0.00  0.00    +0.000 A 
ATOM     16  C   UNL     1       0.638   9.600  19.481  0.00  0.00    +0.000 A 
ATOM     17  C   UNL     1      -0.005  10.545  20.286  0.00  0.00    +0.000 A 
ATOM     18  C   UNL     1       0.072  10.437  21.669  0.00  0.00    +0.000 A 
ATOM     19 CL   UNL     1      -0.662  11.637  22.659  0.00  0.00    +0.000 Cl
ATOM     20  C   UNL     1       0.751   9.369  22.251  0.00  0.00    +0.000 A 
ATOM     21  C   UNL     1       1.384   8.417  21.442  0.00  0.00    +0.000 A 
ENDBRANCH   3  15
TORSDOF 4
ENDMDL
MODEL 9
REMARK VINA RESULT:      -6.3      2.037      2.199
REMARK  Name = 
REMARK  4 active torsions:
REMARK  status: ('A' for Active; 'I' for Inactive)
REMARK    1  A    between atoms: C_2  and  C_3
REMARK    2  A    between atoms: C_3  and  N_4
REMARK    3  A    between atoms: C_8  and  C_9
REMARK    4  A    between atoms: N_11  and  C_12
REMARK                            x       y       z     vdW  Elec       q    Type
REMARK                         _______ _______ _______ _____ _____    ______ ____
ROOT
ATOM      1  C   UNL     1       2.133   6.127  19.778  0.00  0.00    +0.000 C 
ATOM      2  O   UNL     1       1.664   5.637  20.808  0.00  0.00    +0.000 OA
ATOM      3  N   UNL     1       2.100   7.469  19.457  0.00  0.00    +0.000 N 
ATOM      4  H   UNL     1       2.438   7.729  18.530  0.00  0.00    +0.000 HD
ENDROOT
BRANCH   1   9
ATOM      5  N   UNL     1       4.468   4.463  17.175  0.00  0.00    +0.000 N 
ATOM      6  C   UNL     1       3.671   3.378  16.849  0.00  0.00    +0.000 A 
ATOM      7  C   UNL     1       2.479   3.198  17.426  0.00  0.00    +0.000 A 
ATOM      8  C   UNL     1       2.013   4.137  18.407  0.00  0.00    +0.000 A 
ATOM      9  C   UNL     1       2.733   5.220  18.750  0.00  0.00    +0.000 A 
ATOM     10  C   UNL     1       4.057   5.443  18.088  0.00  0.00    +0.000 A 
ATOM     11  O   UNL     1       4.716   6.448  18.355  0.00  0.00    +0.000 OA
BRANCH   5  12
ATOM     12  C   UNL     1       5.782   4.586  16.549  0.00  0.00    +0.000 C 
BRANCH  12  14
ATOM     13  C   UNL     1       6.036   4.121  14.088  0.00  0.00    +0.000 C 
ATOM     14  C   UNL     1       5.624   4.908  15.092  0.00  0.00    +0.000 C 
ENDBRANCH  12  14
ENDBRANCH   5  12
ENDBRANCH   1   9
BRANCH   3  15
ATOM     15  C   UNL     1       1.498   8.484  20.232  0.00  0.00    +0.000 A 
ATOM     16  C   UNL     1       1.436   8.445  21.629  0.00  0.00    +0.000 A 
ATOM     17  C   UNL     1       0.740   9.421  22.347  0.00  0.00    +0.000 A 
ATOM     18  C   UNL     1       0.107  10.454  21.666  0.00  0.00    +0.000 A 
ATOM     19 CL   UNL     1      -0.806  11.618  22.544  0.00  0.00    +0.000 Cl
ATOM     20  C   UNL     1       0.202  10.540  20.279  0.00  0.00    +0.000 A 
ATOM     21  C   UNL     1       0.910   9.566  19.564  0.00  0.00    +0.000 A 
ENDBRANCH   3  15
TORSDOF 4
ENDMDL
