MODEL 1
REMARK VINA RESULT:      -8.4      0.000      0.000
REMARK  Name = 
REMARK  6 active torsions:
REMARK  status: ('A' for Active; 'I' for Inactive)
REMARK    1  A    between atoms: C_1  and  O_2
REMARK    2  A    between atoms: O_2  and  C_3
REMARK    3  A    between atoms: C_7  and  C_8
REMARK    4  A    between atoms: C_8  and  N_9
REMARK    5  A    between atoms: C_13  and  C_15
REMARK    6  A    between atoms: C_18  and  C_19
REMARK                            x       y       z     vdW  Elec       q    Type
REMARK                         _______ _______ _______ _____ _____    ______ ____
ROOT
ATOM      1  N   UNL     1       6.024   5.143  16.733  0.00  0.00    +0.000 NA
ATOM      2  C   UNL     1       5.712   6.543  17.067  0.00  0.00    +0.000 C 
ATOM      3  C   UNL     1       4.366   6.764  17.773  0.00  0.00    +0.000 C 
ATOM      4  N   UNL     1       4.031   5.832  18.853  0.00  0.00    +0.000 N 
ATOM      5  C   UNL     1       2.971   6.022  19.771  0.00  0.00    +0.000 C 
ATOM      6  O   UNL     1       2.685   5.191  20.630  0.00  0.00    +0.000 OA
ATOM      7  C   UNL     1       4.537   4.464  18.715  0.00  0.00    +0.000 C 
ATOM      8  C   UNL     1       5.892   4.354  17.980  0.00  0.00    +0.000 C 
ENDROOT
BRANCH   5   9
ATOM      9  C   UNL     1       2.154   7.279  19.733  0.00  0.00    +0.000 A 
ATOM     10  C   UNL     1       2.026   8.040  18.574  0.00  0.00    +0.000 A 
ATOM     11  C   UNL     1       1.421   9.297  18.602  0.00  0.00    +0.000 A 
ATOM     12  C   UNL     1       0.780   9.778  19.751  0.00  0.00    +0.000 A 
ATOM     13  C   UNL     1       0.764   8.917  20.868  0.00  0.00    +0.000 A 
ATOM     14  C   UNL     1       1.460   7.694  20.871  0.00  0.00    +0.000 A 
BRANCH  12  15
ATOM     15  C   UNL     1       0.155  11.127  19.765  0.00  0.00    +0.000 A 
ATOM     16  C   UNL     1      -0.512  11.621  20.904  0.00  0.00    +0.000 A 
ATOM     17  C   UNL     1      -1.132  12.878  20.912  0.00  0.00    +0.000 A 
ATOM     18  C   UNL     1      -1.080  13.681  19.777  0.00  0.00    +0.000 A 
ATOM     19  C   UNL     1      -0.429  13.223  18.641  0.00  0.00    +0.000 A 
ATOM     20  C   UNL     1       0.173  11.959  18.632  0.00  0.00    +0.000 A 
ENDBRANCH  12  15
ENDBRANCH   5   9
BRANCH   1  21
ATOM     21  C   UNL     1       5.200   4.589  15.638  0.00  0.00    +0.000 C 
BRANCH  21  26
ATOM     22  C   UNL     1       6.054   3.212  12.151  0.00  0.00    +0.000 A 
ATOM     23  C   UNL     1       7.218   3.910  11.841  0.00  0.00    +0.000 A 
ATOM     24  C   UNL     1       7.722   4.854  12.741  0.00  0.00    +0.000 A 
ATOM     25  C   UNL     1       7.072   5.097  13.954  0.00  0.00    +0.000 A 
ATOM     26  C   UNL     1       5.895   4.417  14.289  0.00  0.00    +0.000 A 
ATOM     27  C   UNL     1       5.409   3.459  13.376  0.00  0.00    +0.000 A 
BRANCH  22  29
ATOM     28  C   UNL     1       6.265   1.100  11.082  0.00  0.00    +0.000 C 
ATOM     29  O   UNL     1       5.475   2.253  11.365  0.00  0.00    +0.000 OA
ENDBRANCH  22  29
ENDBRANCH  21  26
ENDBRANCH   1  21
TORSDOF 5
ENDMDL
MODEL 2
REMARK VINA RESULT:      -8.4      2.711      9.992
REMARK  Name = 
REMARK  6 active torsions:
REMARK  status: ('A' for Active; 'I' for Inactive)
REMARK    1  A    between atoms: C_1  and  O_2
REMARK    2  A    between atoms: O_2  and  C_3
REMARK    3  A    between atoms: C_7  and  C_8
REMARK    4  A    between atoms: C_8  and  N_9
REMARK    5  A    between atoms: C_13  and  C_15
REMARK    6  A    between atoms: C_18  and  C_19
REMARK                            x       y       z     vdW  Elec       q    Type
REMARK                         _______ _______ _______ _____ _____    ______ ____
ROOT
ATOM      1  N   UNL     1       0.762  10.028  19.144  0.00  0.00    +0.000 NA
ATOM      2  C   UNL     1       0.998   9.295  17.889  0.00  0.00    +0.000 C 
ATOM      3  C   UNL     1       2.155   8.287  17.927  0.00  0.00    +0.000 C 
ATOM      4  N   UNL     1       2.240   7.428  19.112  0.00  0.00    +0.000 N 
ATOM      5  C   UNL     1       3.072   6.289  19.215  0.00  0.00    +0.000 C 
ATOM      6  O   UNL     1       3.157   5.626  20.246  0.00  0.00    +0.000 OA
ATOM      7  C   UNL     1       1.771   8.010  20.373  0.00  0.00    +0.000 C 
ATOM      8  C   UNL     1       0.612   9.021  20.220  0.00  0.00    +0.000 C 
ENDROOT
BRANCH   5   9
ATOM      9  C   UNL     1       3.882   5.836  18.038  0.00  0.00    +0.000 A 
ATOM     10  C   UNL     1       4.805   6.670  17.413  0.00  0.00    +0.000 A 
ATOM     11  C   UNL     1       5.411   6.300  16.212  0.00  0.00    +0.000 A 
ATOM     12  C   UNL     1       5.243   5.021  15.667  0.00  0.00    +0.000 A 
ATOM     13  C   UNL     1       4.444   4.125  16.407  0.00  0.00    +0.000 A 
ATOM     14  C   UNL     1       3.752   4.528  17.564  0.00  0.00    +0.000 A 
BRANCH  12  15
ATOM     15  C   UNL     1       5.885   4.652  14.379  0.00  0.00    +0.000 A 
ATOM     16  C   UNL     1       5.294   3.726  13.496  0.00  0.00    +0.000 A 
ATOM     17  C   UNL     1       5.910   3.349  12.295  0.00  0.00    +0.000 A 
ATOM     18  C   UNL     1       7.133   3.910  11.941  0.00  0.00    +0.000 A 
ATOM     19  C   UNL     1       7.739   4.826  12.788  0.00  0.00    +0.000 A 
ATOM     20  C   UNL     1       7.128   5.186  13.995  0.00  0.00    +0.000 A 
ENDBRANCH  12  15
ENDBRANCH   5   9
BRANCH   1  21
ATOM     21  C   UNL     1       1.805  11.026  19.463  0.00  0.00    +0.000 C 
BRANCH  21  26
ATOM     22  C   UNL     1       2.229  14.805  18.894  0.00  0.00    +0.000 A 
ATOM     23  C   UNL     1       0.908  15.229  18.769  0.00  0.00    +0.000 A 
ATOM     24  C   UNL     1      -0.130  14.295  18.837  0.00  0.00    +0.000 A 
ATOM     25  C   UNL     1       0.145  12.940  19.039  0.00  0.00    +0.000 A 
ATOM     26  C   UNL     1       1.463  12.483  19.158  0.00  0.00    +0.000 A 
ATOM     27  C   UNL     1       2.496  13.440  19.100  0.00  0.00    +0.000 A 
BRANCH  22  29
ATOM     28  C   UNL     1       4.274  15.376  17.826  0.00  0.00    +0.000 C 
ATOM     29  O   UNL     1       3.327  15.621  18.864  0.00  0.00    +0.000 OA
ENDBRANCH  22  29
ENDBRANCH  21  26
ENDBRANCH   1  21
TORSDOF 5
ENDMDL
MODEL 3
REMARK VINA RESULT:      -8.3      0.676      1.119
REMARK  Name = 
REMARK  6 active torsions:
REMARK  status: ('A' for Active; 'I' for Inactive)
REMARK    1  A    between atoms: C_1  and  O_2
REMARK    2  A    between atoms: O_2  and  C_3
REMARK    3  A    between atoms: C_7  and  C_8
REMARK    4  A    between atoms: C_8  and  N_9
REMARK    5  A    between atoms: C_13  and  C_15
REMARK    6  A    between atoms: C_18  and  C_19
REMARK                            x       y       z     vdW  Elec       q    Type
REMARK                         _______ _______ _______ _____ _____    ______ ____
ROOT
ATOM      1  N   UNL     1       5.989   5.294  16.586  0.00  0.00    +0.000 NA
ATOM      2  C   UNL     1       5.691   6.673  17.007  0.00  0.00    +0.000 C 
ATOM      3  C   UNL     1       4.361   6.857  17.752  0.00  0.00    +0.000 C 
ATOM      4  N   UNL     1       4.044   5.866  18.785  0.00  0.00    +0.000 N 
ATOM      5  C   UNL     1       3.005   6.007  19.733  0.00  0.00    +0.000 C 
ATOM      6  O   UNL     1       2.733   5.129  20.549  0.00  0.00    +0.000 OA
ATOM      7  C   UNL     1       4.542   4.507  18.557  0.00  0.00    +0.000 C 
ATOM      8  C   UNL     1       5.880   4.435  17.788  0.00  0.00    +0.000 C 
ENDROOT
BRANCH   5   9
ATOM      9  C   UNL     1       2.194   7.266  19.785  0.00  0.00    +0.000 A 
ATOM     10  C   UNL     1       1.577   7.698  20.957  0.00  0.00    +0.000 A 
ATOM     11  C   UNL     1       0.678   8.764  20.946  0.00  0.00    +0.000 A 
ATOM     12  C   UNL     1       0.475   9.543  19.799  0.00  0.00    +0.000 A 
ATOM     13  C   UNL     1       1.242   9.201  18.666  0.00  0.00    +0.000 A 
ATOM     14  C   UNL     1       2.073   8.066  18.647  0.00  0.00    +0.000 A 
BRANCH  12  15
ATOM     15  C   UNL     1      -0.500  10.665  19.803  0.00  0.00    +0.000 A 
ATOM     16  C   UNL     1      -0.553  11.595  20.860  0.00  0.00    +0.000 A 
ATOM     17  C   UNL     1      -1.492  12.635  20.885  0.00  0.00    +0.000 A 
ATOM     18  C   UNL     1      -2.393  12.777  19.834  0.00  0.00    +0.000 A 
ATOM     19  C   UNL     1      -2.364  11.878  18.779  0.00  0.00    +0.000 A 
ATOM     20  C   UNL     1      -1.436  10.830  18.767  0.00  0.00    +0.000 A 
ENDBRANCH  12  15
ENDBRANCH   5   9
BRANCH   1  21
ATOM     21  C   UNL     1       5.140   4.806  15.478  0.00  0.00    +0.000 C 
BRANCH  21  26
ATOM     22  C   UNL     1       6.029   3.122  12.139  0.00  0.00    +0.000 A 
ATOM     23  C   UNL     1       7.203   3.783  11.784  0.00  0.00    +0.000 A 
ATOM     24  C   UNL     1       7.702   4.799  12.605  0.00  0.00    +0.000 A 
ATOM     25  C   UNL     1       7.038   5.152  13.782  0.00  0.00    +0.000 A 
ATOM     26  C   UNL     1       5.852   4.512  14.160  0.00  0.00    +0.000 A 
ATOM     27  C   UNL     1       5.370   3.481  13.328  0.00  0.00    +0.000 A 
BRANCH  22  29
ATOM     28  C   UNL     1       6.323   1.059  10.997  0.00  0.00    +0.000 C 
ATOM     29  O   UNL     1       5.453   2.102  11.432  0.00  0.00    +0.000 OA
ENDBRANCH  22  29
ENDBRANCH  21  26
ENDBRANCH   1  21
TORSDOF 5
ENDMDL
MODEL 4
REMARK VINA RESULT:      -8.1      2.449     10.257
REMARK  Name = 
REMARK  6 active torsions:
REMARK  status: ('A' for Active; 'I' for Inactive)
REMARK    1  A    between atoms: C_1  and  O_2
REMARK    2  A    between atoms: O_2  and  C_3
REMARK    3  A    between atoms: C_7  and  C_8
REMARK    4  A    between atoms: C_8  and  N_9
REMARK    5  A    between atoms: C_13  and  C_15
REMARK    6  A    between atoms: C_18  and  C_19
REMARK                            x       y       z     vdW  Elec       q    Type
REMARK                         _______ _______ _______ _____ _____    ______ ____
ROOT
ATOM      1  N   UNL     1       0.710  10.087  19.056  0.00  0.00    +0.000 NA
ATOM      2  C   UNL     1       0.947   9.316  17.824  0.00  0.00    +0.000 C 
ATOM      3  C   UNL     1       2.120   8.326  17.886  0.00  0.00    +0.000 C 
ATOM      4  N   UNL     1       2.226   7.510  19.098  0.00  0.00    +0.000 N 
ATOM      5  C   UNL     1       3.076   6.386  19.231  0.00  0.00    +0.000 C 
ATOM      6  O   UNL     1       3.180   5.759  20.283  0.00  0.00    +0.000 OA
ATOM      7  C   UNL     1       1.758   8.126  20.342  0.00  0.00    +0.000 C 
ATOM      8  C   UNL     1       0.584   9.114  20.166  0.00  0.00    +0.000 C 
ENDROOT
BRANCH   5   9
ATOM      9  C   UNL     1       3.883   5.906  18.064  0.00  0.00    +0.000 A 
ATOM     10  C   UNL     1       4.808   6.724  17.420  0.00  0.00    +0.000 A 
ATOM     11  C   UNL     1       5.412   6.328  16.227  0.00  0.00    +0.000 A 
ATOM     12  C   UNL     1       5.239   5.038  15.709  0.00  0.00    +0.000 A 
ATOM     13  C   UNL     1       4.439   4.159  16.469  0.00  0.00    +0.000 A 
ATOM     14  C   UNL     1       3.750   4.589  17.617  0.00  0.00    +0.000 A 
BRANCH  12  15
ATOM     15  C   UNL     1       5.879   4.640  14.428  0.00  0.00    +0.000 A 
ATOM     16  C   UNL     1       7.120   5.169  14.024  0.00  0.00    +0.000 A 
ATOM     17  C   UNL     1       7.712   4.823  12.801  0.00  0.00    +0.000 A 
ATOM     18  C   UNL     1       7.076   3.917  11.959  0.00  0.00    +0.000 A 
ATOM     19  C   UNL     1       5.853   3.377  12.329  0.00  0.00    +0.000 A 
ATOM     20  C   UNL     1       5.258   3.740  13.543  0.00  0.00    +0.000 A 
ENDBRANCH  12  15
ENDBRANCH   5   9
BRANCH   1  21
ATOM     21  C   UNL     1       1.741  11.110  19.333  0.00  0.00    +0.000 C 
BRANCH  21  26
ATOM     22  C   UNL     1      -0.560  14.151  19.824  0.00  0.00    +0.000 A 
ATOM     23  C   UNL     1       0.226  15.191  19.333  0.00  0.00    +0.000 A 
ATOM     24  C   UNL     1       1.517  14.925  18.865  0.00  0.00    +0.000 A 
ATOM     25  C   UNL     1       2.023  13.623  18.880  0.00  0.00    +0.000 A 
ATOM     26  C   UNL     1       1.260  12.559  19.376  0.00  0.00    +0.000 A 
ATOM     27  C   UNL     1      -0.044  12.843  19.830  0.00  0.00    +0.000 A 
BRANCH  22  29
ATOM     28  C   UNL     1      -2.239  13.373  21.313  0.00  0.00    +0.000 C 
ATOM     29  O   UNL     1      -1.840  14.280  20.289  0.00  0.00    +0.000 OA
ENDBRANCH  22  29
ENDBRANCH  21  26
ENDBRANCH   1  21
TORSDOF 5
ENDMDL
MODEL 5
REMARK VINA RESULT:      -8.1      2.596     10.419
REMARK  Name = 
REMARK  6 active torsions:
REMARK  status: ('A' for Active; 'I' for Inactive)
REMARK    1  A    between atoms: C_1  and  O_2
REMARK    2  A    between atoms: O_2  and  C_3
REMARK    3  A    between atoms: C_7  and  C_8
REMARK    4  A    between atoms: C_8  and  N_9
REMARK    5  A    between atoms: C_13  and  C_15
REMARK    6  A    between atoms: C_18  and  C_19
REMARK                            x       y       z     vdW  Elec       q    Type
REMARK                         _______ _______ _______ _____ _____    ______ ____
ROOT
ATOM      1  N   UNL     1       0.727  10.071  19.037  0.00  0.00    +0.000 NA
ATOM      2  C   UNL     1       0.973   9.316  17.797  0.00  0.00    +0.000 C 
ATOM      3  C   UNL     1       2.130   8.308  17.863  0.00  0.00    +0.000 C 
ATOM      4  N   UNL     1       2.205   7.471  19.063  0.00  0.00    +0.000 N 
ATOM      5  C   UNL     1       3.037   6.334  19.193  0.00  0.00    +0.000 C 
ATOM      6  O   UNL     1       3.114   5.689  20.236  0.00  0.00    +0.000 OA
ATOM      7  C   UNL     1       1.726   8.075  20.309  0.00  0.00    +0.000 C 
ATOM      8  C   UNL     1       0.569   9.083  20.130  0.00  0.00    +0.000 C 
ENDROOT
BRANCH   5   9
ATOM      9  C   UNL     1       3.855   5.860  18.031  0.00  0.00    +0.000 A 
ATOM     10  C   UNL     1       4.900   6.617  17.506  0.00  0.00    +0.000 A 
ATOM     11  C   UNL     1       5.527   6.251  16.316  0.00  0.00    +0.000 A 
ATOM     12  C   UNL     1       5.248   5.033  15.682  0.00  0.00    +0.000 A 
ATOM     13  C   UNL     1       4.313   4.193  16.323  0.00  0.00    +0.000 A 
ATOM     14  C   UNL     1       3.607   4.606  17.467  0.00  0.00    +0.000 A 
BRANCH  12  15
ATOM     15  C   UNL     1       5.916   4.668  14.405  0.00  0.00    +0.000 A 
ATOM     16  C   UNL     1       5.377   3.695  13.540  0.00  0.00    +0.000 A 
ATOM     17  C   UNL     1       6.019   3.323  12.351  0.00  0.00    +0.000 A 
ATOM     18  C   UNL     1       7.215   3.936  11.992  0.00  0.00    +0.000 A 
ATOM     19  C   UNL     1       7.770   4.900  12.822  0.00  0.00    +0.000 A 
ATOM     20  C   UNL     1       7.133   5.255  14.017  0.00  0.00    +0.000 A 
ENDBRANCH  12  15
ENDBRANCH   5   9
BRANCH   1  21
ATOM     21  C   UNL     1       1.768  11.075  19.346  0.00  0.00    +0.000 C 
BRANCH  21  26
ATOM     22  C   UNL     1       1.228  14.373  21.246  0.00  0.00    +0.000 A 
ATOM     23  C   UNL     1       0.281  15.014  20.451  0.00  0.00    +0.000 A 
ATOM     24  C   UNL     1      -0.170  14.400  19.278  0.00  0.00    +0.000 A 
ATOM     25  C   UNL     1       0.315  13.146  18.901  0.00  0.00    +0.000 A 
ATOM     26  C   UNL     1       1.274  12.482  19.675  0.00  0.00    +0.000 A 
ATOM     27  C   UNL     1       1.707  13.109  20.861  0.00  0.00    +0.000 A 
BRANCH  22  29
ATOM     28  C   UNL     1       2.974  15.555  22.342  0.00  0.00    +0.000 C 
ATOM     29  O   UNL     1       1.732  14.859  22.422  0.00  0.00    +0.000 OA
ENDBRANCH  22  29
ENDBRANCH  21  26
ENDBRANCH   1  21
TORSDOF 5
ENDMDL
MODEL 6
REMARK VINA RESULT:      -8.1      0.901      1.280
REMARK  Name = 
REMARK  6 active torsions:
REMARK  status: ('A' for Active; 'I' for Inactive)
REMARK    1  A    between atoms: C_1  and  O_2
REMARK    2  A    between atoms: O_2  and  C_3
REMARK    3  A    between atoms: C_7  and  C_8
REMARK    4  A    between atoms: C_8  and  N_9
REMARK    5  A    between atoms: C_13  and  C_15
REMARK    6  A    between atoms: C_18  and  C_19
REMARK                            x       y       z     vdW  Elec       q    Type
REMARK                         _______ _______ _______ _____ _____    ______ ____
ROOT
ATOM      1  N   UNL     1       5.552   4.441  17.477  0.00  0.00    +0.000 NA
ATOM      2  C   UNL     1       5.562   5.860  17.870  0.00  0.00    +0.000 C 
ATOM      3  C   UNL     1       4.218   6.412  18.365  0.00  0.00    +0.000 C 
ATOM      4  N   UNL     1       3.464   5.569  19.297  0.00  0.00    +0.000 N 
ATOM      5  C   UNL     1       2.345   6.007  20.043  0.00  0.00    +0.000 C 
ATOM      6  O   UNL     1       1.704   5.254  20.773  0.00  0.00    +0.000 OA
ATOM      7  C   UNL     1       3.612   4.121  19.130  0.00  0.00    +0.000 C 
ATOM      8  C   UNL     1       4.999   3.673  18.617  0.00  0.00    +0.000 C 
ENDROOT
BRANCH   5   9
ATOM      9  C   UNL     1       1.905   7.438  19.977  0.00  0.00    +0.000 A 
ATOM     10  C   UNL     1       1.452   8.123  21.102  0.00  0.00    +0.000 A 
ATOM     11  C   UNL     1       0.874   9.387  20.990  0.00  0.00    +0.000 A 
ATOM     12  C   UNL     1       0.866  10.087  19.777  0.00  0.00    +0.000 A 
ATOM     13  C   UNL     1       1.489   9.451  18.682  0.00  0.00    +0.000 A 
ATOM     14  C   UNL     1       1.981   8.137  18.770  0.00  0.00    +0.000 A 
BRANCH  12  15
ATOM     15  C   UNL     1       0.230  11.427  19.674  0.00  0.00    +0.000 A 
ATOM     16  C   UNL     1      -1.000  11.712  20.299  0.00  0.00    +0.000 A 
ATOM     17  C   UNL     1      -1.620  12.963  20.179  0.00  0.00    +0.000 A 
ATOM     18  C   UNL     1      -1.007  13.969  19.439  0.00  0.00    +0.000 A 
ATOM     19  C   UNL     1       0.206  13.719  18.813  0.00  0.00    +0.000 A 
ATOM     20  C   UNL     1       0.812  12.462  18.922  0.00  0.00    +0.000 A 
ENDBRANCH  12  15
ENDBRANCH   5   9
BRANCH   1  21
ATOM     21  C   UNL     1       4.821   4.170  16.221  0.00  0.00    +0.000 C 
BRANCH  21  26
ATOM     22  C   UNL     1       5.961   3.543  12.604  0.00  0.00    +0.000 A 
ATOM     23  C   UNL     1       7.164   4.243  12.553  0.00  0.00    +0.000 A 
ATOM     24  C   UNL     1       7.603   4.949  13.678  0.00  0.00    +0.000 A 
ATOM     25  C   UNL     1       6.850   4.951  14.854  0.00  0.00    +0.000 A 
ATOM     26  C   UNL     1       5.633   4.264  14.932  0.00  0.00    +0.000 A 
ATOM     27  C   UNL     1       5.212   3.547  13.794  0.00  0.00    +0.000 A 
BRANCH  22  29
ATOM     28  C   UNL     1       4.104   3.119  11.183  0.00  0.00    +0.000 C 
ATOM     29  O   UNL     1       5.436   2.800  11.581  0.00  0.00    +0.000 OA
ENDBRANCH  22  29
ENDBRANCH  21  26
ENDBRANCH   1  21
TORSDOF 5
ENDMDL
MODEL 7
REMARK VINA RESULT:      -8.0      4.183     10.333
REMARK  Name = 
REMARK  6 active torsions:
REMARK  status: ('A' for Active; 'I' for Inactive)
REMARK    1  A    between atoms: C_1  and  O_2
REMARK    2  A    between atoms: O_2  and  C_3
REMARK    3  A    between atoms: C_7  and  C_8
REMARK    4  A    between atoms: C_8  and  N_9
REMARK    5  A    between atoms: C_13  and  C_15
REMARK    6  A    between atoms: C_18  and  C_19
REMARK                            x       y       z     vdW  Elec       q    Type
REMARK                         _______ _______ _______ _____ _____    ______ ____
ROOT
ATOM      1  N   UNL     1      -0.673  13.887  19.748  0.00  0.00    +0.000 NA
ATOM      2  C   UNL     1      -0.323  12.881  18.731  0.00  0.00    +0.000 C 
ATOM      3  C   UNL     1       0.349  11.611  19.271  0.00  0.00    +0.000 C 
ATOM      4  N   UNL     1      -0.236  11.020  20.477  0.00  0.00    +0.000 N 
ATOM      5  C   UNL     1       0.082   9.733  20.971  0.00  0.00    +0.000 C 
ATOM      6  O   UNL     1      -0.388   9.293  22.018  0.00  0.00    +0.000 OA
ATOM      7  C   UNL     1      -0.847  11.952  21.429  0.00  0.00    +0.000 C 
ATOM      8  C   UNL     1      -1.484  13.202  20.782  0.00  0.00    +0.000 C 
ENDROOT
BRANCH   5   9
ATOM      9  C   UNL     1       1.013   8.839  20.209  0.00  0.00    +0.000 A 
ATOM     10  C   UNL     1       1.481   9.173  18.940  0.00  0.00    +0.000 A 
ATOM     11  C   UNL     1       2.192   8.252  18.171  0.00  0.00    +0.000 A 
ATOM     12  C   UNL     1       2.601   7.018  18.693  0.00  0.00    +0.000 A 
ATOM     13  C   UNL     1       2.271   6.768  20.041  0.00  0.00    +0.000 A 
ATOM     14  C   UNL     1       1.469   7.652  20.785  0.00  0.00    +0.000 A 
BRANCH  12  15
ATOM     15  C   UNL     1       3.344   6.044  17.851  0.00  0.00    +0.000 A 
ATOM     16  C   UNL     1       2.991   4.681  17.810  0.00  0.00    +0.000 A 
ATOM     17  C   UNL     1       3.708   3.751  17.045  0.00  0.00    +0.000 A 
ATOM     18  C   UNL     1       4.792   4.175  16.283  0.00  0.00    +0.000 A 
ATOM     19  C   UNL     1       5.164   5.511  16.301  0.00  0.00    +0.000 A 
ATOM     20  C   UNL     1       4.455   6.432  17.082  0.00  0.00    +0.000 A 
ENDBRANCH  12  15
ENDBRANCH   5   9
BRANCH   1  21
ATOM     21  C   UNL     1       0.493  14.584  20.332  0.00  0.00    +0.000 C 
BRANCH  21  26
ATOM     22  C   UNL     1       1.838  17.278  17.942  0.00  0.00    +0.000 A 
ATOM     23  C   UNL     1       2.958  16.652  17.400  0.00  0.00    +0.000 A 
ATOM     24  C   UNL     1       3.306  15.365  17.822  0.00  0.00    +0.000 A 
ATOM     25  C   UNL     1       2.535  14.699  18.778  0.00  0.00    +0.000 A 
ATOM     26  C   UNL     1       1.410  15.306  19.348  0.00  0.00    +0.000 A 
ATOM     27  C   UNL     1       1.066  16.598  18.900  0.00  0.00    +0.000 A 
BRANCH  22  29
ATOM     28  C   UNL     1       0.715  18.631  16.344  0.00  0.00    +0.000 C 
ATOM     29  O   UNL     1       1.385  18.523  17.598  0.00  0.00    +0.000 OA
ENDBRANCH  22  29
ENDBRANCH  21  26
ENDBRANCH   1  21
TORSDOF 5
ENDMDL
MODEL 8
REMARK VINA RESULT:      -8.0      3.997     10.468
REMARK  Name = 
REMARK  6 active torsions:
REMARK  status: ('A' for Active; 'I' for Inactive)
REMARK    1  A    between atoms: C_1  and  O_2
REMARK    2  A    between atoms: O_2  and  C_3
REMARK    3  A    between atoms: C_7  and  C_8
REMARK    4  A    between atoms: C_8  and  N_9
REMARK    5  A    between atoms: C_13  and  C_15
REMARK    6  A    between atoms: C_18  and  C_19
REMARK                            x       y       z     vdW  Elec       q    Type
REMARK                         _______ _______ _______ _____ _____    ______ ____
ROOT
ATOM      1  N   UNL     1      -0.840  13.500  19.760  0.00  0.00    +0.000 NA
ATOM      2  C   UNL     1      -0.715  12.424  18.762  0.00  0.00    +0.000 C 
ATOM      3  C   UNL     1       0.161  11.236  19.186  0.00  0.00    +0.000 C 
ATOM      4  N   UNL     1      -0.033  10.729  20.547  0.00  0.00    +0.000 N 
ATOM      5  C   UNL     1       0.492   9.506  21.026  0.00  0.00    +0.000 C 
ATOM      6  O   UNL     1       0.356   9.141  22.191  0.00  0.00    +0.000 OA
ATOM      7  C   UNL     1      -0.420  11.715  21.560  0.00  0.00    +0.000 C 
ATOM      8  C   UNL     1      -1.290  12.875  21.026  0.00  0.00    +0.000 C 
ENDROOT
BRANCH   5   9
ATOM      9  C   UNL     1       1.236   8.590  20.103  0.00  0.00    +0.000 A 
ATOM     10  C   UNL     1       1.650   7.320  20.499  0.00  0.00    +0.000 A 
ATOM     11  C   UNL     1       2.497   6.557  19.696  0.00  0.00    +0.000 A 
ATOM     12  C   UNL     1       2.840   6.958  18.399  0.00  0.00    +0.000 A 
ATOM     13  C   UNL     1       2.268   8.164  17.944  0.00  0.00    +0.000 A 
ATOM     14  C   UNL     1       1.496   8.984  18.788  0.00  0.00    +0.000 A 
BRANCH  12  15
ATOM     15  C   UNL     1       3.758   6.138  17.566  0.00  0.00    +0.000 A 
ATOM     16  C   UNL     1       4.800   6.722  16.819  0.00  0.00    +0.000 A 
ATOM     17  C   UNL     1       5.647   5.957  16.005  0.00  0.00    +0.000 A 
ATOM     18  C   UNL     1       5.479   4.578  15.937  0.00  0.00    +0.000 A 
ATOM     19  C   UNL     1       4.463   3.974  16.663  0.00  0.00    +0.000 A 
ATOM     20  C   UNL     1       3.608   4.744  17.460  0.00  0.00    +0.000 A 
ENDBRANCH  12  15
ENDBRANCH   5   9
BRANCH   1  21
ATOM     21  C   UNL     1       0.393  14.295  19.944  0.00  0.00    +0.000 C 
BRANCH  21  26
ATOM     22  C   UNL     1       2.066  17.106  17.925  0.00  0.00    +0.000 A 
ATOM     23  C   UNL     1       0.967  17.836  17.479  0.00  0.00    +0.000 A 
ATOM     24  C   UNL     1      -0.326  17.412  17.802  0.00  0.00    +0.000 A 
ATOM     25  C   UNL     1      -0.524  16.265  18.575  0.00  0.00    +0.000 A 
ATOM     26  C   UNL     1       0.560  15.505  19.028  0.00  0.00    +0.000 A 
ATOM     27  C   UNL     1       1.856  15.955  18.705  0.00  0.00    +0.000 A 
BRANCH  22  29
ATOM     28  C   UNL     1       4.350  16.484  18.130  0.00  0.00    +0.000 C 
ATOM     29  O   UNL     1       3.375  17.428  17.693  0.00  0.00    +0.000 OA
ENDBRANCH  22  29
ENDBRANCH  21  26
ENDBRANCH   1  21
TORSDOF 5
ENDMDL
MODEL 9
REMARK VINA RESULT:      -8.0      1.476      2.243
REMARK  Name = 
REMARK  6 active torsions:
REMARK  status: ('A' for Active; 'I' for Inactive)
REMARK    1  A    between atoms: C_1  and  O_2
REMARK    2  A    between atoms: O_2  and  C_3
REMARK    3  A    between atoms: C_7  and  C_8
REMARK    4  A    between atoms: C_8  and  N_9
REMARK    5  A    between atoms: C_13  and  C_15
REMARK    6  A    between atoms: C_18  and  C_19
REMARK                            x       y       z     vdW  Elec       q    Type
REMARK                         _______ _______ _______ _____ _____    ______ ____
ROOT
ATOM      1  N   UNL     1       6.528   4.687  15.715  0.00  0.00    +0.000 NA
ATOM      2  C   UNL     1       6.447   5.630  16.842  0.00  0.00    +0.000 C 
ATOM      3  C   UNL     1       5.029   5.924  17.352  0.00  0.00    +0.000 C 
ATOM      4  N   UNL     1       4.137   4.772  17.510  0.00  0.00    +0.000 N 
ATOM      5  C   UNL     1       2.898   4.809  18.192  0.00  0.00    +0.000 C 
ATOM      6  O   UNL     1       2.151   3.835  18.256  0.00  0.00    +0.000 OA
ATOM      7  C   UNL     1       4.334   3.662  16.573  0.00  0.00    +0.000 C 
ATOM      8  C   UNL     1       5.795   3.462  16.114  0.00  0.00    +0.000 C 
ENDROOT
BRANCH   5   9
ATOM      9  C   UNL     1       2.455   6.060  18.887  0.00  0.00    +0.000 A 
ATOM     10  C   UNL     1       2.193   6.091  20.255  0.00  0.00    +0.000 A 
ATOM     11  C   UNL     1       1.606   7.208  20.849  0.00  0.00    +0.000 A 
ATOM     12  C   UNL     1       1.400   8.397  20.138  0.00  0.00    +0.000 A 
ATOM     13  C   UNL     1       1.836   8.408  18.797  0.00  0.00    +0.000 A 
ATOM     14  C   UNL     1       2.335   7.252  18.169  0.00  0.00    +0.000 A 
BRANCH  12  15
ATOM     15  C   UNL     1       0.758   9.570  20.786  0.00  0.00    +0.000 A 
ATOM     16  C   UNL     1       0.201   9.490  22.078  0.00  0.00    +0.000 A 
ATOM     17  C   UNL     1      -0.435  10.584  22.680  0.00  0.00    +0.000 A 
ATOM     18  C   UNL     1      -0.511  11.797  22.003  0.00  0.00    +0.000 A 
ATOM     19  C   UNL     1       0.030  11.908  20.731  0.00  0.00    +0.000 A 
ATOM     20  C   UNL     1       0.649  10.808  20.126  0.00  0.00    +0.000 A 
ENDBRANCH  12  15
ENDBRANCH   5   9
BRANCH   1  21
ATOM     21  C   UNL     1       6.030   5.235  14.435  0.00  0.00    +0.000 C 
BRANCH  21  26
ATOM     22  C   UNL     1       4.694   3.051  11.568  0.00  0.00    +0.000 A 
ATOM     23  C   UNL     1       5.841   2.374  11.160  0.00  0.00    +0.000 A 
ATOM     24  C   UNL     1       7.063   2.638  11.788  0.00  0.00    +0.000 A 
ATOM     25  C   UNL     1       7.141   3.570  12.826  0.00  0.00    +0.000 A 
ATOM     26  C   UNL     1       6.007   4.272  13.250  0.00  0.00    +0.000 A 
ATOM     27  C   UNL     1       4.782   3.984  12.616  0.00  0.00    +0.000 A 
BRANCH  22  29
ATOM     28  C   UNL     1       3.078   3.705   9.953  0.00  0.00    +0.000 C 
ATOM     29  O   UNL     1       3.442   2.867  11.048  0.00  0.00    +0.000 OA
ENDBRANCH  22  29
ENDBRANCH  21  26
ENDBRANCH   1  21
TORSDOF 5
ENDMDL
