MODEL 1
REMARK VINA RESULT:      -7.8      0.000      0.000
REMARK  Name = 
REMARK  3 active torsions:
REMARK  status: ('A' for Active; 'I' for Inactive)
REMARK    1  A    between atoms: C_4  and  C_5
REMARK    2  A    between atoms: C_8  and  C_9
REMARK    3  A    between atoms: C_12  and  C_13
REMARK                            x       y       z     vdW  Elec       q    Type
REMARK                         _______ _______ _______ _____ _____    ______ ____
ROOT
ATOM      1  C   UNL     1       5.182   5.097  15.542  0.00  0.00    +0.000 A 
ATOM      2  N   UNL     1       5.246   6.409  15.843  0.00  0.00    +0.000 NA
ATOM      3  C   UNL     1       4.530   6.824  16.909  0.00  0.00    +0.000 A 
ATOM      4  C   UNL     1       3.751   5.998  17.696  0.00  0.00    +0.000 A 
ATOM      5  C   UNL     1       3.777   4.672  17.310  0.00  0.00    +0.000 A 
ATOM      6  N   UNL     1       4.473   4.198  16.251  0.00  0.00    +0.000 NA
ENDROOT
BRANCH   1  10
ATOM      7  C   UNL     1       7.227   3.822  11.972  0.00  0.00    +0.000 A 
ATOM      8  C   UNL     1       7.793   4.792  12.794  0.00  0.00    +0.000 A 
ATOM      9  C   UNL     1       7.132   5.191  13.959  0.00  0.00    +0.000 A 
ATOM     10  C   UNL     1       5.890   4.638  14.331  0.00  0.00    +0.000 A 
ATOM     11  C   UNL     1       5.348   3.651  13.486  0.00  0.00    +0.000 A 
ATOM     12  C   UNL     1       6.007   3.249  12.319  0.00  0.00    +0.000 A 
ENDBRANCH   1  10
BRANCH   4  13
ATOM     13  C   UNL     1       2.951   6.522  18.798  0.00  0.00    +0.000 A 
ATOM     14  C   UNL     1       2.523   5.888  19.950  0.00  0.00    +0.000 A 
ATOM     15  N   UNL     1       1.774   6.651  20.821  0.00  0.00    +0.000 NA
ATOM     16  C   UNL     1       1.592   7.858  20.325  0.00  0.00    +0.000 A 
ATOM     17  S   UNL     1       2.365   8.135  18.810  0.00  0.00    +0.000 S 
BRANCH  16  18
ATOM     18  C   UNL     1       0.845   8.917  21.003  0.00  0.00    +0.000 A 
ATOM     19  C   UNL     1       0.068   9.815  20.260  0.00  0.00    +0.000 A 
ATOM     20  C   UNL     1      -0.631  10.836  20.902  0.00  0.00    +0.000 A 
ATOM     21  C   UNL     1      -0.529  10.935  22.278  0.00  0.00    +0.000 A 
ATOM     22  N   UNL     1       0.210  10.098  23.037  0.00  0.00    +0.000 NA
ATOM     23  C   UNL     1       0.881   9.116  22.382  0.00  0.00    +0.000 A 
ENDBRANCH  16  18
ENDBRANCH   4  13
TORSDOF 3
ENDMDL
MODEL 2
REMARK VINA RESULT:      -7.7      2.555      4.753
REMARK  Name = 
REMARK  3 active torsions:
REMARK  status: ('A' for Active; 'I' for Inactive)
REMARK    1  A    between atoms: C_4  and  C_5
REMARK    2  A    between atoms: C_8  and  C_9
REMARK    3  A    between atoms: C_12  and  C_13
REMARK                            x       y       z     vdW  Elec       q    Type
REMARK                         _______ _______ _______ _____ _____    ______ ____
ROOT
ATOM      1  C   UNL     1       2.658   7.029  18.723  0.00  0.00    +0.000 A 
ATOM      2  N   UNL     1       2.375   6.534  19.943  0.00  0.00    +0.000 NA
ATOM      3  C   UNL     1       1.676   7.332  20.777  0.00  0.00    +0.000 A 
ATOM      4  C   UNL     1       1.241   8.603  20.458  0.00  0.00    +0.000 A 
ATOM      5  C   UNL     1       1.567   9.001  19.176  0.00  0.00    +0.000 A 
ATOM      6  N   UNL     1       2.267   8.247  18.297  0.00  0.00    +0.000 NA
ENDROOT
BRANCH   1  10
ATOM      7  C   UNL     1       5.051   4.652  16.045  0.00  0.00    +0.000 A 
ATOM      8  C   UNL     1       5.220   6.032  16.096  0.00  0.00    +0.000 A 
ATOM      9  C   UNL     1       4.451   6.797  16.977  0.00  0.00    +0.000 A 
ATOM     10  C   UNL     1       3.493   6.207  17.826  0.00  0.00    +0.000 A 
ATOM     11  C   UNL     1       3.353   4.808  17.760  0.00  0.00    +0.000 A 
ATOM     12  C   UNL     1       4.121   4.039  16.879  0.00  0.00    +0.000 A 
ENDBRANCH   1  10
BRANCH   4  13
ATOM     13  C   UNL     1       0.542   9.440  21.429  0.00  0.00    +0.000 A 
ATOM     14  C   UNL     1       0.397   9.268  22.792  0.00  0.00    +0.000 A 
ATOM     15  N   UNL     1      -0.325  10.238  23.454  0.00  0.00    +0.000 NA
ATOM     16  C   UNL     1      -0.769  11.136  22.598  0.00  0.00    +0.000 A 
ATOM     17  S   UNL     1      -0.286  10.870  20.966  0.00  0.00    +0.000 S 
BRANCH  16  18
ATOM     18  C   UNL     1      -1.567  12.302  22.977  0.00  0.00    +0.000 A 
ATOM     19  C   UNL     1      -2.906  12.144  23.355  0.00  0.00    +0.000 A 
ATOM     20  C   UNL     1      -3.673  13.256  23.700  0.00  0.00    +0.000 A 
ATOM     21  C   UNL     1      -3.078  14.504  23.648  0.00  0.00    +0.000 A 
ATOM     22  N   UNL     1      -1.794  14.707  23.286  0.00  0.00    +0.000 NA
ATOM     23  C   UNL     1      -1.074  13.605  22.954  0.00  0.00    +0.000 A 
ENDBRANCH  16  18
ENDBRANCH   4  13
TORSDOF 3
ENDMDL
MODEL 3
REMARK VINA RESULT:      -7.7      2.547      4.748
REMARK  Name = 
REMARK  3 active torsions:
REMARK  status: ('A' for Active; 'I' for Inactive)
REMARK    1  A    between atoms: C_4  and  C_5
REMARK    2  A    between atoms: C_8  and  C_9
REMARK    3  A    between atoms: C_12  and  C_13
REMARK                            x       y       z     vdW  Elec       q    Type
REMARK                         _______ _______ _______ _____ _____    ______ ____
ROOT
ATOM      1  C   UNL     1       2.672   7.069  18.703  0.00  0.00    +0.000 A 
ATOM      2  N   UNL     1       2.389   6.565  19.920  0.00  0.00    +0.000 NA
ATOM      3  C   UNL     1       1.686   7.354  20.758  0.00  0.00    +0.000 A 
ATOM      4  C   UNL     1       1.245   8.626  20.448  0.00  0.00    +0.000 A 
ATOM      5  C   UNL     1       1.571   9.033  19.168  0.00  0.00    +0.000 A 
ATOM      6  N   UNL     1       2.275   8.287  18.285  0.00  0.00    +0.000 NA
ENDROOT
BRANCH   1  10
ATOM      7  C   UNL     1       5.078   4.721  16.012  0.00  0.00    +0.000 A 
ATOM      8  C   UNL     1       5.253   6.100  16.085  0.00  0.00    +0.000 A 
ATOM      9  C   UNL     1       4.479   6.855  16.970  0.00  0.00    +0.000 A 
ATOM     10  C   UNL     1       3.511   6.256  17.802  0.00  0.00    +0.000 A 
ATOM     11  C   UNL     1       3.365   4.859  17.715  0.00  0.00    +0.000 A 
ATOM     12  C   UNL     1       4.138   4.100  16.829  0.00  0.00    +0.000 A 
ENDBRANCH   1  10
BRANCH   4  13
ATOM     13  C   UNL     1       0.541   9.452  21.423  0.00  0.00    +0.000 A 
ATOM     14  C   UNL     1       0.430   9.292  22.791  0.00  0.00    +0.000 A 
ATOM     15  N   UNL     1      -0.307  10.249  23.456  0.00  0.00    +0.000 NA
ATOM     16  C   UNL     1      -0.795  11.123  22.600  0.00  0.00    +0.000 A 
ATOM     17  S   UNL     1      -0.338  10.852  20.961  0.00  0.00    +0.000 S 
BRANCH  16  18
ATOM     18  C   UNL     1      -1.619  12.270  22.982  0.00  0.00    +0.000 A 
ATOM     19  C   UNL     1      -1.058  13.553  23.026  0.00  0.00    +0.000 A 
ATOM     20  C   UNL     1      -1.836  14.645  23.406  0.00  0.00    +0.000 A 
ATOM     21  C   UNL     1      -3.159  14.422  23.742  0.00  0.00    +0.000 A 
ATOM     22  N   UNL     1      -3.743  13.206  23.720  0.00  0.00    +0.000 NA
ATOM     23  C   UNL     1      -2.959  12.162  23.348  0.00  0.00    +0.000 A 
ENDBRANCH  16  18
ENDBRANCH   4  13
TORSDOF 3
ENDMDL
MODEL 4
REMARK VINA RESULT:      -7.6      2.592      4.907
REMARK  Name = 
REMARK  3 active torsions:
REMARK  status: ('A' for Active; 'I' for Inactive)
REMARK    1  A    between atoms: C_4  and  C_5
REMARK    2  A    between atoms: C_8  and  C_9
REMARK    3  A    between atoms: C_12  and  C_13
REMARK                            x       y       z     vdW  Elec       q    Type
REMARK                         _______ _______ _______ _____ _____    ______ ____
ROOT
ATOM      1  C   UNL     1       2.614   7.120  18.684  0.00  0.00    +0.000 A 
ATOM      2  N   UNL     1       2.353   6.638  19.915  0.00  0.00    +0.000 NA
ATOM      3  C   UNL     1       1.650   7.436  20.745  0.00  0.00    +0.000 A 
ATOM      4  C   UNL     1       1.189   8.695  20.413  0.00  0.00    +0.000 A 
ATOM      5  C   UNL     1       1.493   9.079  19.122  0.00  0.00    +0.000 A 
ATOM      6  N   UNL     1       2.196   8.324  18.246  0.00  0.00    +0.000 NA
ENDROOT
BRANCH   1  10
ATOM      7  C   UNL     1       5.103   4.698  16.137  0.00  0.00    +0.000 A 
ATOM      8  C   UNL     1       4.114   4.106  16.917  0.00  0.00    +0.000 A 
ATOM      9  C   UNL     1       3.300   4.899  17.730  0.00  0.00    +0.000 A 
ATOM     10  C   UNL     1       3.452   6.299  17.790  0.00  0.00    +0.000 A 
ATOM     11  C   UNL     1       4.453   6.870  16.982  0.00  0.00    +0.000 A 
ATOM     12  C   UNL     1       5.270   6.079  16.166  0.00  0.00    +0.000 A 
ENDBRANCH   1  10
BRANCH   4  13
ATOM     13  C   UNL     1       0.487   9.533  21.380  0.00  0.00    +0.000 A 
ATOM     14  C   UNL     1       0.409   9.411  22.754  0.00  0.00    +0.000 A 
ATOM     15  N   UNL     1      -0.336  10.369  23.408  0.00  0.00    +0.000 NA
ATOM     16  C   UNL     1      -0.865  11.205  22.537  0.00  0.00    +0.000 A 
ATOM     17  S   UNL     1      -0.437  10.897  20.897  0.00  0.00    +0.000 S 
BRANCH  16  18
ATOM     18  C   UNL     1      -1.708  12.343  22.904  0.00  0.00    +0.000 A 
ATOM     19  C   UNL     1      -1.121  13.546  23.317  0.00  0.00    +0.000 A 
ATOM     20  C   UNL     1      -1.922  14.627  23.685  0.00  0.00    +0.000 A 
ATOM     21  C   UNL     1      -3.296  14.470  23.636  0.00  0.00    +0.000 A 
ATOM     22  N   UNL     1      -3.907  13.331  23.250  0.00  0.00    +0.000 NA
ATOM     23  C   UNL     1      -3.100  12.296  22.901  0.00  0.00    +0.000 A 
ENDBRANCH  16  18
ENDBRANCH   4  13
TORSDOF 3
ENDMDL
MODEL 5
REMARK VINA RESULT:      -7.5      0.604      1.417
REMARK  Name = 
REMARK  3 active torsions:
REMARK  status: ('A' for Active; 'I' for Inactive)
REMARK    1  A    between atoms: C_4  and  C_5
REMARK    2  A    between atoms: C_8  and  C_9
REMARK    3  A    between atoms: C_12  and  C_13
REMARK                            x       y       z     vdW  Elec       q    Type
REMARK                         _______ _______ _______ _____ _____    ______ ____
ROOT
ATOM      1  C   UNL     1       5.194   5.158  15.438  0.00  0.00    +0.000 A 
ATOM      2  N   UNL     1       5.178   6.481  15.691  0.00  0.00    +0.000 NA
ATOM      3  C   UNL     1       4.477   6.886  16.770  0.00  0.00    +0.000 A 
ATOM      4  C   UNL     1       3.789   6.039  17.617  0.00  0.00    +0.000 A 
ATOM      5  C   UNL     1       3.891   4.704  17.277  0.00  0.00    +0.000 A 
ATOM      6  N   UNL     1       4.577   4.239  16.207  0.00  0.00    +0.000 NA
ENDROOT
BRANCH   1  10
ATOM      7  C   UNL     1       7.227   3.761  11.908  0.00  0.00    +0.000 A 
ATOM      8  C   UNL     1       5.974   3.254  12.240  0.00  0.00    +0.000 A 
ATOM      9  C   UNL     1       5.313   3.721  13.379  0.00  0.00    +0.000 A 
ATOM     10  C   UNL     1       5.884   4.702  14.216  0.00  0.00    +0.000 A 
ATOM     11  C   UNL     1       7.146   5.204  13.847  0.00  0.00    +0.000 A 
ATOM     12  C   UNL     1       7.811   4.738  12.708  0.00  0.00    +0.000 A 
ENDBRANCH   1  10
BRANCH   4  13
ATOM     13  C   UNL     1       2.998   6.547  18.733  0.00  0.00    +0.000 A 
ATOM     14  C   UNL     1       2.669   5.934  19.927  0.00  0.00    +0.000 A 
ATOM     15  N   UNL     1       1.901   6.675  20.800  0.00  0.00    +0.000 NA
ATOM     16  C   UNL     1       1.606   7.842  20.265  0.00  0.00    +0.000 A 
ATOM     17  S   UNL     1       2.290   8.111  18.707  0.00  0.00    +0.000 S 
BRANCH  16  18
ATOM     18  C   UNL     1       0.808   8.870  20.935  0.00  0.00    +0.000 A 
ATOM     19  C   UNL     1       0.605   8.809  22.319  0.00  0.00    +0.000 A 
ATOM     20  C   UNL     1      -0.169   9.777  22.958  0.00  0.00    +0.000 A 
ATOM     21  C   UNL     1      -0.729  10.780  22.187  0.00  0.00    +0.000 A 
ATOM     22  N   UNL     1      -0.567  10.878  20.851  0.00  0.00    +0.000 NA
ATOM     23  C   UNL     1       0.190   9.919  20.259  0.00  0.00    +0.000 A 
ENDBRANCH  16  18
ENDBRANCH   4  13
TORSDOF 3
ENDMDL
MODEL 6
REMARK VINA RESULT:      -7.4      2.300      4.480
REMARK  Name = 
REMARK  3 active torsions:
REMARK  status: ('A' for Active; 'I' for Inactive)
REMARK    1  A    between atoms: C_4  and  C_5
REMARK    2  A    between atoms: C_8  and  C_9
REMARK    3  A    between atoms: C_12  and  C_13
REMARK                            x       y       z     vdW  Elec       q    Type
REMARK                         _______ _______ _______ _____ _____    ______ ____
ROOT
ATOM      1  C   UNL     1       2.905   6.885  18.330  0.00  0.00    +0.000 A 
ATOM      2  N   UNL     1       2.563   6.389  19.535  0.00  0.00    +0.000 NA
ATOM      3  C   UNL     1       1.865   7.204  20.353  0.00  0.00    +0.000 A 
ATOM      4  C   UNL     1       1.486   8.493  20.033  0.00  0.00    +0.000 A 
ATOM      5  C   UNL     1       1.869   8.890  18.767  0.00  0.00    +0.000 A 
ATOM      6  N   UNL     1       2.570   8.119  17.904  0.00  0.00    +0.000 NA
ENDROOT
BRANCH   1  10
ATOM      7  C   UNL     1       5.386   4.404  15.834  0.00  0.00    +0.000 A 
ATOM      8  C   UNL     1       4.459   3.824  16.695  0.00  0.00    +0.000 A 
ATOM      9  C   UNL     1       3.647   4.635  17.492  0.00  0.00    +0.000 A 
ATOM     10  C   UNL     1       3.739   6.041  17.453  0.00  0.00    +0.000 A 
ATOM     11  C   UNL     1       4.677   6.598  16.564  0.00  0.00    +0.000 A 
ATOM     12  C   UNL     1       5.493   5.789  15.765  0.00  0.00    +0.000 A 
ENDBRANCH   1  10
BRANCH   4  13
ATOM     13  C   UNL     1       0.785   9.345  20.989  0.00  0.00    +0.000 A 
ATOM     14  C   UNL     1       0.791   9.304  22.370  0.00  0.00    +0.000 A 
ATOM     15  N   UNL     1       0.022  10.253  23.009  0.00  0.00    +0.000 NA
ATOM     16  C   UNL     1      -0.607  10.998  22.124  0.00  0.00    +0.000 A 
ATOM     17  S   UNL     1      -0.251  10.616  20.482  0.00  0.00    +0.000 S 
BRANCH  16  18
ATOM     18  C   UNL     1      -1.502  12.103  22.473  0.00  0.00    +0.000 A 
ATOM     19  C   UNL     1      -2.501  11.919  23.436  0.00  0.00    +0.000 A 
ATOM     20  C   UNL     1      -3.366  12.964  23.758  0.00  0.00    +0.000 A 
ATOM     21  C   UNL     1      -3.211  14.169  23.097  0.00  0.00    +0.000 A 
ATOM     22  N   UNL     1      -2.268  14.393  22.159  0.00  0.00    +0.000 NA
ATOM     23  C   UNL     1      -1.443  13.355  21.866  0.00  0.00    +0.000 A 
ENDBRANCH  16  18
ENDBRANCH   4  13
TORSDOF 3
ENDMDL
MODEL 7
REMARK VINA RESULT:      -7.4      1.701      9.712
REMARK  Name = 
REMARK  3 active torsions:
REMARK  status: ('A' for Active; 'I' for Inactive)
REMARK    1  A    between atoms: C_4  and  C_5
REMARK    2  A    between atoms: C_8  and  C_9
REMARK    3  A    between atoms: C_12  and  C_13
REMARK                            x       y       z     vdW  Elec       q    Type
REMARK                         _______ _______ _______ _____ _____    ______ ____
ROOT
ATOM      1  C   UNL     1       0.189   9.944  20.739  0.00  0.00    +0.000 A 
ATOM      2  N   UNL     1       0.618   8.896  21.468  0.00  0.00    +0.000 NA
ATOM      3  C   UNL     1       1.435   8.018  20.851  0.00  0.00    +0.000 A 
ATOM      4  C   UNL     1       1.852   8.128  19.539  0.00  0.00    +0.000 A 
ATOM      5  C   UNL     1       1.371   9.251  18.893  0.00  0.00    +0.000 A 
ATOM      6  N   UNL     1       0.548  10.164  19.458  0.00  0.00    +0.000 NA
ENDROOT
BRANCH   1  10
ATOM      7  C   UNL     1      -2.666  12.588  22.583  0.00  0.00    +0.000 A 
ATOM      8  C   UNL     1      -1.962  11.670  23.356  0.00  0.00    +0.000 A 
ATOM      9  C   UNL     1      -1.026  10.824  22.754  0.00  0.00    +0.000 A 
ATOM     10  C   UNL     1      -0.771  10.870  21.369  0.00  0.00    +0.000 A 
ATOM     11  C   UNL     1      -1.490  11.817  20.615  0.00  0.00    +0.000 A 
ATOM     12  C   UNL     1      -2.428  12.665  21.215  0.00  0.00    +0.000 A 
ENDBRANCH   1  10
BRANCH   4  13
ATOM     13  C   UNL     1       2.687   7.110  18.911  0.00  0.00    +0.000 A 
ATOM     14  C   UNL     1       2.820   5.770  19.223  0.00  0.00    +0.000 A 
ATOM     15  N   UNL     1       3.696   5.048  18.440  0.00  0.00    +0.000 NA
ATOM     16  C   UNL     1       4.267   5.837  17.553  0.00  0.00    +0.000 A 
ATOM     17  S   UNL     1       3.727   7.472  17.595  0.00  0.00    +0.000 S 
BRANCH  16  18
ATOM     18  C   UNL     1       5.245   5.382  16.564  0.00  0.00    +0.000 A 
ATOM     19  C   UNL     1       4.927   4.330  15.695  0.00  0.00    +0.000 A 
ATOM     20  C   UNL     1       5.863   3.883  14.763  0.00  0.00    +0.000 A 
ATOM     21  C   UNL     1       7.101   4.499  14.732  0.00  0.00    +0.000 A 
ATOM     22  N   UNL     1       7.456   5.512  15.551  0.00  0.00    +0.000 NA
ATOM     23  C   UNL     1       6.523   5.923  16.448  0.00  0.00    +0.000 A 
ENDBRANCH  16  18
ENDBRANCH   4  13
TORSDOF 3
ENDMDL
MODEL 8
REMARK VINA RESULT:      -7.3      2.959      5.273
REMARK  Name = 
REMARK  3 active torsions:
REMARK  status: ('A' for Active; 'I' for Inactive)
REMARK    1  A    between atoms: C_4  and  C_5
REMARK    2  A    between atoms: C_8  and  C_9
REMARK    3  A    between atoms: C_12  and  C_13
REMARK                            x       y       z     vdW  Elec       q    Type
REMARK                         _______ _______ _______ _____ _____    ______ ____
ROOT
ATOM      1  C   UNL     1       2.397   7.396  18.606  0.00  0.00    +0.000 A 
ATOM      2  N   UNL     1       2.133   7.260  19.920  0.00  0.00    +0.000 NA
ATOM      3  C   UNL     1       1.564   8.315  20.539  0.00  0.00    +0.000 A 
ATOM      4  C   UNL     1       1.241   9.505  19.917  0.00  0.00    +0.000 A 
ATOM      5  C   UNL     1       1.534   9.526  18.567  0.00  0.00    +0.000 A 
ATOM      6  N   UNL     1       2.106   8.502  17.893  0.00  0.00    +0.000 NA
ENDROOT
BRANCH   1  10
ATOM      7  C   UNL     1       4.462   4.133  16.700  0.00  0.00    +0.000 A 
ATOM      8  C   UNL     1       3.281   3.901  17.399  0.00  0.00    +0.000 A 
ATOM      9  C   UNL     1       2.608   4.966  18.003  0.00  0.00    +0.000 A 
ATOM     10  C   UNL     1       3.095   6.287  17.929  0.00  0.00    +0.000 A 
ATOM     11  C   UNL     1       4.285   6.492  17.206  0.00  0.00    +0.000 A 
ATOM     12  C   UNL     1       4.962   5.427  16.600  0.00  0.00    +0.000 A 
ENDBRANCH   1  10
BRANCH   4  13
ATOM     13  C   UNL     1       0.683  10.631  20.658  0.00  0.00    +0.000 A 
ATOM     14  C   UNL     1       1.119  11.941  20.724  0.00  0.00    +0.000 A 
ATOM     15  N   UNL     1       0.376  12.790  21.516  0.00  0.00    +0.000 NA
ATOM     16  C   UNL     1      -0.608  12.128  22.091  0.00  0.00    +0.000 A 
ATOM     17  S   UNL     1      -0.705  10.465  21.654  0.00  0.00    +0.000 S 
BRANCH  16  18
ATOM     18  C   UNL     1      -1.587  12.738  22.991  0.00  0.00    +0.000 A 
ATOM     19  C   UNL     1      -2.808  12.098  23.238  0.00  0.00    +0.000 A 
ATOM     20  C   UNL     1      -3.750  12.686  24.081  0.00  0.00    +0.000 A 
ATOM     21  C   UNL     1      -3.446  13.908  24.653  0.00  0.00    +0.000 A 
ATOM     22  N   UNL     1      -2.286  14.566  24.442  0.00  0.00    +0.000 NA
ATOM     23  C   UNL     1      -1.391  13.969  23.614  0.00  0.00    +0.000 A 
ENDBRANCH  16  18
ENDBRANCH   4  13
TORSDOF 3
ENDMDL
MODEL 9
REMARK VINA RESULT:      -7.3      1.448      9.513
REMARK  Name = 
REMARK  3 active torsions:
REMARK  status: ('A' for Active; 'I' for Inactive)
REMARK    1  A    between atoms: C_4  and  C_5
REMARK    2  A    between atoms: C_8  and  C_9
REMARK    3  A    between atoms: C_12  and  C_13
REMARK                            x       y       z     vdW  Elec       q    Type
REMARK                         _______ _______ _______ _____ _____    ______ ____
ROOT
ATOM      1  C   UNL     1       1.462   8.456  20.182  0.00  0.00    +0.000 A 
ATOM      2  N   UNL     1       1.828   7.226  20.590  0.00  0.00    +0.000 NA
ATOM      3  C   UNL     1       2.550   6.486  19.723  0.00  0.00    +0.000 A 
ATOM      4  C   UNL     1       2.931   6.909  18.465  0.00  0.00    +0.000 A 
ATOM      5  C   UNL     1       2.521   8.192  18.159  0.00  0.00    +0.000 A 
ATOM      6  N   UNL     1       1.795   8.980  18.985  0.00  0.00    +0.000 NA
ENDROOT
BRANCH   1  10
ATOM      7  C   UNL     1      -0.992  10.825  22.810  0.00  0.00    +0.000 A 
ATOM      8  C   UNL     1      -0.843  11.190  21.475  0.00  0.00    +0.000 A 
ATOM      9  C   UNL     1      -0.057  10.409  20.624  0.00  0.00    +0.000 A 
ATOM     10  C   UNL     1       0.602   9.249  21.081  0.00  0.00    +0.000 A 
ATOM     11  C   UNL     1       0.422   8.900  22.432  0.00  0.00    +0.000 A 
ATOM     12  C   UNL     1      -0.364   9.680  23.288  0.00  0.00    +0.000 A 
ENDBRANCH   1  10
BRANCH   4  13
ATOM     13  C   UNL     1       3.659   6.035  17.551  0.00  0.00    +0.000 A 
ATOM     14  C   UNL     1       3.760   4.657  17.547  0.00  0.00    +0.000 A 
ATOM     15  N   UNL     1       4.528   4.106  16.543  0.00  0.00    +0.000 NA
ATOM     16  C   UNL     1       5.050   5.058  15.797  0.00  0.00    +0.000 A 
ATOM     17  S   UNL     1       4.590   6.656  16.249  0.00  0.00    +0.000 S 
BRANCH  16  18
ATOM     18  C   UNL     1       5.913   4.811  14.642  0.00  0.00    +0.000 A 
ATOM     19  C   UNL     1       5.523   3.893  13.659  0.00  0.00    +0.000 A 
ATOM     20  C   UNL     1       6.350   3.642  12.565  0.00  0.00    +0.000 A 
ATOM     21  C   UNL     1       7.556   4.316  12.489  0.00  0.00    +0.000 A 
ATOM     22  N   UNL     1       7.978   5.205  13.412  0.00  0.00    +0.000 NA
ATOM     23  C   UNL     1       7.151   5.425  14.466  0.00  0.00    +0.000 A 
ENDBRANCH  16  18
ENDBRANCH   4  13
TORSDOF 3
ENDMDL
