MODEL 1
REMARK VINA RESULT:      -7.4      0.000      0.000
REMARK  Name = 
REMARK  7 active torsions:
REMARK  status: ('A' for Active; 'I' for Inactive)
REMARK    1  A    between atoms: C_1  and  C_2
REMARK    2  A    between atoms: C_2  and  C_3
REMARK    3  A    between atoms: C_3  and  C_4
REMARK    4  A    between atoms: C_4  and  C_5
REMARK    5  A    between atoms: C_5  and  N_6
REMARK    6  A    between atoms: C_7  and  C_8
REMARK    7  A    between atoms: C_14  and  C_15
REMARK                            x       y       z     vdW  Elec       q    Type
REMARK                         _______ _______ _______ _____ _____    ______ ____
ROOT
ATOM      1  N   UNL     1      -0.835  11.119  20.188  0.00  0.00    +0.000 N 
ATOM      2  C   UNL     1      -1.377  11.692  21.357  0.00  0.00    +0.000 A 
ATOM      3  C   UNL     1      -2.359  12.838  21.328  0.00  0.00    +0.000 C 
ATOM      4  C   UNL     1      -1.034  11.246  22.583  0.00  0.00    +0.000 A 
ATOM      5  C   UNL     1      -0.087  10.128  22.739  0.00  0.00    +0.000 A 
ATOM      6  O   UNL     1       0.256   9.656  23.814  0.00  0.00    +0.000 OA
ATOM      7  N   UNL     1       0.411   9.625  21.547  0.00  0.00    +0.000 N 
ATOM      8  C   UNL     1       1.285   8.578  21.371  0.00  0.00    +0.000 A 
ATOM      9  C   UNL     1       1.460   8.465  20.011  0.00  0.00    +0.000 A 
ATOM     10  N   UNL     1       0.739   9.443  19.359  0.00  0.00    +0.000 NA
ATOM     11  C   UNL     1       0.084  10.102  20.295  0.00  0.00    +0.000 A 
ENDROOT
BRANCH   9  12
ATOM     12  C   UNL     1       2.268   7.462  19.331  0.00  0.00    +0.000 A 
ATOM     13  C   UNL     1       2.396   6.159  19.840  0.00  0.00    +0.000 A 
ATOM     14  C   UNL     1       3.185   5.206  19.188  0.00  0.00    +0.000 A 
ATOM     15  C   UNL     1       3.850   5.548  18.015  0.00  0.00    +0.000 A 
ATOM     16 BR   UNL     1       4.933   4.263  17.149  0.00  0.00    +0.000 Br
ATOM     17  C   UNL     1       3.724   6.828  17.482  0.00  0.00    +0.000 A 
ATOM     18  C   UNL     1       2.934   7.781  18.138  0.00  0.00    +0.000 A 
ENDBRANCH   9  12
BRANCH   1  19
ATOM     19  C   UNL     1      -1.131  11.547  18.803  0.00  0.00    +0.000 C 
BRANCH  19  20
ATOM     20  C   UNL     1      -2.330  10.796  18.206  0.00  0.00    +0.000 C 
BRANCH  20  21
ATOM     21  C   UNL     1      -2.488  11.086  16.713  0.00  0.00    +0.000 C 
BRANCH  21  23
ATOM     22  C   UNL     1      -3.153  10.115  14.485  0.00  0.00    +0.000 C 
ATOM     23  C   UNL     1      -2.822   9.812  15.937  0.00  0.00    +0.000 C 
ENDBRANCH  21  23
ENDBRANCH  20  21
ENDBRANCH  19  20
ENDBRANCH   1  19
TORSDOF 5
ENDMDL
MODEL 2
REMARK VINA RESULT:      -7.3      0.116      1.013
REMARK  Name = 
REMARK  7 active torsions:
REMARK  status: ('A' for Active; 'I' for Inactive)
REMARK    1  A    between atoms: C_1  and  C_2
REMARK    2  A    between atoms: C_2  and  C_3
REMARK    3  A    between atoms: C_3  and  C_4
REMARK    4  A    between atoms: C_4  and  C_5
REMARK    5  A    between atoms: C_5  and  N_6
REMARK    6  A    between atoms: C_7  and  C_8
REMARK    7  A    between atoms: C_14  and  C_15
REMARK                            x       y       z     vdW  Elec       q    Type
REMARK                         _______ _______ _______ _____ _____    ______ ____
ROOT
ATOM      1  N   UNL     1      -0.819  11.063  20.168  0.00  0.00    +0.000 N 
ATOM      2  C   UNL     1      -1.347  11.651  21.336  0.00  0.00    +0.000 A 
ATOM      3  C   UNL     1      -2.329  12.797  21.302  0.00  0.00    +0.000 C 
ATOM      4  C   UNL     1      -0.993  11.219  22.564  0.00  0.00    +0.000 A 
ATOM      5  C   UNL     1      -0.046  10.103  22.724  0.00  0.00    +0.000 A 
ATOM      6  O   UNL     1       0.308   9.643  23.801  0.00  0.00    +0.000 OA
ATOM      7  N   UNL     1       0.440   9.584  21.534  0.00  0.00    +0.000 N 
ATOM      8  C   UNL     1       1.311   8.535  21.361  0.00  0.00    +0.000 A 
ATOM      9  C   UNL     1       1.472   8.404  20.001  0.00  0.00    +0.000 A 
ATOM     10  N   UNL     1       0.746   9.375  19.345  0.00  0.00    +0.000 NA
ATOM     11  C   UNL     1       0.101  10.047  20.279  0.00  0.00    +0.000 A 
ENDROOT
BRANCH   9  12
ATOM     12  C   UNL     1       2.272   7.392  19.326  0.00  0.00    +0.000 A 
ATOM     13  C   UNL     1       2.962   7.679  18.137  0.00  0.00    +0.000 A 
ATOM     14  C   UNL     1       3.718   6.696  17.489  0.00  0.00    +0.000 A 
ATOM     15  C   UNL     1       3.794   5.416  18.029  0.00  0.00    +0.000 A 
ATOM     16 BR   UNL     1       4.799   4.086  17.138  0.00  0.00    +0.000 Br
ATOM     17  C   UNL     1       3.133   5.114  19.217  0.00  0.00    +0.000 A 
ATOM     18  C   UNL     1       2.376   6.100  19.863  0.00  0.00    +0.000 A 
ENDBRANCH   9  12
BRANCH   1  19
ATOM     19  C   UNL     1      -1.128  11.474  18.782  0.00  0.00    +0.000 C 
BRANCH  19  20
ATOM     20  C   UNL     1      -2.324  10.706  18.201  0.00  0.00    +0.000 C 
BRANCH  20  21
ATOM     21  C   UNL     1      -2.607  11.115  16.755  0.00  0.00    +0.000 C 
BRANCH  21  23
ATOM     22  C   UNL     1      -3.342  10.169  14.539  0.00  0.00    +0.000 C 
ATOM     23  C   UNL     1      -2.573   9.905  15.823  0.00  0.00    +0.000 C 
ENDBRANCH  21  23
ENDBRANCH  20  21
ENDBRANCH  19  20
ENDBRANCH   1  19
TORSDOF 5
ENDMDL
MODEL 3
REMARK VINA RESULT:      -7.2      4.303      8.463
REMARK  Name = 
REMARK  7 active torsions:
REMARK  status: ('A' for Active; 'I' for Inactive)
REMARK    1  A    between atoms: C_1  and  C_2
REMARK    2  A    between atoms: C_2  and  C_3
REMARK    3  A    between atoms: C_3  and  C_4
REMARK    4  A    between atoms: C_4  and  C_5
REMARK    5  A    between atoms: C_5  and  N_6
REMARK    6  A    between atoms: C_7  and  C_8
REMARK    7  A    between atoms: C_14  and  C_15
REMARK                            x       y       z     vdW  Elec       q    Type
REMARK                         _______ _______ _______ _____ _____    ______ ____
ROOT
ATOM      1  N   UNL     1       5.453   5.773  17.059  0.00  0.00    +0.000 N 
ATOM      2  C   UNL     1       5.585   4.521  16.425  0.00  0.00    +0.000 A 
ATOM      3  C   UNL     1       6.861   4.073  15.755  0.00  0.00    +0.000 C 
ATOM      4  C   UNL     1       4.560   3.644  16.378  0.00  0.00    +0.000 A 
ATOM      5  C   UNL     1       3.266   3.967  17.002  0.00  0.00    +0.000 A 
ATOM      6  O   UNL     1       2.298   3.219  17.018  0.00  0.00    +0.000 OA
ATOM      7  N   UNL     1       3.208   5.220  17.594  0.00  0.00    +0.000 N 
ATOM      8  C   UNL     1       2.154   5.788  18.269  0.00  0.00    +0.000 A 
ATOM      9  C   UNL     1       2.595   7.028  18.671  0.00  0.00    +0.000 A 
ATOM     10  N   UNL     1       3.881   7.239  18.223  0.00  0.00    +0.000 NA
ATOM     11  C   UNL     1       4.246   6.127  17.615  0.00  0.00    +0.000 A 
ENDROOT
BRANCH   9  12
ATOM     12  C   UNL     1       1.842   7.990  19.464  0.00  0.00    +0.000 A 
ATOM     13  C   UNL     1       1.392   9.200  18.913  0.00  0.00    +0.000 A 
ATOM     14  C   UNL     1       0.680  10.123  19.685  0.00  0.00    +0.000 A 
ATOM     15  C   UNL     1       0.408   9.840  21.021  0.00  0.00    +0.000 A 
ATOM     16 BR   UNL     1      -0.534  11.101  22.068  0.00  0.00    +0.000 Br
ATOM     17  C   UNL     1       0.830   8.639  21.585  0.00  0.00    +0.000 A 
ATOM     18  C   UNL     1       1.543   7.717  20.808  0.00  0.00    +0.000 A 
ENDBRANCH   9  12
BRANCH   1  19
ATOM     19  C   UNL     1       6.506   6.808  17.149  0.00  0.00    +0.000 C 
BRANCH  19  20
ATOM     20  C   UNL     1       7.547   6.484  18.231  0.00  0.00    +0.000 C 
BRANCH  20  21
ATOM     21  C   UNL     1       8.413   7.701  18.560  0.00  0.00    +0.000 C 
BRANCH  21  23
ATOM     22  C   UNL     1       8.723  10.175  18.193  0.00  0.00    +0.000 C 
ATOM     23  C   UNL     1       7.953   8.931  17.778  0.00  0.00    +0.000 C 
ENDBRANCH  21  23
ENDBRANCH  20  21
ENDBRANCH  19  20
ENDBRANCH   1  19
TORSDOF 5
ENDMDL
MODEL 4
REMARK VINA RESULT:      -7.2      4.094      7.820
REMARK  Name = 
REMARK  7 active torsions:
REMARK  status: ('A' for Active; 'I' for Inactive)
REMARK    1  A    between atoms: C_1  and  C_2
REMARK    2  A    between atoms: C_2  and  C_3
REMARK    3  A    between atoms: C_3  and  C_4
REMARK    4  A    between atoms: C_4  and  C_5
REMARK    5  A    between atoms: C_5  and  N_6
REMARK    6  A    between atoms: C_7  and  C_8
REMARK    7  A    between atoms: C_14  and  C_15
REMARK                            x       y       z     vdW  Elec       q    Type
REMARK                         _______ _______ _______ _____ _____    ______ ____
ROOT
ATOM      1  N   UNL     1       3.404   3.622  18.258  0.00  0.00    +0.000 N 
ATOM      2  C   UNL     1       3.496   2.432  19.010  0.00  0.00    +0.000 A 
ATOM      3  C   UNL     1       4.058   1.149  18.448  0.00  0.00    +0.000 C 
ATOM      4  C   UNL     1       3.072   2.375  20.290  0.00  0.00    +0.000 A 
ATOM      5  C   UNL     1       2.509   3.566  20.950  0.00  0.00    +0.000 A 
ATOM      6  O   UNL     1       2.122   3.597  22.110  0.00  0.00    +0.000 OA
ATOM      7  N   UNL     1       2.440   4.692  20.144  0.00  0.00    +0.000 N 
ATOM      8  C   UNL     1       1.988   5.946  20.481  0.00  0.00    +0.000 A 
ATOM      9  C   UNL     1       2.133   6.711  19.346  0.00  0.00    +0.000 A 
ATOM     10  N   UNL     1       2.628   5.939  18.317  0.00  0.00    +0.000 NA
ATOM     11  C   UNL     1       2.845   4.742  18.827  0.00  0.00    +0.000 A 
ENDROOT
BRANCH   9  12
ATOM     12  C   UNL     1       1.829   8.129  19.225  0.00  0.00    +0.000 A 
ATOM     13  C   UNL     1       2.178   8.856  18.075  0.00  0.00    +0.000 A 
ATOM     14  C   UNL     1       1.894  10.222  17.972  0.00  0.00    +0.000 A 
ATOM     15  C   UNL     1       1.252  10.873  19.021  0.00  0.00    +0.000 A 
ATOM     16 BR   UNL     1       0.890  12.724  18.888  0.00  0.00    +0.000 Br
ATOM     17  C   UNL     1       0.882  10.170  20.165  0.00  0.00    +0.000 A 
ATOM     18  C   UNL     1       1.168   8.802  20.264  0.00  0.00    +0.000 A 
ENDBRANCH   9  12
BRANCH   1  19
ATOM     19  C   UNL     1       3.822   3.783  16.848  0.00  0.00    +0.000 C 
BRANCH  19  20
ATOM     20  C   UNL     1       5.290   4.214  16.723  0.00  0.00    +0.000 C 
BRANCH  20  21
ATOM     21  C   UNL     1       5.483   5.231  15.597  0.00  0.00    +0.000 C 
BRANCH  21  23
ATOM     22  C   UNL     1       6.018   3.829  13.574  0.00  0.00    +0.000 C 
ATOM     23  C   UNL     1       6.571   4.777  14.625  0.00  0.00    +0.000 C 
ENDBRANCH  21  23
ENDBRANCH  20  21
ENDBRANCH  19  20
ENDBRANCH   1  19
TORSDOF 5
ENDMDL
MODEL 5
REMARK VINA RESULT:      -7.2      4.090      7.648
REMARK  Name = 
REMARK  7 active torsions:
REMARK  status: ('A' for Active; 'I' for Inactive)
REMARK    1  A    between atoms: C_1  and  C_2
REMARK    2  A    between atoms: C_2  and  C_3
REMARK    3  A    between atoms: C_3  and  C_4
REMARK    4  A    between atoms: C_4  and  C_5
REMARK    5  A    between atoms: C_5  and  N_6
REMARK    6  A    between atoms: C_7  and  C_8
REMARK    7  A    between atoms: C_14  and  C_15
REMARK                            x       y       z     vdW  Elec       q    Type
REMARK                         _______ _______ _______ _____ _____    ______ ____
ROOT
ATOM      1  N   UNL     1       3.342   3.625  18.201  0.00  0.00    +0.000 N 
ATOM      2  C   UNL     1       3.435   2.441  18.961  0.00  0.00    +0.000 A 
ATOM      3  C   UNL     1       3.974   1.148  18.398  0.00  0.00    +0.000 C 
ATOM      4  C   UNL     1       3.035   2.397  20.248  0.00  0.00    +0.000 A 
ATOM      5  C   UNL     1       2.495   3.598  20.909  0.00  0.00    +0.000 A 
ATOM      6  O   UNL     1       2.131   3.642  22.076  0.00  0.00    +0.000 OA
ATOM      7  N   UNL     1       2.424   4.719  20.097  0.00  0.00    +0.000 N 
ATOM      8  C   UNL     1       1.991   5.980  20.433  0.00  0.00    +0.000 A 
ATOM      9  C   UNL     1       2.123   6.735  19.289  0.00  0.00    +0.000 A 
ATOM     10  N   UNL     1       2.591   5.950  18.257  0.00  0.00    +0.000 NA
ATOM     11  C   UNL     1       2.805   4.755  18.772  0.00  0.00    +0.000 A 
ENDROOT
BRANCH   9  12
ATOM     12  C   UNL     1       1.832   8.156  19.163  0.00  0.00    +0.000 A 
ATOM     13  C   UNL     1       2.209   8.881  18.021  0.00  0.00    +0.000 A 
ATOM     14  C   UNL     1       1.937  10.249  17.914  0.00  0.00    +0.000 A 
ATOM     15  C   UNL     1       1.278  10.904  18.950  0.00  0.00    +0.000 A 
ATOM     16 BR   UNL     1       0.932  12.757  18.810  0.00  0.00    +0.000 Br
ATOM     17  C   UNL     1       0.879  10.202  20.084  0.00  0.00    +0.000 A 
ATOM     18  C   UNL     1       1.153   8.832  20.188  0.00  0.00    +0.000 A 
ENDBRANCH   9  12
BRANCH   1  19
ATOM     19  C   UNL     1       3.735   3.771  16.783  0.00  0.00    +0.000 C 
BRANCH  19  20
ATOM     20  C   UNL     1       5.247   3.987  16.618  0.00  0.00    +0.000 C 
BRANCH  20  21
ATOM     21  C   UNL     1       5.553   5.001  15.514  0.00  0.00    +0.000 C 
BRANCH  21  23
ATOM     22  C   UNL     1       5.936   6.883  17.145  0.00  0.00    +0.000 C 
ATOM     23  C   UNL     1       5.146   6.412  15.935  0.00  0.00    +0.000 C 
ENDBRANCH  21  23
ENDBRANCH  20  21
ENDBRANCH  19  20
ENDBRANCH   1  19
TORSDOF 5
ENDMDL
MODEL 6
REMARK VINA RESULT:      -7.2      4.062      7.740
REMARK  Name = 
REMARK  7 active torsions:
REMARK  status: ('A' for Active; 'I' for Inactive)
REMARK    1  A    between atoms: C_1  and  C_2
REMARK    2  A    between atoms: C_2  and  C_3
REMARK    3  A    between atoms: C_3  and  C_4
REMARK    4  A    between atoms: C_4  and  C_5
REMARK    5  A    between atoms: C_5  and  N_6
REMARK    6  A    between atoms: C_7  and  C_8
REMARK    7  A    between atoms: C_14  and  C_15
REMARK                            x       y       z     vdW  Elec       q    Type
REMARK                         _______ _______ _______ _____ _____    ______ ____
ROOT
ATOM      1  N   UNL     1       3.366   3.643  18.290  0.00  0.00    +0.000 N 
ATOM      2  C   UNL     1       3.476   2.439  19.017  0.00  0.00    +0.000 A 
ATOM      3  C   UNL     1       4.044   1.173  18.423  0.00  0.00    +0.000 C 
ATOM      4  C   UNL     1       3.067   2.352  20.300  0.00  0.00    +0.000 A 
ATOM      5  C   UNL     1       2.499   3.523  20.989  0.00  0.00    +0.000 A 
ATOM      6  O   UNL     1       2.125   3.528  22.154  0.00  0.00    +0.000 OA
ATOM      7  N   UNL     1       2.412   4.665  20.208  0.00  0.00    +0.000 N 
ATOM      8  C   UNL     1       1.952   5.908  20.575  0.00  0.00    +0.000 A 
ATOM      9  C   UNL     1       2.078   6.696  19.454  0.00  0.00    +0.000 A 
ATOM     10  N   UNL     1       2.569   5.950  18.405  0.00  0.00    +0.000 NA
ATOM     11  C   UNL     1       2.802   4.745  18.887  0.00  0.00    +0.000 A 
ENDROOT
BRANCH   9  12
ATOM     12  C   UNL     1       1.760   8.115  19.365  0.00  0.00    +0.000 A 
ATOM     13  C   UNL     1       1.235   8.817  20.462  0.00  0.00    +0.000 A 
ATOM     14  C   UNL     1       0.920  10.176  20.364  0.00  0.00    +0.000 A 
ATOM     15  C   UNL     1       1.134  10.848  19.164  0.00  0.00    +0.000 A 
ATOM     16 BR   UNL     1       0.687  12.680  19.029  0.00  0.00    +0.000 Br
ATOM     17  C   UNL     1       1.670  10.177  18.068  0.00  0.00    +0.000 A 
ATOM     18  C   UNL     1       1.983   8.815  18.170  0.00  0.00    +0.000 A 
ENDBRANCH   9  12
BRANCH   1  19
ATOM     19  C   UNL     1       3.767   3.836  16.880  0.00  0.00    +0.000 C 
BRANCH  19  20
ATOM     20  C   UNL     1       5.241   4.244  16.745  0.00  0.00    +0.000 C 
BRANCH  20  21
ATOM     21  C   UNL     1       5.412   5.433  15.800  0.00  0.00    +0.000 C 
BRANCH  21  23
ATOM     22  C   UNL     1       6.046   3.904  13.901  0.00  0.00    +0.000 C 
ATOM     23  C   UNL     1       6.440   5.128  14.711  0.00  0.00    +0.000 C 
ENDBRANCH  21  23
ENDBRANCH  20  21
ENDBRANCH  19  20
ENDBRANCH   1  19
TORSDOF 5
ENDMDL
MODEL 7
REMARK VINA RESULT:      -7.1      3.989      7.588
REMARK  Name = 
REMARK  7 active torsions:
REMARK  status: ('A' for Active; 'I' for Inactive)
REMARK    1  A    between atoms: C_1  and  C_2
REMARK    2  A    between atoms: C_2  and  C_3
REMARK    3  A    between atoms: C_3  and  C_4
REMARK    4  A    between atoms: C_4  and  C_5
REMARK    5  A    between atoms: C_5  and  N_6
REMARK    6  A    between atoms: C_7  and  C_8
REMARK    7  A    between atoms: C_14  and  C_15
REMARK                            x       y       z     vdW  Elec       q    Type
REMARK                         _______ _______ _______ _____ _____    ______ ____
ROOT
ATOM      1  N   UNL     1       2.677   5.846  19.879  0.00  0.00    +0.000 N 
ATOM      2  C   UNL     1       3.466   5.509  18.760  0.00  0.00    +0.000 A 
ATOM      3  C   UNL     1       4.156   4.175  18.617  0.00  0.00    +0.000 C 
ATOM      4  C   UNL     1       3.655   6.378  17.745  0.00  0.00    +0.000 A 
ATOM      5  C   UNL     1       3.027   7.711  17.769  0.00  0.00    +0.000 A 
ATOM      6  O   UNL     1       3.136   8.544  16.880  0.00  0.00    +0.000 OA
ATOM      7  N   UNL     1       2.278   7.974  18.905  0.00  0.00    +0.000 N 
ATOM      8  C   UNL     1       1.562   9.109  19.202  0.00  0.00    +0.000 A 
ATOM      9  C   UNL     1       0.989   8.877  20.431  0.00  0.00    +0.000 A 
ATOM     10  N   UNL     1       1.371   7.640  20.904  0.00  0.00    +0.000 NA
ATOM     11  C   UNL     1       2.110   7.097  19.957  0.00  0.00    +0.000 A 
ENDROOT
BRANCH   9  12
ATOM     12  C   UNL     1       0.096   9.780  21.144  0.00  0.00    +0.000 A 
ATOM     13  C   UNL     1      -0.499  10.878  20.502  0.00  0.00    +0.000 A 
ATOM     14  C   UNL     1      -1.345  11.747  21.198  0.00  0.00    +0.000 A 
ATOM     15  C   UNL     1      -1.608  11.522  22.546  0.00  0.00    +0.000 A 
ATOM     16 BR   UNL     1      -2.735  12.712  23.488  0.00  0.00    +0.000 Br
ATOM     17  C   UNL     1      -1.043  10.430  23.200  0.00  0.00    +0.000 A 
ATOM     18  C   UNL     1      -0.195   9.561  22.500  0.00  0.00    +0.000 A 
ENDBRANCH   9  12
BRANCH   1  19
ATOM     19  C   UNL     1       2.424   4.975  21.048  0.00  0.00    +0.000 C 
BRANCH  19  20
ATOM     20  C   UNL     1       1.232   4.034  20.824  0.00  0.00    +0.000 C 
BRANCH  20  21
ATOM     21  C   UNL     1       1.646   2.566  20.932  0.00  0.00    +0.000 C 
BRANCH  21  23
ATOM     22  C   UNL     1       0.801   2.656  18.560  0.00  0.00    +0.000 C 
ATOM     23  C   UNL     1       1.657   1.895  19.559  0.00  0.00    +0.000 C 
ENDBRANCH  21  23
ENDBRANCH  20  21
ENDBRANCH  19  20
ENDBRANCH   1  19
TORSDOF 5
ENDMDL
MODEL 8
REMARK VINA RESULT:      -7.1      4.286      8.341
REMARK  Name = 
REMARK  7 active torsions:
REMARK  status: ('A' for Active; 'I' for Inactive)
REMARK    1  A    between atoms: C_1  and  C_2
REMARK    2  A    between atoms: C_2  and  C_3
REMARK    3  A    between atoms: C_3  and  C_4
REMARK    4  A    between atoms: C_4  and  C_5
REMARK    5  A    between atoms: C_5  and  N_6
REMARK    6  A    between atoms: C_7  and  C_8
REMARK    7  A    between atoms: C_14  and  C_15
REMARK                            x       y       z     vdW  Elec       q    Type
REMARK                         _______ _______ _______ _____ _____    ______ ____
ROOT
ATOM      1  N   UNL     1       5.115   5.604  16.749  0.00  0.00    +0.000 N 
ATOM      2  C   UNL     1       5.256   4.269  16.318  0.00  0.00    +0.000 A 
ATOM      3  C   UNL     1       6.407   3.802  15.461  0.00  0.00    +0.000 C 
ATOM      4  C   UNL     1       4.350   3.324  16.647  0.00  0.00    +0.000 A 
ATOM      5  C   UNL     1       3.185   3.658  17.483  0.00  0.00    +0.000 A 
ATOM      6  O   UNL     1       2.334   2.855  17.839  0.00  0.00    +0.000 OA
ATOM      7  N   UNL     1       3.108   4.991  17.859  0.00  0.00    +0.000 N 
ATOM      8  C   UNL     1       2.159   5.594  18.650  0.00  0.00    +0.000 A 
ATOM      9  C   UNL     1       2.529   6.916  18.732  0.00  0.00    +0.000 A 
ATOM     10  N   UNL     1       3.662   7.137  17.979  0.00  0.00    +0.000 NA
ATOM     11  C   UNL     1       4.018   5.963  17.496  0.00  0.00    +0.000 A 
ENDROOT
BRANCH   9  12
ATOM     12  C   UNL     1       1.852   7.948  19.504  0.00  0.00    +0.000 A 
ATOM     13  C   UNL     1       1.567   7.773  20.868  0.00  0.00    +0.000 A 
ATOM     14  C   UNL     1       0.905   8.764  21.599  0.00  0.00    +0.000 A 
ATOM     15  C   UNL     1       0.525   9.946  20.971  0.00  0.00    +0.000 A 
ATOM     16 BR   UNL     1      -0.390  11.275  21.957  0.00  0.00    +0.000 Br
ATOM     17  C   UNL     1       0.812  10.150  19.623  0.00  0.00    +0.000 A 
ATOM     18  C   UNL     1       1.475   9.155  18.894  0.00  0.00    +0.000 A 
ENDBRANCH   9  12
BRANCH   1  19
ATOM     19  C   UNL     1       6.039   6.714  16.429  0.00  0.00    +0.000 C 
BRANCH  19  20
ATOM     20  C   UNL     1       7.445   6.484  17.003  0.00  0.00    +0.000 C 
BRANCH  20  21
ATOM     21  C   UNL     1       7.724   7.404  18.192  0.00  0.00    +0.000 C 
BRANCH  21  23
ATOM     22  C   UNL     1       8.845   9.630  18.555  0.00  0.00    +0.000 C 
ATOM     23  C   UNL     1       7.808   8.864  17.750  0.00  0.00    +0.000 C 
ENDBRANCH  21  23
ENDBRANCH  20  21
ENDBRANCH  19  20
ENDBRANCH   1  19
TORSDOF 5
ENDMDL
MODEL 9
REMARK VINA RESULT:      -7.1      3.769      7.623
REMARK  Name = 
REMARK  7 active torsions:
REMARK  status: ('A' for Active; 'I' for Inactive)
REMARK    1  A    between atoms: C_1  and  C_2
REMARK    2  A    between atoms: C_2  and  C_3
REMARK    3  A    between atoms: C_3  and  C_4
REMARK    4  A    between atoms: C_4  and  C_5
REMARK    5  A    between atoms: C_5  and  N_6
REMARK    6  A    between atoms: C_7  and  C_8
REMARK    7  A    between atoms: C_14  and  C_15
REMARK                            x       y       z     vdW  Elec       q    Type
REMARK                         _______ _______ _______ _____ _____    ______ ____
ROOT
ATOM      1  N   UNL     1       3.214   5.322  19.729  0.00  0.00    +0.000 N 
ATOM      2  C   UNL     1       4.182   4.669  18.937  0.00  0.00    +0.000 A 
ATOM      3  C   UNL     1       4.748   3.315  19.288  0.00  0.00    +0.000 C 
ATOM      4  C   UNL     1       4.665   5.232  17.810  0.00  0.00    +0.000 A 
ATOM      5  C   UNL     1       4.184   6.550  17.362  0.00  0.00    +0.000 A 
ATOM      6  O   UNL     1       4.559   7.115  16.343  0.00  0.00    +0.000 OA
ATOM      7  N   UNL     1       3.244   7.135  18.196  0.00  0.00    +0.000 N 
ATOM      8  C   UNL     1       2.600   8.339  18.033  0.00  0.00    +0.000 A 
ATOM      9  C   UNL     1       1.763   8.463  19.118  0.00  0.00    +0.000 A 
ATOM     10  N   UNL     1       1.911   7.378  19.955  0.00  0.00    +0.000 NA
ATOM     11  C   UNL     1       2.773   6.573  19.365  0.00  0.00    +0.000 A 
ENDROOT
BRANCH   9  12
ATOM     12  C   UNL     1       0.837   9.559  19.363  0.00  0.00    +0.000 A 
ATOM     13  C   UNL     1       0.049  10.096  18.332  0.00  0.00    +0.000 A 
ATOM     14  C   UNL     1      -0.829  11.158  18.574  0.00  0.00    +0.000 A 
ATOM     15  C   UNL     1      -0.930  11.689  19.856  0.00  0.00    +0.000 A 
ATOM     16 BR   UNL     1      -2.101  13.139  20.175  0.00  0.00    +0.000 Br
ATOM     17  C   UNL     1      -0.172  11.162  20.899  0.00  0.00    +0.000 A 
ATOM     18  C   UNL     1       0.707  10.099  20.652  0.00  0.00    +0.000 A 
ENDBRANCH   9  12
BRANCH   1  19
ATOM     19  C   UNL     1       2.637   4.801  20.986  0.00  0.00    +0.000 C 
BRANCH  19  20
ATOM     20  C   UNL     1       1.289   4.101  20.760  0.00  0.00    +0.000 C 
BRANCH  20  21
ATOM     21  C   UNL     1       1.420   2.581  20.862  0.00  0.00    +0.000 C 
BRANCH  21  23
ATOM     22  C   UNL     1       0.955   2.866  18.403  0.00  0.00    +0.000 C 
ATOM     23  C   UNL     1       1.505   1.941  19.477  0.00  0.00    +0.000 C 
ENDBRANCH  21  23
ENDBRANCH  20  21
ENDBRANCH  19  20
ENDBRANCH   1  19
TORSDOF 5
ENDMDL
