MODEL 1
REMARK VINA RESULT:      -8.2      0.000      0.000
REMARK  Name = 
REMARK  3 active torsions:
REMARK  status: ('A' for Active; 'I' for Inactive)
REMARK    1  A    between atoms: C_1  and  C_2
REMARK    2  A    between atoms: C_6  and  C_7
REMARK    3  A    between atoms: N_22  and  C_23
REMARK                            x       y       z     vdW  Elec       q    Type
REMARK                         _______ _______ _______ _____ _____    ______ ____
ROOT
ATOM      1  C   UNL     1       2.147   8.933  17.918  0.00  0.00    +0.000 C 
ATOM      2  O   UNL     1       3.024   9.813  17.941  0.00  0.00    +0.000 OA
ATOM      3  N   UNL     1       2.528   7.596  17.735  0.00  0.00    +0.000 N 
ATOM      4  C   UNL     1       4.028   7.582  17.747  0.00  0.00    +0.000 C 
ATOM      5  C   UNL     1       4.163   6.172  17.733  0.00  0.00    +0.000 C 
ATOM      6  C   UNL     1       4.372   4.736  17.721  0.00  0.00    +0.000 C 
ATOM      7  C   UNL     1       2.744   4.572  17.498  0.00  0.00    +0.000 C 
ATOM      8  C   UNL     1       1.765   6.090  17.733  0.00  0.00    +0.000 C 
ATOM      9  C   UNL     1       5.390   4.596  16.599  0.00  0.00    +0.000 A 
ATOM     10  N   UNL     1       5.146   4.459  15.256  0.00  0.00    +0.000 NA
ATOM     11  C   UNL     1       6.252   4.874  14.666  0.00  0.00    +0.000 A 
ATOM     12  N   UNL     1       7.201   5.283  15.567  0.00  0.00    +0.000 N 
ATOM     13  C   UNL     1       6.673   5.084  16.806  0.00  0.00    +0.000 A 
ATOM     14  C   UNL     1       7.235   5.516  18.118  0.00  0.00    +0.000 C 
ATOM     15  C   UNL     1       6.207   5.300  19.278  0.00  0.00    +0.000 C 
ATOM     16  N   UNL     1       5.099   4.336  18.978  0.00  0.00    +0.000 NA
ATOM     17  C   UNL     1       4.263   4.115  20.151  0.00  0.00    +0.000 C 
ATOM     18  H   UNL     1       8.076   5.742  15.346  0.00  0.00    +0.000 HD
ENDROOT
BRANCH   1  24
ATOM     19  C   UNL     1      -4.431  11.600  16.923  0.00  0.00    +0.000 C 
ATOM     20  C   UNL     1      -3.654  10.508  17.638  0.00  0.00    +0.000 C 
ATOM     21  C   UNL     1      -2.670   9.827  16.678  0.00  0.00    +0.000 C 
ATOM     22  C   UNL     1      -1.454   9.849  17.504  0.00  0.00    +0.000 A 
ATOM     23  C   UNL     1      -0.229   9.290  17.197  0.00  0.00    +0.000 A 
ATOM     24  C   UNL     1       0.788   9.453  18.115  0.00  0.00    +0.000 A 
ATOM     25  C   UNL     1       0.549  10.174  19.324  0.00  0.00    +0.000 A 
ATOM     26  C   UNL     1      -0.690  10.749  19.603  0.00  0.00    +0.000 A 
ATOM     27  C   UNL     1      -1.678  10.565  18.664  0.00  0.00    +0.000 A 
ATOM     28  O   UNL     1      -2.938  11.087  18.762  0.00  0.00    +0.000 OA
ENDBRANCH   1  24
TORSDOF 1
ENDMDL
MODEL 2
REMARK VINA RESULT:      -8.0      5.054     10.285
REMARK  Name = 
REMARK  3 active torsions:
REMARK  status: ('A' for Active; 'I' for Inactive)
REMARK    1  A    between atoms: C_1  and  C_2
REMARK    2  A    between atoms: C_6  and  C_7
REMARK    3  A    between atoms: N_22  and  C_23
REMARK                            x       y       z     vdW  Elec       q    Type
REMARK                         _______ _______ _______ _____ _____    ______ ____
ROOT
ATOM      1  C   UNL     1       0.433   9.988  21.586  0.00  0.00    +0.000 C 
ATOM      2  O   UNL     1       0.930   9.857  22.717  0.00  0.00    +0.000 OA
ATOM      3  N   UNL     1      -0.623  10.894  21.406  0.00  0.00    +0.000 N 
ATOM      4  C   UNL     1      -0.789  11.609  22.715  0.00  0.00    +0.000 C 
ATOM      5  C   UNL     1      -1.738  12.552  22.249  0.00  0.00    +0.000 C 
ATOM      6  C   UNL     1      -2.712  13.547  21.837  0.00  0.00    +0.000 C 
ATOM      7  C   UNL     1      -2.805  12.753  20.392  0.00  0.00    +0.000 C 
ATOM      8  C   UNL     1      -1.527  11.487  20.109  0.00  0.00    +0.000 C 
ATOM      9  C   UNL     1      -3.754  13.411  22.937  0.00  0.00    +0.000 A 
ATOM     10  N   UNL     1      -4.821  12.549  22.982  0.00  0.00    +0.000 NA
ATOM     11  C   UNL     1      -5.111  12.435  24.265  0.00  0.00    +0.000 A 
ATOM     12  N   UNL     1      -4.275  13.179  25.056  0.00  0.00    +0.000 N 
ATOM     13  C   UNL     1      -3.421  13.829  24.218  0.00  0.00    +0.000 A 
ATOM     14  C   UNL     1      -2.220  14.635  24.582  0.00  0.00    +0.000 C 
ATOM     15  C   UNL     1      -1.381  15.013  23.316  0.00  0.00    +0.000 C 
ATOM     16  N   UNL     1      -2.114  14.918  22.013  0.00  0.00    +0.000 NA
ATOM     17  C   UNL     1      -1.291  15.397  20.911  0.00  0.00    +0.000 C 
ATOM     18  H   UNL     1      -4.236  13.160  26.068  0.00  0.00    +0.000 HD
ENDROOT
BRANCH   1  24
ATOM     19  C   UNL     1       4.551   5.240  18.140  0.00  0.00    +0.000 C 
ATOM     20  C   UNL     1       3.119   5.719  18.304  0.00  0.00    +0.000 C 
ATOM     21  C   UNL     1       2.770   5.883  19.789  0.00  0.00    +0.000 C 
ATOM     22  C   UNL     1       2.157   7.219  19.759  0.00  0.00    +0.000 A 
ATOM     23  C   UNL     1       1.563   7.887  20.812  0.00  0.00    +0.000 A 
ATOM     24  C   UNL     1       1.071   9.151  20.562  0.00  0.00    +0.000 A 
ATOM     25  C   UNL     1       1.186   9.716  19.256  0.00  0.00    +0.000 A 
ATOM     26  C   UNL     1       1.809   9.033  18.213  0.00  0.00    +0.000 A 
ATOM     27  C   UNL     1       2.287   7.775  18.501  0.00  0.00    +0.000 A 
ATOM     28  O   UNL     1       2.953   6.983  17.607  0.00  0.00    +0.000 OA
ENDBRANCH   1  24
TORSDOF 1
ENDMDL
MODEL 3
REMARK VINA RESULT:      -7.9      4.088      9.388
REMARK  Name = 
REMARK  3 active torsions:
REMARK  status: ('A' for Active; 'I' for Inactive)
REMARK    1  A    between atoms: C_1  and  C_2
REMARK    2  A    between atoms: C_6  and  C_7
REMARK    3  A    between atoms: N_22  and  C_23
REMARK                            x       y       z     vdW  Elec       q    Type
REMARK                         _______ _______ _______ _____ _____    ______ ____
ROOT
ATOM      1  C   UNL     1       1.104   8.786  20.916  0.00  0.00    +0.000 C 
ATOM      2  O   UNL     1       1.407   8.845  22.119  0.00  0.00    +0.000 OA
ATOM      3  N   UNL     1       0.329   9.812  20.356  0.00  0.00    +0.000 N 
ATOM      4  C   UNL     1       0.173  10.851  21.427  0.00  0.00    +0.000 C 
ATOM      5  C   UNL     1      -0.454  11.819  20.604  0.00  0.00    +0.000 C 
ATOM      6  C   UNL     1      -1.100  12.854  19.818  0.00  0.00    +0.000 C 
ATOM      7  C   UNL     1      -1.196  11.758  18.586  0.00  0.00    +0.000 C 
ATOM      8  C   UNL     1      -0.234  10.230  18.820  0.00  0.00    +0.000 C 
ATOM      9  C   UNL     1      -2.276  13.213  20.713  0.00  0.00    +0.000 A 
ATOM     10  N   UNL     1      -3.515  12.625  20.750  0.00  0.00    +0.000 NA
ATOM     11  C   UNL     1      -3.986  12.899  21.952  0.00  0.00    +0.000 A 
ATOM     12  N   UNL     1      -3.103  13.633  22.702  0.00  0.00    +0.000 N 
ATOM     13  C   UNL     1      -2.019  13.864  21.912  0.00  0.00    +0.000 A 
ATOM     14  C   UNL     1      -0.716  14.474  22.305  0.00  0.00    +0.000 C 
ATOM     15  C   UNL     1       0.344  14.344  21.161  0.00  0.00    +0.000 C 
ATOM     16  N   UNL     1      -0.218  14.075  19.798  0.00  0.00    +0.000 NA
ATOM     17  C   UNL     1       0.830  14.084  18.786  0.00  0.00    +0.000 C 
ATOM     18  H   UNL     1      -3.200  13.862  23.684  0.00  0.00    +0.000 HD
ENDROOT
BRANCH   1  24
ATOM     19  C   UNL     1       4.066   2.434  19.413  0.00  0.00    +0.000 C 
ATOM     20  C   UNL     1       2.888   3.337  19.089  0.00  0.00    +0.000 C 
ATOM     21  C   UNL     1       2.266   3.897  20.374  0.00  0.00    +0.000 C 
ATOM     22  C   UNL     1       2.172   5.319  20.012  0.00  0.00    +0.000 A 
ATOM     23  C   UNL     1       1.603   6.332  20.757  0.00  0.00    +0.000 A 
ATOM     24  C   UNL     1       1.648   7.606  20.230  0.00  0.00    +0.000 A 
ATOM     25  C   UNL     1       2.263   7.833  18.962  0.00  0.00    +0.000 A 
ATOM     26  C   UNL     1       2.851   6.798  18.236  0.00  0.00    +0.000 A 
ATOM     27  C   UNL     1       2.786   5.542  18.794  0.00  0.00    +0.000 A 
ATOM     28  O   UNL     1       3.339   4.422  18.235  0.00  0.00    +0.000 OA
ENDBRANCH   1  24
TORSDOF 1
ENDMDL
MODEL 4
REMARK VINA RESULT:      -7.9      4.459      9.783
REMARK  Name = 
REMARK  3 active torsions:
REMARK  status: ('A' for Active; 'I' for Inactive)
REMARK    1  A    between atoms: C_1  and  C_2
REMARK    2  A    between atoms: C_6  and  C_7
REMARK    3  A    between atoms: N_22  and  C_23
REMARK                            x       y       z     vdW  Elec       q    Type
REMARK                         _______ _______ _______ _____ _____    ______ ____
ROOT
ATOM      1  C   UNL     1       0.975   9.343  21.226  0.00  0.00    +0.000 C 
ATOM      2  O   UNL     1       1.541   9.412  22.329  0.00  0.00    +0.000 OA
ATOM      3  N   UNL     1      -0.046  10.256  20.925  0.00  0.00    +0.000 N 
ATOM      4  C   UNL     1      -0.088  11.228  22.067  0.00  0.00    +0.000 C 
ATOM      5  C   UNL     1      -1.021  12.115  21.474  0.00  0.00    +0.000 C 
ATOM      6  C   UNL     1      -1.972  13.063  20.924  0.00  0.00    +0.000 C 
ATOM      7  C   UNL     1      -2.202  12.002  19.680  0.00  0.00    +0.000 C 
ATOM      8  C   UNL     1      -1.008  10.630  19.589  0.00  0.00    +0.000 C 
ATOM      9  C   UNL     1      -2.941  13.215  22.086  0.00  0.00    +0.000 A 
ATOM     10  N   UNL     1      -4.042  12.446  22.368  0.00  0.00    +0.000 NA
ATOM     11  C   UNL     1      -4.249  12.610  23.661  0.00  0.00    +0.000 A 
ATOM     12  N   UNL     1      -3.326  13.447  24.235  0.00  0.00    +0.000 N 
ATOM     13  C   UNL     1      -2.502  13.861  23.233  0.00  0.00    +0.000 A 
ATOM     14  C   UNL     1      -1.242  14.649  23.355  0.00  0.00    +0.000 C 
ATOM     15  C   UNL     1      -0.474  14.713  21.993  0.00  0.00    +0.000 C 
ATOM     16  N   UNL     1      -1.299  14.403  20.781  0.00  0.00    +0.000 NA
ATOM     17  C   UNL     1      -0.531  14.600  19.558  0.00  0.00    +0.000 C 
ATOM     18  H   UNL     1      -3.219  13.629  25.224  0.00  0.00    +0.000 HD
ENDROOT
BRANCH   1  24
ATOM     19  C   UNL     1       4.255   3.490  18.703  0.00  0.00    +0.000 C 
ATOM     20  C   UNL     1       2.947   4.263  18.673  0.00  0.00    +0.000 C 
ATOM     21  C   UNL     1       2.525   4.668  20.090  0.00  0.00    +0.000 C 
ATOM     22  C   UNL     1       2.213   6.087  19.867  0.00  0.00    +0.000 A 
ATOM     23  C   UNL     1       1.692   6.980  20.782  0.00  0.00    +0.000 A 
ATOM     24  C   UNL     1       1.500   8.279  20.360  0.00  0.00    +0.000 A 
ATOM     25  C   UNL     1       1.835   8.652  19.023  0.00  0.00    +0.000 A 
ATOM     26  C   UNL     1       2.381   7.739  18.122  0.00  0.00    +0.000 A 
ATOM     27  C   UNL     1       2.557   6.454  18.579  0.00  0.00    +0.000 A 
ATOM     28  O   UNL     1       3.109   5.443  17.841  0.00  0.00    +0.000 OA
ENDBRANCH   1  24
TORSDOF 1
ENDMDL
MODEL 5
REMARK VINA RESULT:      -7.6      3.945      9.237
REMARK  Name = 
REMARK  3 active torsions:
REMARK  status: ('A' for Active; 'I' for Inactive)
REMARK    1  A    between atoms: C_1  and  C_2
REMARK    2  A    between atoms: C_6  and  C_7
REMARK    3  A    between atoms: N_22  and  C_23
REMARK                            x       y       z     vdW  Elec       q    Type
REMARK                         _______ _______ _______ _____ _____    ______ ____
ROOT
ATOM      1  C   UNL     1       1.022   8.709  20.956  0.00  0.00    +0.000 C 
ATOM      2  O   UNL     1       1.152   8.805  22.187  0.00  0.00    +0.000 OA
ATOM      3  N   UNL     1       0.306   9.698  20.266  0.00  0.00    +0.000 N 
ATOM      4  C   UNL     1      -0.024  10.757  21.276  0.00  0.00    +0.000 C 
ATOM      5  C   UNL     1      -0.556  11.687  20.349  0.00  0.00    +0.000 C 
ATOM      6  C   UNL     1      -1.111  12.684  19.453  0.00  0.00    +0.000 C 
ATOM      7  C   UNL     1      -1.006  11.558  18.250  0.00  0.00    +0.000 C 
ATOM      8  C   UNL     1      -0.047  10.064  18.656  0.00  0.00    +0.000 C 
ATOM      9  C   UNL     1      -2.410  13.030  20.166  0.00  0.00    +0.000 A 
ATOM     10  N   UNL     1      -3.626  12.407  20.046  0.00  0.00    +0.000 NA
ATOM     11  C   UNL     1      -4.267  12.694  21.163  0.00  0.00    +0.000 A 
ATOM     12  N   UNL     1      -3.517  13.471  22.009  0.00  0.00    +0.000 N 
ATOM     13  C   UNL     1      -2.340  13.715  21.371  0.00  0.00    +0.000 A 
ATOM     14  C   UNL     1      -1.120  14.372  21.924  0.00  0.00    +0.000 C 
ATOM     15  C   UNL     1       0.092  14.247  20.943  0.00  0.00    +0.000 C 
ATOM     16  N   UNL     1      -0.268  13.930  19.523  0.00  0.00    +0.000 NA
ATOM     17  C   UNL     1       0.911  13.946  18.666  0.00  0.00    +0.000 C 
ATOM     18  H   UNL     1      -3.756  13.719  22.961  0.00  0.00    +0.000 HD
ENDROOT
BRANCH   1  24
ATOM     19  C   UNL     1       4.101   4.001  16.514  0.00  0.00    +0.000 C 
ATOM     20  C   UNL     1       4.267   4.705  17.850  0.00  0.00    +0.000 C 
ATOM     21  C   UNL     1       3.978   6.205  17.710  0.00  0.00    +0.000 C 
ATOM     22  C   UNL     1       3.074   6.397  18.854  0.00  0.00    +0.000 A 
ATOM     23  C   UNL     1       2.535   7.588  19.299  0.00  0.00    +0.000 A 
ATOM     24  C   UNL     1       1.686   7.530  20.384  0.00  0.00    +0.000 A 
ATOM     25  C   UNL     1       1.399   6.275  21.001  0.00  0.00    +0.000 A 
ATOM     26  C   UNL     1       1.938   5.082  20.521  0.00  0.00    +0.000 A 
ATOM     27  C   UNL     1       2.780   5.179  19.438  0.00  0.00    +0.000 A 
ATOM     28  O   UNL     1       3.367   4.109  18.821  0.00  0.00    +0.000 OA
ENDBRANCH   1  24
TORSDOF 1
ENDMDL
MODEL 6
REMARK VINA RESULT:      -7.5      3.209      8.780
REMARK  Name = 
REMARK  3 active torsions:
REMARK  status: ('A' for Active; 'I' for Inactive)
REMARK    1  A    between atoms: C_1  and  C_2
REMARK    2  A    between atoms: C_6  and  C_7
REMARK    3  A    between atoms: N_22  and  C_23
REMARK                            x       y       z     vdW  Elec       q    Type
REMARK                         _______ _______ _______ _____ _____    ______ ____
ROOT
ATOM      1  C   UNL     1       1.856   7.760  19.708  0.00  0.00    +0.000 C 
ATOM      2  O   UNL     1       1.326   7.302  20.733  0.00  0.00    +0.000 OA
ATOM      3  N   UNL     1       1.488   9.039  19.264  0.00  0.00    +0.000 N 
ATOM      4  C   UNL     1       0.572   9.599  20.312  0.00  0.00    +0.000 C 
ATOM      5  C   UNL     1       0.490  10.900  19.757  0.00  0.00    +0.000 C 
ATOM      6  C   UNL     1       0.363  12.251  19.243  0.00  0.00    +0.000 C 
ATOM      7  C   UNL     1       1.193  11.745  17.909  0.00  0.00    +0.000 C 
ATOM      8  C   UNL     1       1.969  10.103  18.045  0.00  0.00    +0.000 C 
ATOM      9  C   UNL     1      -1.147  12.436  19.270  0.00  0.00    +0.000 A 
ATOM     10  N   UNL     1      -2.052  12.100  18.296  0.00  0.00    +0.000 NA
ATOM     11  C   UNL     1      -3.202  11.969  18.931  0.00  0.00    +0.000 A 
ATOM     12  N   UNL     1      -3.082  12.197  20.278  0.00  0.00    +0.000 N 
ATOM     13  C   UNL     1      -1.780  12.523  20.503  0.00  0.00    +0.000 A 
ATOM     14  C   UNL     1      -1.097  12.704  21.817  0.00  0.00    +0.000 C 
ATOM     15  C   UNL     1       0.452  12.842  21.641  0.00  0.00    +0.000 C 
ATOM     16  N   UNL     1       0.907  13.216  20.264  0.00  0.00    +0.000 NA
ATOM     17  C   UNL     1       2.348  13.433  20.227  0.00  0.00    +0.000 C 
ATOM     18  H   UNL     1      -3.799  12.045  20.976  0.00  0.00    +0.000 HD
ENDROOT
BRANCH   1  24
ATOM     19  C   UNL     1       5.919   4.071  15.097  0.00  0.00    +0.000 C 
ATOM     20  C   UNL     1       5.970   4.935  16.345  0.00  0.00    +0.000 C 
ATOM     21  C   UNL     1       5.106   6.191  16.170  0.00  0.00    +0.000 C 
ATOM     22  C   UNL     1       4.355   6.160  17.433  0.00  0.00    +0.000 A 
ATOM     23  C   UNL     1       3.458   7.105  17.892  0.00  0.00    +0.000 A 
ATOM     24  C   UNL     1       2.846   6.859  19.104  0.00  0.00    +0.000 A 
ATOM     25  C   UNL     1       3.151   5.668  19.829  0.00  0.00    +0.000 A 
ATOM     26  C   UNL     1       4.043   4.717  19.336  0.00  0.00    +0.000 A 
ATOM     27  C   UNL     1       4.634   4.998  18.126  0.00  0.00    +0.000 A 
ATOM     28  O   UNL     1       5.505   4.161  17.483  0.00  0.00    +0.000 OA
ENDBRANCH   1  24
TORSDOF 1
ENDMDL
MODEL 7
REMARK VINA RESULT:      -7.5      5.687     10.040
REMARK  Name = 
REMARK  3 active torsions:
REMARK  status: ('A' for Active; 'I' for Inactive)
REMARK    1  A    between atoms: C_1  and  C_2
REMARK    2  A    between atoms: C_6  and  C_7
REMARK    3  A    between atoms: N_22  and  C_23
REMARK                            x       y       z     vdW  Elec       q    Type
REMARK                         _______ _______ _______ _____ _____    ______ ____
ROOT
ATOM      1  C   UNL     1       0.138  12.168  18.763  0.00  0.00    +0.000 C 
ATOM      2  O   UNL     1      -0.992  12.131  18.250  0.00  0.00    +0.000 OA
ATOM      3  N   UNL     1       0.741  13.413  18.993  0.00  0.00    +0.000 N 
ATOM      4  C   UNL     1      -0.288  14.448  18.645  0.00  0.00    +0.000 C 
ATOM      5  C   UNL     1       0.454  15.560  19.115  0.00  0.00    +0.000 C 
ATOM      6  C   UNL     1       1.160  16.740  19.577  0.00  0.00    +0.000 C 
ATOM      7  C   UNL     1       2.471  15.769  19.831  0.00  0.00    +0.000 C 
ATOM      8  C   UNL     1       2.153  13.979  19.726  0.00  0.00    +0.000 C 
ATOM      9  C   UNL     1       1.019  17.658  18.372  0.00  0.00    +0.000 A 
ATOM     10  N   UNL     1       1.837  17.736  17.274  0.00  0.00    +0.000 NA
ATOM     11  C   UNL     1       1.082  18.256  16.324  0.00  0.00    +0.000 A 
ATOM     12  N   UNL     1      -0.194  18.512  16.755  0.00  0.00    +0.000 N 
ATOM     13  C   UNL     1      -0.240  18.161  18.069  0.00  0.00    +0.000 A 
ATOM     14  C   UNL     1      -1.437  18.091  18.955  0.00  0.00    +0.000 C 
ATOM     15  C   UNL     1      -1.095  17.419  20.326  0.00  0.00    +0.000 C 
ATOM     16  N   UNL     1       0.361  17.390  20.676  0.00  0.00    +0.000 NA
ATOM     17  C   UNL     1       0.569  16.851  22.014  0.00  0.00    +0.000 C 
ATOM     18  H   UNL     1      -0.973  18.803  16.176  0.00  0.00    +0.000 HD
ENDROOT
BRANCH   1  24
ATOM     19  C   UNL     1       2.476   5.402  18.402  0.00  0.00    +0.000 C 
ATOM     20  C   UNL     1       2.831   6.789  18.910  0.00  0.00    +0.000 C 
ATOM     21  C   UNL     1       2.580   7.843  17.825  0.00  0.00    +0.000 C 
ATOM     22  C   UNL     1       1.832   8.839  18.607  0.00  0.00    +0.000 A 
ATOM     23  C   UNL     1       1.394  10.077  18.179  0.00  0.00    +0.000 A 
ATOM     24  C   UNL     1       0.685  10.843  19.080  0.00  0.00    +0.000 A 
ATOM     25  C   UNL     1       0.433  10.347  20.395  0.00  0.00    +0.000 A 
ATOM     26  C   UNL     1       0.866   9.085  20.800  0.00  0.00    +0.000 A 
ATOM     27  C   UNL     1       1.570   8.351  19.873  0.00  0.00    +0.000 A 
ATOM     28  O   UNL     1       2.038   7.084  20.090  0.00  0.00    +0.000 OA
ENDBRANCH   1  24
TORSDOF 1
ENDMDL
MODEL 8
REMARK VINA RESULT:      -7.4      3.465      8.700
REMARK  Name = 
REMARK  3 active torsions:
REMARK  status: ('A' for Active; 'I' for Inactive)
REMARK    1  A    between atoms: C_1  and  C_2
REMARK    2  A    between atoms: C_6  and  C_7
REMARK    3  A    between atoms: N_22  and  C_23
REMARK                            x       y       z     vdW  Elec       q    Type
REMARK                         _______ _______ _______ _____ _____    ______ ____
ROOT
ATOM      1  C   UNL     1       2.270   8.213  18.943  0.00  0.00    +0.000 C 
ATOM      2  O   UNL     1       2.890   8.604  17.941  0.00  0.00    +0.000 OA
ATOM      3  N   UNL     1       1.462   9.122  19.642  0.00  0.00    +0.000 N 
ATOM      4  C   UNL     1       1.471  10.391  18.843  0.00  0.00    +0.000 C 
ATOM      5  C   UNL     1       0.488  11.059  19.614  0.00  0.00    +0.000 C 
ATOM      6  C   UNL     1      -0.514  11.799  20.359  0.00  0.00    +0.000 C 
ATOM      7  C   UNL     1      -0.501  10.568  21.459  0.00  0.00    +0.000 C 
ATOM      8  C   UNL     1       0.386   9.064  20.942  0.00  0.00    +0.000 C 
ATOM      9  C   UNL     1       0.201  13.124  20.577  0.00  0.00    +0.000 A 
ATOM     10  N   UNL     1       1.050  13.463  21.600  0.00  0.00    +0.000 NA
ATOM     11  C   UNL     1       1.782  14.452  21.120  0.00  0.00    +0.000 A 
ATOM     12  N   UNL     1       1.450  14.766  19.827  0.00  0.00    +0.000 N 
ATOM     13  C   UNL     1       0.423  13.943  19.479  0.00  0.00    +0.000 A 
ATOM     14  C   UNL     1      -0.191  13.771  18.130  0.00  0.00    +0.000 C 
ATOM     15  C   UNL     1      -1.184  12.561  18.106  0.00  0.00    +0.000 C 
ATOM     16  N   UNL     1      -1.672  12.109  19.448  0.00  0.00    +0.000 NA
ATOM     17  C   UNL     1      -2.674  11.060  19.317  0.00  0.00    +0.000 C 
ATOM     18  H   UNL     1       1.947  15.408  19.222  0.00  0.00    +0.000 HD
ENDROOT
BRANCH   1  24
ATOM     19  C   UNL     1       3.607   1.187  18.474  0.00  0.00    +0.000 C 
ATOM     20  C   UNL     1       3.943   2.442  19.262  0.00  0.00    +0.000 C 
ATOM     21  C   UNL     1       4.255   3.607  18.316  0.00  0.00    +0.000 C 
ATOM     22  C   UNL     1       3.420   4.656  18.921  0.00  0.00    +0.000 A 
ATOM     23  C   UNL     1       3.346   5.983  18.545  0.00  0.00    +0.000 A 
ATOM     24  C   UNL     1       2.471   6.789  19.242  0.00  0.00    +0.000 A 
ATOM     25  C   UNL     1       1.691   6.244  20.306  0.00  0.00    +0.000 A 
ATOM     26  C   UNL     1       1.765   4.896  20.654  0.00  0.00    +0.000 A 
ATOM     27  C   UNL     1       2.649   4.123  19.936  0.00  0.00    +0.000 A 
ATOM     28  O   UNL     1       2.823   2.780  20.123  0.00  0.00    +0.000 OA
ENDBRANCH   1  24
TORSDOF 1
ENDMDL
MODEL 9
REMARK VINA RESULT:      -7.4      4.124      9.637
REMARK  Name = 
REMARK  3 active torsions:
REMARK  status: ('A' for Active; 'I' for Inactive)
REMARK    1  A    between atoms: C_1  and  C_2
REMARK    2  A    between atoms: C_6  and  C_7
REMARK    3  A    between atoms: N_22  and  C_23
REMARK                            x       y       z     vdW  Elec       q    Type
REMARK                         _______ _______ _______ _____ _____    ______ ____
ROOT
ATOM      1  C   UNL     1       0.700   8.978  20.618  0.00  0.00    +0.000 C 
ATOM      2  O   UNL     1       0.540   8.500  21.753  0.00  0.00    +0.000 OA
ATOM      3  N   UNL     1       0.048  10.173  20.283  0.00  0.00    +0.000 N 
ATOM      4  C   UNL     1      -0.618  10.654  21.539  0.00  0.00    +0.000 C 
ATOM      5  C   UNL     1      -1.031  11.905  21.019  0.00  0.00    +0.000 C 
ATOM      6  C   UNL     1      -1.483  13.202  20.549  0.00  0.00    +0.000 C 
ATOM      7  C   UNL     1      -0.984  12.750  19.041  0.00  0.00    +0.000 C 
ATOM      8  C   UNL     1       0.024  11.235  18.970  0.00  0.00    +0.000 C 
ATOM      9  C   UNL     1      -2.938  13.184  20.990  0.00  0.00    +0.000 A 
ATOM     10  N   UNL     1      -4.018  12.686  20.307  0.00  0.00    +0.000 NA
ATOM     11  C   UNL     1      -4.921  12.431  21.235  0.00  0.00    +0.000 A 
ATOM     12  N   UNL     1      -4.472  12.735  22.495  0.00  0.00    +0.000 N 
ATOM     13  C   UNL     1      -3.218  13.243  22.349  0.00  0.00    +0.000 A 
ATOM     14  C   UNL     1      -2.236  13.574  23.422  0.00  0.00    +0.000 C 
ATOM     15  C   UNL     1      -0.829  13.910  22.825  0.00  0.00    +0.000 C 
ATOM     16  N   UNL     1      -0.824  14.277  21.372  0.00  0.00    +0.000 NA
ATOM     17  C   UNL     1       0.507  14.683  20.937  0.00  0.00    +0.000 C 
ATOM     18  H   UNL     1      -4.944  12.521  23.365  0.00  0.00    +0.000 HD
ENDROOT
BRANCH   1  24
ATOM     19  C   UNL     1       5.866   4.624  18.223  0.00  0.00    +0.000 C 
ATOM     20  C   UNL     1       4.387   4.948  18.094  0.00  0.00    +0.000 C 
ATOM     21  C   UNL     1       3.745   5.108  19.477  0.00  0.00    +0.000 C 
ATOM     22  C   UNL     1       3.016   6.369  19.274  0.00  0.00    +0.000 A 
ATOM     23  C   UNL     1       2.166   6.993  20.165  0.00  0.00    +0.000 A 
ATOM     24  C   UNL     1       1.605   8.190  19.771  0.00  0.00    +0.000 A 
ATOM     25  C   UNL     1       1.910   8.733  18.486  0.00  0.00    +0.000 A 
ATOM     26  C   UNL     1       2.788   8.096  17.610  0.00  0.00    +0.000 A 
ATOM     27  C   UNL     1       3.328   6.905  18.039  0.00  0.00    +0.000 A 
ATOM     28  O   UNL     1       4.230   6.169  17.323  0.00  0.00    +0.000 OA
ENDBRANCH   1  24
TORSDOF 1
ENDMDL
