MODEL 1
REMARK VINA RESULT:      -7.6      0.000      0.000
REMARK  Name = 
REMARK  4 active torsions:
REMARK  status: ('A' for Active; 'I' for Inactive)
REMARK    1  A    between atoms: C_1  and  C_2
REMARK    2  A    between atoms: C_6  and  N_7
REMARK    3  A    between atoms: C_11  and  C_13
REMARK    4  A    between atoms: C_30  and  C_31
REMARK                            x       y       z     vdW  Elec       q    Type
REMARK                         _______ _______ _______ _____ _____    ______ ____
ROOT
ATOM      1  N   UNL     1       2.618   6.373  19.154  0.00  0.00    +0.000 N 
ATOM      2  C   UNL     1       1.645   6.116  20.245  0.00  0.00    +0.000 C 
ATOM      3  C   UNL     1       1.627   7.315  21.211  0.00  0.00    +0.000 C 
ATOM      4  N   UNL     1       1.324   8.571  20.504  0.00  0.00    +0.000 N 
ATOM      5  C   UNL     1       0.260   9.344  20.959  0.00  0.00    +0.000 C 
ATOM      6  O   UNL     1      -0.485   8.959  21.863  0.00  0.00    +0.000 OA
ATOM      7  C   UNL     1       2.182   8.809  19.332  0.00  0.00    +0.000 C 
ATOM      8  C   UNL     1       2.265   7.592  18.390  0.00  0.00    +0.000 C 
ENDROOT
BRANCH   5   9
ATOM      9  C   UNL     1      -0.061  10.667  20.352  0.00  0.00    +0.000 A 
ATOM     10  C   UNL     1      -1.072  10.844  19.407  0.00  0.00    +0.000 A 
ATOM     11  C   UNL     1      -1.365  12.114  18.900  0.00  0.00    +0.000 A 
ATOM     12  C   UNL     1      -0.553  13.209  19.250  0.00  0.00    +0.000 A 
ATOM     13  N   UNL     1      -0.694  14.497  18.781  0.00  0.00    +0.000 NA
ATOM     14  C   UNL     1       0.279  15.274  19.207  0.00  0.00    +0.000 A 
ATOM     15  N   UNL     1       0.393  16.587  18.852  0.00  0.00    +0.000 N 
ATOM     16  C   UNL     1      -0.673  17.211  18.068  0.00  0.00    +0.000 C 
ATOM     17  C   UNL     1      -0.173  17.557  16.667  0.00  0.00    +0.000 C 
ATOM     18  C   UNL     1       1.102  18.394  16.731  0.00  0.00    +0.000 C 
ATOM     19  C   UNL     1       2.165  17.691  17.573  0.00  0.00    +0.000 C 
ATOM     20  C   UNL     1       1.633  17.348  18.965  0.00  0.00    +0.000 C 
ATOM     21  S   UNL     1       1.366  14.477  20.300  0.00  0.00    +0.000 S 
ATOM     22  C   UNL     1       0.509  13.004  20.123  0.00  0.00    +0.000 A 
ATOM     23  C   UNL     1       0.762  11.751  20.704  0.00  0.00    +0.000 A 
ENDBRANCH   5   9
BRANCH   1  29
ATOM     24  C   UNL     1       5.775   4.136  15.954  0.00  0.00    +0.000 C 
ATOM     25  C   UNL     1       4.485   4.184  16.731  0.00  0.00    +0.000 A 
ATOM     26  C   UNL     1       3.540   3.174  16.525  0.00  0.00    +0.000 A 
ATOM     27  C   UNL     1       2.327   3.194  17.198  0.00  0.00    +0.000 A 
ATOM     28  C   UNL     1       2.033   4.246  18.067  0.00  0.00    +0.000 A 
ATOM     29  C   UNL     1       2.944   5.289  18.305  0.00  0.00    +0.000 A 
ATOM     30  C   UNL     1       4.213   5.223  17.662  0.00  0.00    +0.000 A 
ATOM     31  C   UNL     1       5.294   6.243  17.949  0.00  0.00    +0.000 C 
ENDBRANCH   1  29
TORSDOF 2
ENDMDL
MODEL 2
REMARK VINA RESULT:      -7.5      6.713     10.026
REMARK  Name = 
REMARK  4 active torsions:
REMARK  status: ('A' for Active; 'I' for Inactive)
REMARK    1  A    between atoms: C_1  and  C_2
REMARK    2  A    between atoms: C_6  and  N_7
REMARK    3  A    between atoms: C_11  and  C_13
REMARK    4  A    between atoms: C_30  and  C_31
REMARK                            x       y       z     vdW  Elec       q    Type
REMARK                         _______ _______ _______ _____ _____    ______ ____
ROOT
ATOM      1  N   UNL     1      -0.218  14.871  21.791  0.00  0.00    +0.000 N 
ATOM      2  C   UNL     1      -0.241  16.261  21.275  0.00  0.00    +0.000 C 
ATOM      3  C   UNL     1       1.122  16.928  21.533  0.00  0.00    +0.000 C 
ATOM      4  N   UNL     1       2.222  16.151  20.936  0.00  0.00    +0.000 N 
ATOM      5  C   UNL     1       3.087  16.798  20.058  0.00  0.00    +0.000 C 
ATOM      6  O   UNL     1       2.898  17.962  19.697  0.00  0.00    +0.000 OA
ATOM      7  C   UNL     1       2.213  14.729  21.317  0.00  0.00    +0.000 C 
ATOM      8  C   UNL     1       0.834  14.066  21.130  0.00  0.00    +0.000 C 
ENDROOT
BRANCH   5   9
ATOM      9  C   UNL     1       4.271  16.106  19.477  0.00  0.00    +0.000 A 
ATOM     10  C   UNL     1       4.205  15.329  18.319  0.00  0.00    +0.000 A 
ATOM     11  C   UNL     1       5.354  14.736  17.787  0.00  0.00    +0.000 A 
ATOM     12  C   UNL     1       6.571  14.818  18.490  0.00  0.00    +0.000 A 
ATOM     13  N   UNL     1       7.761  14.236  18.109  0.00  0.00    +0.000 NA
ATOM     14  C   UNL     1       8.692  14.402  19.024  0.00  0.00    +0.000 A 
ATOM     15  N   UNL     1       9.951  13.884  18.907  0.00  0.00    +0.000 N 
ATOM     16  C   UNL     1      10.339  13.224  17.661  0.00  0.00    +0.000 C 
ATOM     17  C   UNL     1      10.548  11.728  17.893  0.00  0.00    +0.000 C 
ATOM     18  C   UNL     1      11.525  11.483  19.040  0.00  0.00    +0.000 C 
ATOM     19  C   UNL     1      11.066  12.210  20.302  0.00  0.00    +0.000 C 
ATOM     20  C   UNL     1      10.854  13.701  20.037  0.00  0.00    +0.000 C 
ATOM     21  S   UNL     1       8.177  15.381  20.359  0.00  0.00    +0.000 S 
ATOM     22  C   UNL     1       6.606  15.519  19.689  0.00  0.00    +0.000 A 
ATOM     23  C   UNL     1       5.479  16.189  20.192  0.00  0.00    +0.000 A 
ENDBRANCH   5   9
BRANCH   1  29
ATOM     24  C   UNL     1      -3.982  12.912  24.476  0.00  0.00    +0.000 C 
ATOM     25  C   UNL     1      -3.303  13.214  23.166  0.00  0.00    +0.000 A 
ATOM     26  C   UNL     1      -3.863  12.706  21.989  0.00  0.00    +0.000 A 
ATOM     27  C   UNL     1      -3.255  12.936  20.763  0.00  0.00    +0.000 A 
ATOM     28  C   UNL     1      -2.060  13.655  20.704  0.00  0.00    +0.000 A 
ATOM     29  C   UNL     1      -1.453  14.181  21.857  0.00  0.00    +0.000 A 
ATOM     30  C   UNL     1      -2.120  13.998  23.102  0.00  0.00    +0.000 A 
ATOM     31  C   UNL     1      -1.595  14.628  24.375  0.00  0.00    +0.000 C 
ENDBRANCH   1  29
TORSDOF 2
ENDMDL
MODEL 3
REMARK VINA RESULT:      -7.5      2.820     10.538
REMARK  Name = 
REMARK  4 active torsions:
REMARK  status: ('A' for Active; 'I' for Inactive)
REMARK    1  A    between atoms: C_1  and  C_2
REMARK    2  A    between atoms: C_6  and  N_7
REMARK    3  A    between atoms: C_11  and  C_13
REMARK    4  A    between atoms: C_30  and  C_31
REMARK                            x       y       z     vdW  Elec       q    Type
REMARK                         _______ _______ _______ _____ _____    ______ ____
ROOT
ATOM      1  N   UNL     1       1.890  14.936  20.332  0.00  0.00    +0.000 N 
ATOM      2  C   UNL     1       0.519  14.516  20.715  0.00  0.00    +0.000 C 
ATOM      3  C   UNL     1      -0.070  13.617  19.613  0.00  0.00    +0.000 C 
ATOM      4  N   UNL     1       0.794  12.453  19.348  0.00  0.00    +0.000 N 
ATOM      5  C   UNL     1       0.235  11.182  19.429  0.00  0.00    +0.000 C 
ATOM      6  O   UNL     1      -0.926  11.005  19.808  0.00  0.00    +0.000 OA
ATOM      7  C   UNL     1       2.199  12.811  19.088  0.00  0.00    +0.000 C 
ATOM      8  C   UNL     1       2.781  13.768  20.147  0.00  0.00    +0.000 C 
ENDROOT
BRANCH   5   9
ATOM      9  C   UNL     1       1.019   9.960  19.096  0.00  0.00    +0.000 A 
ATOM     10  C   UNL     1       1.630   9.765  17.856  0.00  0.00    +0.000 A 
ATOM     11  C   UNL     1       2.395   8.621  17.607  0.00  0.00    +0.000 A 
ATOM     12  C   UNL     1       2.449   7.594  18.568  0.00  0.00    +0.000 A 
ATOM     13  N   UNL     1       3.115   6.396  18.430  0.00  0.00    +0.000 NA
ATOM     14  C   UNL     1       2.894   5.601  19.454  0.00  0.00    +0.000 A 
ATOM     15  N   UNL     1       3.406   4.338  19.540  0.00  0.00    +0.000 N 
ATOM     16  C   UNL     1       4.349   3.878  18.521  0.00  0.00    +0.000 C 
ATOM     17  C   UNL     1       3.724   2.768  17.678  0.00  0.00    +0.000 C 
ATOM     18  C   UNL     1       3.190   1.643  18.562  0.00  0.00    +0.000 C 
ATOM     19  C   UNL     1       2.224   2.195  19.609  0.00  0.00    +0.000 C 
ATOM     20  C   UNL     1       2.873   3.311  20.429  0.00  0.00    +0.000 C 
ATOM     21  S   UNL     1       1.934   6.334  20.698  0.00  0.00    +0.000 S 
ATOM     22  C   UNL     1       1.762   7.761  19.765  0.00  0.00    +0.000 A 
ATOM     23  C   UNL     1       1.060   8.940  20.062  0.00  0.00    +0.000 A 
ENDBRANCH   5   9
BRANCH   1  29
ATOM     24  C   UNL     1       5.318  18.569  20.839  0.00  0.00    +0.000 C 
ATOM     25  C   UNL     1       4.180  17.735  21.366  0.00  0.00    +0.000 A 
ATOM     26  C   UNL     1       3.783  17.907  22.697  0.00  0.00    +0.000 A 
ATOM     27  C   UNL     1       2.758  17.140  23.231  0.00  0.00    +0.000 A 
ATOM     28  C   UNL     1       2.134  16.169  22.447  0.00  0.00    +0.000 A 
ATOM     29  C   UNL     1       2.498  15.953  21.107  0.00  0.00    +0.000 A 
ATOM     30  C   UNL     1       3.504  16.791  20.547  0.00  0.00    +0.000 A 
ATOM     31  C   UNL     1       3.878  16.701  19.082  0.00  0.00    +0.000 C 
ENDBRANCH   1  29
TORSDOF 2
ENDMDL
MODEL 4
REMARK VINA RESULT:      -7.3      3.619      5.332
REMARK  Name = 
REMARK  4 active torsions:
REMARK  status: ('A' for Active; 'I' for Inactive)
REMARK    1  A    between atoms: C_1  and  C_2
REMARK    2  A    between atoms: C_6  and  N_7
REMARK    3  A    between atoms: C_11  and  C_13
REMARK    4  A    between atoms: C_30  and  C_31
REMARK                            x       y       z     vdW  Elec       q    Type
REMARK                         _______ _______ _______ _____ _____    ______ ____
ROOT
ATOM      1  N   UNL     1       2.657   6.808  18.387  0.00  0.00    +0.000 N 
ATOM      2  C   UNL     1       3.365   8.013  17.888  0.00  0.00    +0.000 C 
ATOM      3  C   UNL     1       2.335   9.070  17.449  0.00  0.00    +0.000 C 
ATOM      4  N   UNL     1       1.408   9.406  18.543  0.00  0.00    +0.000 N 
ATOM      5  C   UNL     1       1.277  10.741  18.912  0.00  0.00    +0.000 C 
ATOM      6  O   UNL     1       1.982  11.624  18.418  0.00  0.00    +0.000 OA
ATOM      7  C   UNL     1       0.774   8.228  19.160  0.00  0.00    +0.000 C 
ATOM      8  C   UNL     1       1.788   7.131  19.541  0.00  0.00    +0.000 C 
ENDROOT
BRANCH   5   9
ATOM      9  C   UNL     1       0.301  11.173  19.952  0.00  0.00    +0.000 A 
ATOM     10  C   UNL     1       0.487  10.932  21.314  0.00  0.00    +0.000 A 
ATOM     11  C   UNL     1      -0.436  11.398  22.256  0.00  0.00    +0.000 A 
ATOM     12  C   UNL     1      -1.629  12.006  21.822  0.00  0.00    +0.000 A 
ATOM     13  N   UNL     1      -2.644  12.458  22.637  0.00  0.00    +0.000 NA
ATOM     14  C   UNL     1      -3.673  12.882  21.935  0.00  0.00    +0.000 A 
ATOM     15  N   UNL     1      -4.825  13.342  22.506  0.00  0.00    +0.000 N 
ATOM     16  C   UNL     1      -4.889  13.499  23.959  0.00  0.00    +0.000 C 
ATOM     17  C   UNL     1      -5.869  12.493  24.561  0.00  0.00    +0.000 C 
ATOM     18  C   UNL     1      -7.233  12.581  23.879  0.00  0.00    +0.000 C 
ATOM     19  C   UNL     1      -7.089  12.423  22.367  0.00  0.00    +0.000 C 
ATOM     20  C   UNL     1      -6.095  13.434  21.795  0.00  0.00    +0.000 C 
ATOM     21  S   UNL     1      -3.398  12.846  20.223  0.00  0.00    +0.000 S 
ATOM     22  C   UNL     1      -1.845  12.160  20.458  0.00  0.00    +0.000 A 
ATOM     23  C   UNL     1      -0.889  11.774  19.505  0.00  0.00    +0.000 A 
ENDBRANCH   5   9
BRANCH   1  29
ATOM     24  C   UNL     1       3.101   1.807  18.448  0.00  0.00    +0.000 C 
ATOM     25  C   UNL     1       3.658   3.192  18.649  0.00  0.00    +0.000 A 
ATOM     26  C   UNL     1       4.949   3.325  19.172  0.00  0.00    +0.000 A 
ATOM     27  C   UNL     1       5.491   4.582  19.400  0.00  0.00    +0.000 A 
ATOM     28  C   UNL     1       4.735   5.724  19.133  0.00  0.00    +0.000 A 
ATOM     29  C   UNL     1       3.432   5.645  18.613  0.00  0.00    +0.000 A 
ATOM     30  C   UNL     1       2.910   4.354  18.318  0.00  0.00    +0.000 A 
ATOM     31  C   UNL     1       1.560   4.183  17.653  0.00  0.00    +0.000 C 
ENDBRANCH   1  29
TORSDOF 2
ENDMDL
MODEL 5
REMARK VINA RESULT:      -7.3      3.798     10.575
REMARK  Name = 
REMARK  4 active torsions:
REMARK  status: ('A' for Active; 'I' for Inactive)
REMARK    1  A    between atoms: C_1  and  C_2
REMARK    2  A    between atoms: C_6  and  N_7
REMARK    3  A    between atoms: C_11  and  C_13
REMARK    4  A    between atoms: C_30  and  C_31
REMARK                            x       y       z     vdW  Elec       q    Type
REMARK                         _______ _______ _______ _____ _____    ______ ____
ROOT
ATOM      1  N   UNL     1      -3.022  13.304  21.493  0.00  0.00    +0.000 N 
ATOM      2  C   UNL     1      -2.211  14.301  20.753  0.00  0.00    +0.000 C 
ATOM      3  C   UNL     1      -0.715  14.028  20.994  0.00  0.00    +0.000 C 
ATOM      4  N   UNL     1      -0.351  12.652  20.616  0.00  0.00    +0.000 N 
ATOM      5  C   UNL     1       0.687  12.469  19.708  0.00  0.00    +0.000 C 
ATOM      6  O   UNL     1       1.235  13.419  19.146  0.00  0.00    +0.000 OA
ATOM      7  C   UNL     1      -1.214  11.626  21.227  0.00  0.00    +0.000 C 
ATOM      8  C   UNL     1      -2.717  11.924  21.054  0.00  0.00    +0.000 C 
ENDROOT
BRANCH   5   9
ATOM      9  C   UNL     1       1.170  11.109  19.337  0.00  0.00    +0.000 A 
ATOM     10  C   UNL     1       1.598  10.780  18.050  0.00  0.00    +0.000 A 
ATOM     11  C   UNL     1       2.086   9.501  17.763  0.00  0.00    +0.000 A 
ATOM     12  C   UNL     1       2.030   8.495  18.746  0.00  0.00    +0.000 A 
ATOM     13  N   UNL     1       2.423   7.185  18.580  0.00  0.00    +0.000 NA
ATOM     14  C   UNL     1       2.152   6.462  19.645  0.00  0.00    +0.000 A 
ATOM     15  N   UNL     1       2.405   5.122  19.720  0.00  0.00    +0.000 N 
ATOM     16  C   UNL     1       3.126   4.469  18.627  0.00  0.00    +0.000 C 
ATOM     17  C   UNL     1       2.206   3.501  17.886  0.00  0.00    +0.000 C 
ATOM     18  C   UNL     1       1.550   2.518  18.853  0.00  0.00    +0.000 C 
ATOM     19  C   UNL     1       0.828   3.266  19.972  0.00  0.00    +0.000 C 
ATOM     20  C   UNL     1       1.770   4.235  20.688  0.00  0.00    +0.000 C 
ATOM     21  S   UNL     1       1.493   7.389  20.955  0.00  0.00    +0.000 S 
ATOM     22  C   UNL     1       1.517   8.811  19.998  0.00  0.00    +0.000 A 
ATOM     23  C   UNL     1       1.103  10.112  20.326  0.00  0.00    +0.000 A 
ENDBRANCH   5   9
BRANCH   1  29
ATOM     24  C   UNL     1      -7.318  13.110  24.085  0.00  0.00    +0.000 C 
ATOM     25  C   UNL     1      -6.530  13.443  22.846  0.00  0.00    +0.000 A 
ATOM     26  C   UNL     1      -7.217  13.902  21.717  0.00  0.00    +0.000 A 
ATOM     27  C   UNL     1      -6.534  14.193  20.546  0.00  0.00    +0.000 A 
ATOM     28  C   UNL     1      -5.153  14.001  20.480  0.00  0.00    +0.000 A 
ATOM     29  C   UNL     1      -4.416  13.537  21.583  0.00  0.00    +0.000 A 
ATOM     30  C   UNL     1      -5.116  13.306  22.801  0.00  0.00    +0.000 A 
ATOM     31  C   UNL     1      -4.384  12.913  24.067  0.00  0.00    +0.000 C 
ENDBRANCH   1  29
TORSDOF 2
ENDMDL
MODEL 6
REMARK VINA RESULT:      -7.3      3.361      4.370
REMARK  Name = 
REMARK  4 active torsions:
REMARK  status: ('A' for Active; 'I' for Inactive)
REMARK    1  A    between atoms: C_1  and  C_2
REMARK    2  A    between atoms: C_6  and  N_7
REMARK    3  A    between atoms: C_11  and  C_13
REMARK    4  A    between atoms: C_30  and  C_31
REMARK                            x       y       z     vdW  Elec       q    Type
REMARK                         _______ _______ _______ _____ _____    ______ ____
ROOT
ATOM      1  N   UNL     1       2.546   6.850  18.601  0.00  0.00    +0.000 N 
ATOM      2  C   UNL     1       3.132   7.944  17.786  0.00  0.00    +0.000 C 
ATOM      3  C   UNL     1       2.055   9.005  17.500  0.00  0.00    +0.000 C 
ATOM      4  N   UNL     1       1.463   9.522  18.747  0.00  0.00    +0.000 N 
ATOM      5  C   UNL     1       1.476  10.896  18.964  0.00  0.00    +0.000 C 
ATOM      6  O   UNL     1       2.049  11.671  18.196  0.00  0.00    +0.000 OA
ATOM      7  C   UNL     1       0.981   8.464  19.651  0.00  0.00    +0.000 C 
ATOM      8  C   UNL     1       2.026   7.356  19.891  0.00  0.00    +0.000 C 
ENDROOT
BRANCH   5   9
ATOM      9  C   UNL     1       0.825  11.504  20.159  0.00  0.00    +0.000 A 
ATOM     10  C   UNL     1      -0.009  10.786  21.017  0.00  0.00    +0.000 A 
ATOM     11  C   UNL     1      -0.559  11.390  22.152  0.00  0.00    +0.000 A 
ATOM     12  C   UNL     1      -0.375  12.769  22.368  0.00  0.00    +0.000 A 
ATOM     13  N   UNL     1      -0.906  13.498  23.410  0.00  0.00    +0.000 NA
ATOM     14  C   UNL     1      -0.643  14.781  23.282  0.00  0.00    +0.000 A 
ATOM     15  N   UNL     1      -1.093  15.724  24.162  0.00  0.00    +0.000 N 
ATOM     16  C   UNL     1      -1.789  15.295  25.375  0.00  0.00    +0.000 C 
ATOM     17  C   UNL     1      -3.257  15.714  25.323  0.00  0.00    +0.000 C 
ATOM     18  C   UNL     1      -3.391  17.210  25.042  0.00  0.00    +0.000 C 
ATOM     19  C   UNL     1      -2.631  17.588  23.772  0.00  0.00    +0.000 C 
ATOM     20  C   UNL     1      -1.169  17.146  23.848  0.00  0.00    +0.000 C 
ATOM     21  S   UNL     1       0.368  15.143  21.921  0.00  0.00    +0.000 S 
ATOM     22  C   UNL     1       0.384  13.494  21.457  0.00  0.00    +0.000 A 
ATOM     23  C   UNL     1       1.012  12.883  20.360  0.00  0.00    +0.000 A 
ENDBRANCH   5   9
BRANCH   1  29
ATOM     24  C   UNL     1       2.943   1.846  18.497  0.00  0.00    +0.000 C 
ATOM     25  C   UNL     1       3.521   3.219  18.717  0.00  0.00    +0.000 A 
ATOM     26  C   UNL     1       4.832   3.326  19.195  0.00  0.00    +0.000 A 
ATOM     27  C   UNL     1       5.395   4.570  19.439  0.00  0.00    +0.000 A 
ATOM     28  C   UNL     1       4.640   5.726  19.235  0.00  0.00    +0.000 A 
ATOM     29  C   UNL     1       3.318   5.675  18.763  0.00  0.00    +0.000 A 
ATOM     30  C   UNL     1       2.772   4.397  18.450  0.00  0.00    +0.000 A 
ATOM     31  C   UNL     1       1.397   4.258  17.832  0.00  0.00    +0.000 C 
ENDBRANCH   1  29
TORSDOF 2
ENDMDL
MODEL 7
REMARK VINA RESULT:      -7.3      3.548     10.391
REMARK  Name = 
REMARK  4 active torsions:
REMARK  status: ('A' for Active; 'I' for Inactive)
REMARK    1  A    between atoms: C_1  and  C_2
REMARK    2  A    between atoms: C_6  and  N_7
REMARK    3  A    between atoms: C_11  and  C_13
REMARK    4  A    between atoms: C_30  and  C_31
REMARK                            x       y       z     vdW  Elec       q    Type
REMARK                         _______ _______ _______ _____ _____    ______ ____
ROOT
ATOM      1  N   UNL     1      -1.395  13.748  21.944  0.00  0.00    +0.000 N 
ATOM      2  C   UNL     1      -2.421  13.271  20.984  0.00  0.00    +0.000 C 
ATOM      3  C   UNL     1      -1.736  12.837  19.675  0.00  0.00    +0.000 C 
ATOM      4  N   UNL     1      -0.710  11.809  19.920  0.00  0.00    +0.000 N 
ATOM      5  C   UNL     1      -0.793  10.612  19.217  0.00  0.00    +0.000 C 
ATOM      6  O   UNL     1      -1.746  10.356  18.478  0.00  0.00    +0.000 OA
ATOM      7  C   UNL     1       0.261  12.184  20.963  0.00  0.00    +0.000 C 
ATOM      8  C   UNL     1      -0.410  12.688  22.255  0.00  0.00    +0.000 C 
ENDROOT
BRANCH   5   9
ATOM      9  C   UNL     1       0.251   9.556  19.346  0.00  0.00    +0.000 A 
ATOM     10  C   UNL     1       0.562   8.940  20.559  0.00  0.00    +0.000 A 
ATOM     11  C   UNL     1       1.518   7.921  20.620  0.00  0.00    +0.000 A 
ATOM     12  C   UNL     1       2.266   7.595  19.473  0.00  0.00    +0.000 A 
ATOM     13  N   UNL     1       3.272   6.656  19.408  0.00  0.00    +0.000 NA
ATOM     14  C   UNL     1       3.853   6.653  18.228  0.00  0.00    +0.000 A 
ATOM     15  N   UNL     1       4.907   5.842  17.919  0.00  0.00    +0.000 N 
ATOM     16  C   UNL     1       5.342   4.835  18.887  0.00  0.00    +0.000 C 
ATOM     17  C   UNL     1       6.726   5.182  19.433  0.00  0.00    +0.000 C 
ATOM     18  C   UNL     1       7.723   5.403  18.297  0.00  0.00    +0.000 C 
ATOM     19  C   UNL     1       7.201   6.455  17.320  0.00  0.00    +0.000 C 
ATOM     20  C   UNL     1       5.811   6.087  16.800  0.00  0.00    +0.000 C 
ATOM     21  S   UNL     1       3.114   7.739  17.096  0.00  0.00    +0.000 S 
ATOM     22  C   UNL     1       2.009   8.278  18.290  0.00  0.00    +0.000 A 
ATOM     23  C   UNL     1       0.995   9.244  18.194  0.00  0.00    +0.000 A 
ENDBRANCH   5   9
BRANCH   1  29
ATOM     24  C   UNL     1      -0.961  17.432  25.329  0.00  0.00    +0.000 C 
ATOM     25  C   UNL     1      -1.647  16.209  24.778  0.00  0.00    +0.000 A 
ATOM     26  C   UNL     1      -2.707  15.653  25.502  0.00  0.00    +0.000 A 
ATOM     27  C   UNL     1      -3.349  14.510  25.046  0.00  0.00    +0.000 A 
ATOM     28  C   UNL     1      -2.918  13.892  23.872  0.00  0.00    +0.000 A 
ATOM     29  C   UNL     1      -1.854  14.407  23.111  0.00  0.00    +0.000 A 
ATOM     30  C   UNL     1      -1.246  15.617  23.550  0.00  0.00    +0.000 A 
ATOM     31  C   UNL     1      -0.171  16.300  22.731  0.00  0.00    +0.000 C 
ENDBRANCH   1  29
TORSDOF 2
ENDMDL
MODEL 8
REMARK VINA RESULT:      -7.2      5.955      9.174
REMARK  Name = 
REMARK  4 active torsions:
REMARK  status: ('A' for Active; 'I' for Inactive)
REMARK    1  A    between atoms: C_1  and  C_2
REMARK    2  A    between atoms: C_6  and  N_7
REMARK    3  A    between atoms: C_11  and  C_13
REMARK    4  A    between atoms: C_30  and  C_31
REMARK                            x       y       z     vdW  Elec       q    Type
REMARK                         _______ _______ _______ _____ _____    ______ ____
ROOT
ATOM      1  N   UNL     1      -0.598  13.146  19.648  0.00  0.00    +0.000 N 
ATOM      2  C   UNL     1      -0.647  14.604  19.921  0.00  0.00    +0.000 C 
ATOM      3  C   UNL     1       0.544  15.000  20.811  0.00  0.00    +0.000 C 
ATOM      4  N   UNL     1       1.827  14.611  20.200  0.00  0.00    +0.000 N 
ATOM      5  C   UNL     1       2.797  15.591  20.019  0.00  0.00    +0.000 C 
ATOM      6  O   UNL     1       2.576  16.779  20.264  0.00  0.00    +0.000 OA
ATOM      7  C   UNL     1       1.878  13.196  19.792  0.00  0.00    +0.000 C 
ATOM      8  C   UNL     1       0.655  12.767  18.958  0.00  0.00    +0.000 C 
ENDROOT
BRANCH   5   9
ATOM      9  C   UNL     1       4.149  15.263  19.484  0.00  0.00    +0.000 A 
ATOM     10  C   UNL     1       4.385  14.983  18.138  0.00  0.00    +0.000 A 
ATOM     11  C   UNL     1       5.680  14.726  17.677  0.00  0.00    +0.000 A 
ATOM     12  C   UNL     1       6.741  14.623  18.596  0.00  0.00    +0.000 A 
ATOM     13  N   UNL     1       8.049  14.321  18.285  0.00  0.00    +0.000 NA
ATOM     14  C   UNL     1       8.785  14.194  19.368  0.00  0.00    +0.000 A 
ATOM     15  N   UNL     1      10.108  13.855  19.334  0.00  0.00    +0.000 N 
ATOM     16  C   UNL     1      10.786  13.751  18.043  0.00  0.00    +0.000 C 
ATOM     17  C   UNL     1      11.170  12.300  17.758  0.00  0.00    +0.000 C 
ATOM     18  C   UNL     1      11.973  11.709  18.915  0.00  0.00    +0.000 C 
ATOM     19  C   UNL     1      11.213  11.864  20.231  0.00  0.00    +0.000 C 
ATOM     20  C   UNL     1      10.832  13.323  20.483  0.00  0.00    +0.000 C 
ATOM     21  S   UNL     1       7.922  14.549  20.830  0.00  0.00    +0.000 S 
ATOM     22  C   UNL     1       6.477  14.815  19.947  0.00  0.00    +0.000 A 
ATOM     23  C   UNL     1       5.198  15.157  20.414  0.00  0.00    +0.000 A 
ENDBRANCH   5   9
BRANCH   1  29
ATOM     24  C   UNL     1      -5.453  11.875  19.811  0.00  0.00    +0.000 C 
ATOM     25  C   UNL     1      -4.118  11.929  19.117  0.00  0.00    +0.000 A 
ATOM     26  C   UNL     1      -3.979  11.288  17.881  0.00  0.00    +0.000 A 
ATOM     27  C   UNL     1      -2.759  11.288  17.220  0.00  0.00    +0.000 A 
ATOM     28  C   UNL     1      -1.652  11.907  17.803  0.00  0.00    +0.000 A 
ATOM     29  C   UNL     1      -1.737  12.559  19.045  0.00  0.00    +0.000 A 
ATOM     30  C   UNL     1      -3.008  12.613  19.683  0.00  0.00    +0.000 A 
ATOM     31  C   UNL     1      -3.213  13.390  20.966  0.00  0.00    +0.000 C 
ENDBRANCH   1  29
TORSDOF 2
ENDMDL
MODEL 9
REMARK VINA RESULT:      -7.2      3.502     10.505
REMARK  Name = 
REMARK  4 active torsions:
REMARK  status: ('A' for Active; 'I' for Inactive)
REMARK    1  A    between atoms: C_1  and  C_2
REMARK    2  A    between atoms: C_6  and  N_7
REMARK    3  A    between atoms: C_11  and  C_13
REMARK    4  A    between atoms: C_30  and  C_31
REMARK                            x       y       z     vdW  Elec       q    Type
REMARK                         _______ _______ _______ _____ _____    ______ ____
ROOT
ATOM      1  N   UNL     1      -3.269  11.939  19.437  0.00  0.00    +0.000 N 
ATOM      2  C   UNL     1      -2.233  13.001  19.419  0.00  0.00    +0.000 C 
ATOM      3  C   UNL     1      -1.029  12.560  20.270  0.00  0.00    +0.000 C 
ATOM      4  N   UNL     1      -0.486  11.271  19.807  0.00  0.00    +0.000 N 
ATOM      5  C   UNL     1       0.866  11.202  19.485  0.00  0.00    +0.000 C 
ATOM      6  O   UNL     1       1.587  12.202  19.483  0.00  0.00    +0.000 OA
ATOM      7  C   UNL     1      -1.504  10.214  19.685  0.00  0.00    +0.000 C 
ATOM      8  C   UNL     1      -2.747  10.665  18.893  0.00  0.00    +0.000 C 
ENDROOT
BRANCH   5   9
ATOM      9  C   UNL     1       1.509   9.918  19.088  0.00  0.00    +0.000 A 
ATOM     10  C   UNL     1       2.015   9.685  17.808  0.00  0.00    +0.000 A 
ATOM     11  C   UNL     1       2.651   8.479  17.498  0.00  0.00    +0.000 A 
ATOM     12  C   UNL     1       2.675   7.438  18.445  0.00  0.00    +0.000 A 
ATOM     13  N   UNL     1       3.216   6.186  18.251  0.00  0.00    +0.000 NA
ATOM     14  C   UNL     1       2.992   5.399  19.282  0.00  0.00    +0.000 A 
ATOM     15  N   UNL     1       3.390   4.093  19.322  0.00  0.00    +0.000 N 
ATOM     16  C   UNL     1       4.215   3.564  18.237  0.00  0.00    +0.000 C 
ATOM     17  C   UNL     1       3.434   2.528  17.430  0.00  0.00    +0.000 C 
ATOM     18  C   UNL     1       2.859   1.444  18.340  0.00  0.00    +0.000 C 
ATOM     19  C   UNL     1       2.021   2.068  19.455  0.00  0.00    +0.000 C 
ATOM     20  C   UNL     1       2.825   3.107  20.237  0.00  0.00    +0.000 C 
ATOM     21  S   UNL     1       2.190   6.200  20.595  0.00  0.00    +0.000 S 
ATOM     22  C   UNL     1       2.088   7.650  19.687  0.00  0.00    +0.000 A 
ATOM     23  C   UNL     1       1.520   8.884  20.041  0.00  0.00    +0.000 A 
ENDBRANCH   5   9
BRANCH   1  29
ATOM     24  C   UNL     1      -7.902  13.782  20.031  0.00  0.00    +0.000 C 
ATOM     25  C   UNL     1      -6.818  13.162  19.189  0.00  0.00    +0.000 A 
ATOM     26  C   UNL     1      -7.116  12.804  17.870  0.00  0.00    +0.000 A 
ATOM     27  C   UNL     1      -6.156  12.204  17.068  0.00  0.00    +0.000 A 
ATOM     28  C   UNL     1      -4.890  11.929  17.587  0.00  0.00    +0.000 A 
ATOM     29  C   UNL     1      -4.541  12.262  18.906  0.00  0.00    +0.000 A 
ATOM     30  C   UNL     1      -5.511  12.939  19.700  0.00  0.00    +0.000 A 
ATOM     31  C   UNL     1      -5.181  13.434  21.093  0.00  0.00    +0.000 C 
ENDBRANCH   1  29
TORSDOF 2
ENDMDL
