MODEL 1
REMARK VINA RESULT:      -8.4      0.000      0.000
REMARK  Name = 
REMARK  5 active torsions:
REMARK  status: ('A' for Active; 'I' for Inactive)
REMARK    1  A    between atoms: N_12  and  C_13
REMARK    2  A    between atoms: C_13  and  C_14
REMARK    3  A    between atoms: C_14  and  C_15
REMARK    4  A    between atoms: N_18  and  C_19
REMARK    5  A    between atoms: C_19  and  C_20
REMARK                            x       y       z     vdW  Elec       q    Type
REMARK                         _______ _______ _______ _____ _____    ______ ____
ROOT
ATOM      1  O   UNL     1       2.853   8.764  17.973  0.00  0.00    +0.000 OA
ATOM      2  C   UNL     1       2.956   7.585  18.254  0.00  0.00    +0.000 C 
ATOM      3  C   UNL     1       3.827   6.632  17.550  0.00  0.00    +0.000 A 
ATOM      4  C   UNL     1       4.687   6.892  16.496  0.00  0.00    +0.000 A 
ATOM      5  C   UNL     1       5.372   5.793  16.034  0.00  0.00    +0.000 A 
ATOM      6  C   UNL     1       5.204   4.530  16.577  0.00  0.00    +0.000 A 
ATOM      7  C   UNL     1       4.336   4.271  17.621  0.00  0.00    +0.000 A 
ATOM      8  C   UNL     1       3.625   5.353  18.121  0.00  0.00    +0.000 A 
ATOM      9  C   UNL     1       2.604   5.450  19.212  0.00  0.00    +0.000 C 
ATOM     10  C   UNL     1       2.682   4.613  20.458  0.00  0.00    +0.000 C 
ATOM     11  C   UNL     1       1.611   4.339  19.439  0.00  0.00    +0.000 C 
ATOM     12  N   UNL     1       2.282   6.861  19.233  0.00  0.00    +0.000 N 
ATOM     13  O   UNL     1       5.985   3.599  15.961  0.00  0.00    +0.000 OA
ATOM     14  C   UNL     1       6.660   4.413  14.979  0.00  0.00    +0.000 C 
ATOM     15  O   UNL     1       6.274   5.801  15.015  0.00  0.00    +0.000 OA
ENDROOT
BRANCH  12  16
ATOM     16  C   UNL     1       1.185   7.428  19.961  0.00  0.00    +0.000 C 
BRANCH  16  17
ATOM     17  C   UNL     1       1.585   8.079  21.292  0.00  0.00    +0.000 C 
BRANCH  17  18
ATOM     18  C   UNL     1       0.645   9.259  21.539  0.00  0.00    +0.000 C 
ATOM     19  C   UNL     1       0.359   9.495  23.027  0.00  0.00    +0.000 C 
ATOM     20  C   UNL     1      -0.836  10.427  23.137  0.00  0.00    +0.000 C 
ATOM     21  N   UNL     1      -0.599  11.721  22.480  0.00  0.00    +0.000 NA
ATOM     22  C   UNL     1      -0.076  11.587  21.100  0.00  0.00    +0.000 C 
ATOM     23  C   UNL     1       1.099  10.600  20.971  0.00  0.00    +0.000 C 
BRANCH  21  24
ATOM     24  C   UNL     1      -1.891  12.457  22.485  0.00  0.00    +0.000 C 
BRANCH  24  25
ATOM     25  C   UNL     1      -1.963  13.566  23.500  0.00  0.00    +0.000 A 
ATOM     26  C   UNL     1      -3.119  13.787  24.234  0.00  0.00    +0.000 A 
ATOM     27  C   UNL     1      -3.081  14.742  25.233  0.00  0.00    +0.000 A 
ATOM     28  C   UNL     1      -1.900  15.428  25.445  0.00  0.00    +0.000 A 
ATOM     29  N   UNL     1      -0.798  15.212  24.702  0.00  0.00    +0.000 NA
ATOM     30  N   UNL     1      -0.827  14.272  23.723  0.00  0.00    +0.000 NA
ENDBRANCH  24  25
ENDBRANCH  21  24
ENDBRANCH  17  18
ENDBRANCH  16  17
ENDBRANCH  12  16
TORSDOF 5
ENDMDL
MODEL 2
REMARK VINA RESULT:      -8.4      3.503     10.920
REMARK  Name = 
REMARK  5 active torsions:
REMARK  status: ('A' for Active; 'I' for Inactive)
REMARK    1  A    between atoms: N_12  and  C_13
REMARK    2  A    between atoms: C_13  and  C_14
REMARK    3  A    between atoms: C_14  and  C_15
REMARK    4  A    between atoms: N_18  and  C_19
REMARK    5  A    between atoms: C_19  and  C_20
REMARK                            x       y       z     vdW  Elec       q    Type
REMARK                         _______ _______ _______ _____ _____    ______ ____
ROOT
ATOM      1  O   UNL     1       1.254  10.595  22.015  0.00  0.00    +0.000 OA
ATOM      2  C   UNL     1       0.363  10.916  21.250  0.00  0.00    +0.000 C 
ATOM      3  C   UNL     1      -0.834  11.678  21.638  0.00  0.00    +0.000 A 
ATOM      4  C   UNL     1      -1.147  12.182  22.888  0.00  0.00    +0.000 A 
ATOM      5  C   UNL     1      -2.348  12.850  22.951  0.00  0.00    +0.000 A 
ATOM      6  C   UNL     1      -3.176  12.994  21.850  0.00  0.00    +0.000 A 
ATOM      7  C   UNL     1      -2.866  12.479  20.605  0.00  0.00    +0.000 A 
ATOM      8  C   UNL     1      -1.661  11.799  20.496  0.00  0.00    +0.000 A 
ATOM      9  C   UNL     1      -1.015  11.105  19.336  0.00  0.00    +0.000 C 
ATOM     10  C   UNL     1      -1.132  11.620  17.929  0.00  0.00    +0.000 C 
ATOM     11  C   UNL     1      -1.846  10.357  18.325  0.00  0.00    +0.000 C 
ATOM     12  N   UNL     1       0.231  10.627  19.895  0.00  0.00    +0.000 N 
ATOM     13  O   UNL     1      -4.308  13.690  22.147  0.00  0.00    +0.000 OA
ATOM     14  C   UNL     1      -4.099  13.969  23.548  0.00  0.00    +0.000 C 
ATOM     15  O   UNL     1      -2.864  13.436  24.065  0.00  0.00    +0.000 OA
ENDROOT
BRANCH  12  16
ATOM     16  C   UNL     1       1.110   9.705  19.238  0.00  0.00    +0.000 C 
BRANCH  16  17
ATOM     17  C   UNL     1       1.160   8.315  19.886  0.00  0.00    +0.000 C 
BRANCH  17  18
ATOM     18  C   UNL     1       2.392   7.589  19.348  0.00  0.00    +0.000 C 
ATOM     19  C   UNL     1       2.395   6.091  19.677  0.00  0.00    +0.000 C 
ATOM     20  C   UNL     1       3.795   5.555  19.423  0.00  0.00    +0.000 C 
ATOM     21  N   UNL     1       4.223   5.744  18.030  0.00  0.00    +0.000 NA
ATOM     22  C   UNL     1       4.021   7.127  17.540  0.00  0.00    +0.000 C 
ATOM     23  C   UNL     1       2.624   7.699  17.843  0.00  0.00    +0.000 C 
BRANCH  21  24
ATOM     24  C   UNL     1       5.659   5.363  17.959  0.00  0.00    +0.000 C 
BRANCH  24  25
ATOM     25  C   UNL     1       6.143   5.045  16.570  0.00  0.00    +0.000 A 
ATOM     26  C   UNL     1       5.445   4.165  15.756  0.00  0.00    +0.000 A 
ATOM     27  C   UNL     1       5.875   4.008  14.451  0.00  0.00    +0.000 A 
ATOM     28  C   UNL     1       6.977   4.729  14.029  0.00  0.00    +0.000 A 
ATOM     29  N   UNL     1       7.652   5.559  14.846  0.00  0.00    +0.000 NA
ATOM     30  N   UNL     1       7.232   5.721  16.127  0.00  0.00    +0.000 NA
ENDBRANCH  24  25
ENDBRANCH  21  24
ENDBRANCH  17  18
ENDBRANCH  16  17
ENDBRANCH  12  16
TORSDOF 5
ENDMDL
MODEL 3
REMARK VINA RESULT:      -8.3      2.845      4.105
REMARK  Name = 
REMARK  5 active torsions:
REMARK  status: ('A' for Active; 'I' for Inactive)
REMARK    1  A    between atoms: N_12  and  C_13
REMARK    2  A    between atoms: C_13  and  C_14
REMARK    3  A    between atoms: C_14  and  C_15
REMARK    4  A    between atoms: N_18  and  C_19
REMARK    5  A    between atoms: C_19  and  C_20
REMARK                            x       y       z     vdW  Elec       q    Type
REMARK                         _______ _______ _______ _____ _____    ______ ____
ROOT
ATOM      1  O   UNL     1       2.114   9.364  17.244  0.00  0.00    +0.000 OA
ATOM      2  C   UNL     1       1.927   8.869  18.340  0.00  0.00    +0.000 C 
ATOM      3  C   UNL     1       2.382   7.528  18.738  0.00  0.00    +0.000 A 
ATOM      4  C   UNL     1       3.110   6.624  17.984  0.00  0.00    +0.000 A 
ATOM      5  C   UNL     1       3.385   5.438  18.624  0.00  0.00    +0.000 A 
ATOM      6  C   UNL     1       2.957   5.173  19.914  0.00  0.00    +0.000 A 
ATOM      7  C   UNL     1       2.221   6.074  20.661  0.00  0.00    +0.000 A 
ATOM      8  C   UNL     1       1.922   7.286  20.054  0.00  0.00    +0.000 A 
ATOM      9  C   UNL     1       1.145   8.472  20.538  0.00  0.00    +0.000 C 
ATOM     10  C   UNL     1       1.176   8.919  21.973  0.00  0.00    +0.000 C 
ATOM     11  C   UNL     1      -0.071   8.294  21.411  0.00  0.00    +0.000 C 
ATOM     12  N   UNL     1       1.235   9.395  19.427  0.00  0.00    +0.000 N 
ATOM     13  O   UNL     1       3.346   3.940  20.341  0.00  0.00    +0.000 OA
ATOM     14  C   UNL     1       4.064   3.463  19.183  0.00  0.00    +0.000 C 
ATOM     15  O   UNL     1       4.088   4.403  18.091  0.00  0.00    +0.000 OA
ENDROOT
BRANCH  12  16
ATOM     16  C   UNL     1       0.462  10.597  19.312  0.00  0.00    +0.000 C 
BRANCH  16  17
ATOM     17  C   UNL     1       0.823  11.677  20.340  0.00  0.00    +0.000 C 
BRANCH  17  18
ATOM     18  C   UNL     1      -0.478  12.229  20.920  0.00  0.00    +0.000 C 
ATOM     19  C   UNL     1      -1.723  11.731  20.176  0.00  0.00    +0.000 C 
ATOM     20  C   UNL     1      -2.900  12.602  20.587  0.00  0.00    +0.000 C 
ATOM     21  N   UNL     1      -3.151  12.554  22.034  0.00  0.00    +0.000 NA
ATOM     22  C   UNL     1      -1.933  12.782  22.846  0.00  0.00    +0.000 C 
ATOM     23  C   UNL     1      -0.720  11.945  22.399  0.00  0.00    +0.000 C 
BRANCH  21  24
ATOM     24  C   UNL     1      -4.183  13.583  22.333  0.00  0.00    +0.000 C 
BRANCH  24  25
ATOM     25  C   UNL     1      -5.561  13.024  22.562  0.00  0.00    +0.000 A 
ATOM     26  C   UNL     1      -6.507  13.018  21.548  0.00  0.00    +0.000 A 
ATOM     27  C   UNL     1      -7.711  12.381  21.787  0.00  0.00    +0.000 A 
ATOM     28  C   UNL     1      -7.912  11.792  23.021  0.00  0.00    +0.000 A 
ATOM     29  N   UNL     1      -6.987  11.833  23.999  0.00  0.00    +0.000 NA
ATOM     30  N   UNL     1      -5.800  12.452  23.768  0.00  0.00    +0.000 NA
ENDBRANCH  24  25
ENDBRANCH  21  24
ENDBRANCH  17  18
ENDBRANCH  16  17
ENDBRANCH  12  16
TORSDOF 5
ENDMDL
MODEL 4
REMARK VINA RESULT:      -8.3      1.348      1.818
REMARK  Name = 
REMARK  5 active torsions:
REMARK  status: ('A' for Active; 'I' for Inactive)
REMARK    1  A    between atoms: N_12  and  C_13
REMARK    2  A    between atoms: C_13  and  C_14
REMARK    3  A    between atoms: C_14  and  C_15
REMARK    4  A    between atoms: N_18  and  C_19
REMARK    5  A    between atoms: C_19  and  C_20
REMARK                            x       y       z     vdW  Elec       q    Type
REMARK                         _______ _______ _______ _____ _____    ______ ____
ROOT
ATOM      1  O   UNL     1       2.944   8.750  17.860  0.00  0.00    +0.000 OA
ATOM      2  C   UNL     1       3.030   7.572  18.151  0.00  0.00    +0.000 C 
ATOM      3  C   UNL     1       3.857   6.592  17.430  0.00  0.00    +0.000 A 
ATOM      4  C   UNL     1       4.688   6.822  16.347  0.00  0.00    +0.000 A 
ATOM      5  C   UNL     1       5.334   5.703  15.875  0.00  0.00    +0.000 A 
ATOM      6  C   UNL     1       5.156   4.450  16.437  0.00  0.00    +0.000 A 
ATOM      7  C   UNL     1       4.316   4.222  17.511  0.00  0.00    +0.000 A 
ATOM      8  C   UNL     1       3.645   5.324  18.021  0.00  0.00    +0.000 A 
ATOM      9  C   UNL     1       2.661   5.455  19.142  0.00  0.00    +0.000 C 
ATOM     10  C   UNL     1       2.759   4.630  20.395  0.00  0.00    +0.000 C 
ATOM     11  C   UNL     1       1.651   4.369  19.413  0.00  0.00    +0.000 C 
ATOM     12  N   UNL     1       2.371   6.873  19.158  0.00  0.00    +0.000 N 
ATOM     13  O   UNL     1       5.896   3.495  15.808  0.00  0.00    +0.000 OA
ATOM     14  C   UNL     1       6.558   4.284  14.796  0.00  0.00    +0.000 C 
ATOM     15  O   UNL     1       6.204   5.681  14.829  0.00  0.00    +0.000 OA
ENDROOT
BRANCH  12  16
ATOM     16  C   UNL     1       1.311   7.472  19.914  0.00  0.00    +0.000 C 
BRANCH  16  17
ATOM     17  C   UNL     1       1.755   8.067  21.257  0.00  0.00    +0.000 C 
BRANCH  17  18
ATOM     18  C   UNL     1       0.889   9.295  21.537  0.00  0.00    +0.000 C 
ATOM     19  C   UNL     1       0.187   9.830  20.283  0.00  0.00    +0.000 C 
ATOM     20  C   UNL     1      -0.337  11.223  20.593  0.00  0.00    +0.000 C 
ATOM     21  N   UNL     1      -1.286  11.227  21.716  0.00  0.00    +0.000 NA
ATOM     22  C   UNL     1      -0.782  10.504  22.908  0.00  0.00    +0.000 C 
ATOM     23  C   UNL     1      -0.197   9.115  22.593  0.00  0.00    +0.000 C 
BRANCH  21  24
ATOM     24  C   UNL     1      -1.570  12.649  22.043  0.00  0.00    +0.000 C 
BRANCH  24  25
ATOM     25  C   UNL     1      -2.891  12.871  22.729  0.00  0.00    +0.000 A 
ATOM     26  C   UNL     1      -2.977  13.641  23.879  0.00  0.00    +0.000 A 
ATOM     27  C   UNL     1      -4.235  13.906  24.391  0.00  0.00    +0.000 A 
ATOM     28  C   UNL     1      -5.335  13.386  23.735  0.00  0.00    +0.000 A 
ATOM     29  N   UNL     1      -5.224  12.620  22.633  0.00  0.00    +0.000 NA
ATOM     30  N   UNL     1      -3.992  12.362  22.123  0.00  0.00    +0.000 NA
ENDBRANCH  24  25
ENDBRANCH  21  24
ENDBRANCH  17  18
ENDBRANCH  16  17
ENDBRANCH  12  16
TORSDOF 5
ENDMDL
MODEL 5
REMARK VINA RESULT:      -8.2      2.571      4.024
REMARK  Name = 
REMARK  5 active torsions:
REMARK  status: ('A' for Active; 'I' for Inactive)
REMARK    1  A    between atoms: N_12  and  C_13
REMARK    2  A    between atoms: C_13  and  C_14
REMARK    3  A    between atoms: C_14  and  C_15
REMARK    4  A    between atoms: N_18  and  C_19
REMARK    5  A    between atoms: C_19  and  C_20
REMARK                            x       y       z     vdW  Elec       q    Type
REMARK                         _______ _______ _______ _____ _____    ______ ____
ROOT
ATOM      1  O   UNL     1       1.848   9.980  17.499  0.00  0.00    +0.000 OA
ATOM      2  C   UNL     1       1.685   9.388  18.549  0.00  0.00    +0.000 C 
ATOM      3  C   UNL     1       2.169   8.027  18.824  0.00  0.00    +0.000 A 
ATOM      4  C   UNL     1       2.902   7.206  17.985  0.00  0.00    +0.000 A 
ATOM      5  C   UNL     1       3.207   5.974  18.515  0.00  0.00    +0.000 A 
ATOM      6  C   UNL     1       2.801   5.589  19.782  0.00  0.00    +0.000 A 
ATOM      7  C   UNL     1       2.059   6.407  20.613  0.00  0.00    +0.000 A 
ATOM      8  C   UNL     1       1.731   7.662  20.119  0.00  0.00    +0.000 A 
ATOM      9  C   UNL     1       0.939   8.786  20.713  0.00  0.00    +0.000 C 
ATOM     10  C   UNL     1       0.982   9.106  22.181  0.00  0.00    +0.000 C 
ATOM     11  C   UNL     1      -0.261   8.510  21.581  0.00  0.00    +0.000 C 
ATOM     12  N   UNL     1       0.998   9.804  19.686  0.00  0.00    +0.000 N 
ATOM     13  O   UNL     1       3.218   4.331  20.095  0.00  0.00    +0.000 OA
ATOM     14  C   UNL     1       3.928   3.970  18.891  0.00  0.00    +0.000 C 
ATOM     15  O   UNL     1       3.921   5.003  17.885  0.00  0.00    +0.000 OA
ENDROOT
BRANCH  12  16
ATOM     16  C   UNL     1       0.202  10.997  19.686  0.00  0.00    +0.000 C 
BRANCH  16  17
ATOM     17  C   UNL     1       0.680  12.070  20.673  0.00  0.00    +0.000 C 
BRANCH  17  18
ATOM     18  C   UNL     1      -0.469  12.369  21.635  0.00  0.00    +0.000 C 
ATOM     19  C   UNL     1      -0.359  13.753  22.287  0.00  0.00    +0.000 C 
ATOM     20  C   UNL     1      -1.320  13.798  23.465  0.00  0.00    +0.000 C 
ATOM     21  N   UNL     1      -2.713  13.565  23.059  0.00  0.00    +0.000 NA
ATOM     22  C   UNL     1      -2.879  12.366  22.204  0.00  0.00    +0.000 C 
ATOM     23  C   UNL     1      -1.872  12.284  21.042  0.00  0.00    +0.000 C 
BRANCH  21  24
ATOM     24  C   UNL     1      -3.516  13.440  24.304  0.00  0.00    +0.000 C 
BRANCH  24  25
ATOM     25  C   UNL     1      -4.995  13.285  24.071  0.00  0.00    +0.000 A 
ATOM     26  C   UNL     1      -5.726  14.284  23.446  0.00  0.00    +0.000 A 
ATOM     27  C   UNL     1      -7.054  14.031  23.153  0.00  0.00    +0.000 A 
ATOM     28  C   UNL     1      -7.582  12.802  23.502  0.00  0.00    +0.000 A 
ATOM     29  N   UNL     1      -6.858  11.857  24.130  0.00  0.00    +0.000 NA
ATOM     30  N   UNL     1      -5.552  12.098  24.415  0.00  0.00    +0.000 NA
ENDBRANCH  24  25
ENDBRANCH  21  24
ENDBRANCH  17  18
ENDBRANCH  16  17
ENDBRANCH  12  16
TORSDOF 5
ENDMDL
MODEL 6
REMARK VINA RESULT:      -8.1      3.720     10.676
REMARK  Name = 
REMARK  5 active torsions:
REMARK  status: ('A' for Active; 'I' for Inactive)
REMARK    1  A    between atoms: N_12  and  C_13
REMARK    2  A    between atoms: C_13  and  C_14
REMARK    3  A    between atoms: C_14  and  C_15
REMARK    4  A    between atoms: N_18  and  C_19
REMARK    5  A    between atoms: C_19  and  C_20
REMARK                            x       y       z     vdW  Elec       q    Type
REMARK                         _______ _______ _______ _____ _____    ______ ____
ROOT
ATOM      1  O   UNL     1       0.624   9.468  23.368  0.00  0.00    +0.000 OA
ATOM      2  C   UNL     1       0.284   9.965  22.311  0.00  0.00    +0.000 C 
ATOM      3  C   UNL     1      -0.794  10.955  22.162  0.00  0.00    +0.000 A 
ATOM      4  C   UNL     1      -1.572  11.513  23.162  0.00  0.00    +0.000 A 
ATOM      5  C   UNL     1      -2.514  12.411  22.717  0.00  0.00    +0.000 A 
ATOM      6  C   UNL     1      -2.670  12.722  21.377  0.00  0.00    +0.000 A 
ATOM      7  C   UNL     1      -1.899  12.154  20.380  0.00  0.00    +0.000 A 
ATOM      8  C   UNL     1      -0.934  11.242  20.784  0.00  0.00    +0.000 A 
ATOM      9  C   UNL     1       0.053  10.431  20.002  0.00  0.00    +0.000 C 
ATOM     10  C   UNL     1       0.721  10.959  18.763  0.00  0.00    +0.000 C 
ATOM     11  C   UNL     1      -0.309   9.869  18.651  0.00  0.00    +0.000 C 
ATOM     12  N   UNL     1       0.769   9.708  21.032  0.00  0.00    +0.000 N 
ATOM     13  O   UNL     1      -3.660  13.635  21.173  0.00  0.00    +0.000 OA
ATOM     14  C   UNL     1      -4.103  13.865  22.528  0.00  0.00    +0.000 C 
ATOM     15  O   UNL     1      -3.386  13.091  23.509  0.00  0.00    +0.000 OA
ENDROOT
BRANCH  12  16
ATOM     16  C   UNL     1       1.674   8.626  20.777  0.00  0.00    +0.000 C 
BRANCH  16  17
ATOM     17  C   UNL     1       1.056   7.234  20.966  0.00  0.00    +0.000 C 
BRANCH  17  18
ATOM     18  C   UNL     1       1.786   6.265  20.037  0.00  0.00    +0.000 C 
ATOM     19  C   UNL     1       2.924   6.931  19.253  0.00  0.00    +0.000 C 
ATOM     20  C   UNL     1       3.331   5.996  18.126  0.00  0.00    +0.000 C 
ATOM     21  N   UNL     1       3.786   4.689  18.619  0.00  0.00    +0.000 NA
ATOM     22  C   UNL     1       2.850   4.074  19.590  0.00  0.00    +0.000 C 
ATOM     23  C   UNL     1       2.388   5.032  20.704  0.00  0.00    +0.000 C 
BRANCH  21  24
ATOM     24  C   UNL     1       3.965   3.811  17.432  0.00  0.00    +0.000 C 
BRANCH  24  25
ATOM     25  C   UNL     1       5.181   4.134  16.606  0.00  0.00    +0.000 A 
ATOM     26  C   UNL     1       5.073   4.398  15.249  0.00  0.00    +0.000 A 
ATOM     27  C   UNL     1       6.209   4.805  14.574  0.00  0.00    +0.000 A 
ATOM     28  C   UNL     1       7.390   4.922  15.282  0.00  0.00    +0.000 A 
ATOM     29  N   UNL     1       7.475   4.636  16.595  0.00  0.00    +0.000 NA
ATOM     30  N   UNL     1       6.362   4.241  17.265  0.00  0.00    +0.000 NA
ENDBRANCH  24  25
ENDBRANCH  21  24
ENDBRANCH  17  18
ENDBRANCH  16  17
ENDBRANCH  12  16
TORSDOF 5
ENDMDL
MODEL 7
REMARK VINA RESULT:      -8.1      3.663      4.710
REMARK  Name = 
REMARK  5 active torsions:
REMARK  status: ('A' for Active; 'I' for Inactive)
REMARK    1  A    between atoms: N_12  and  C_13
REMARK    2  A    between atoms: C_13  and  C_14
REMARK    3  A    between atoms: C_14  and  C_15
REMARK    4  A    between atoms: N_18  and  C_19
REMARK    5  A    between atoms: C_19  and  C_20
REMARK                            x       y       z     vdW  Elec       q    Type
REMARK                         _______ _______ _______ _____ _____    ______ ____
ROOT
ATOM      1  O   UNL     1       6.081   5.573  19.686  0.00  0.00    +0.000 OA
ATOM      2  C   UNL     1       5.555   4.804  18.903  0.00  0.00    +0.000 C 
ATOM      3  C   UNL     1       5.911   4.686  17.481  0.00  0.00    +0.000 A 
ATOM      4  C   UNL     1       6.898   5.376  16.798  0.00  0.00    +0.000 A 
ATOM      5  C   UNL     1       6.995   5.059  15.463  0.00  0.00    +0.000 A 
ATOM      6  C   UNL     1       6.165   4.131  14.857  0.00  0.00    +0.000 A 
ATOM      7  C   UNL     1       5.173   3.452  15.540  0.00  0.00    +0.000 A 
ATOM      8  C   UNL     1       5.041   3.740  16.891  0.00  0.00    +0.000 A 
ATOM      9  C   UNL     1       4.087   3.225  17.925  0.00  0.00    +0.000 C 
ATOM     10  C   UNL     1       3.602   1.803  17.931  0.00  0.00    +0.000 C 
ATOM     11  C   UNL     1       2.656   2.915  17.569  0.00  0.00    +0.000 C 
ATOM     12  N   UNL     1       4.507   3.916  19.127  0.00  0.00    +0.000 N 
ATOM     13  O   UNL     1       6.445   3.979  13.533  0.00  0.00    +0.000 OA
ATOM     14  C   UNL     1       7.539   4.907  13.375  0.00  0.00    +0.000 C 
ATOM     15  O   UNL     1       7.889   5.598  14.591  0.00  0.00    +0.000 OA
ENDROOT
BRANCH  12  16
ATOM     16  C   UNL     1       3.761   3.930  20.351  0.00  0.00    +0.000 C 
BRANCH  16  17
ATOM     17  C   UNL     1       2.308   4.396  20.196  0.00  0.00    +0.000 C 
BRANCH  17  18
ATOM     18  C   UNL     1       2.326   5.875  19.813  0.00  0.00    +0.000 C 
ATOM     19  C   UNL     1       2.006   6.114  18.332  0.00  0.00    +0.000 C 
ATOM     20  C   UNL     1       2.400   7.542  17.988  0.00  0.00    +0.000 C 
ATOM     21  N   UNL     1       1.682   8.532  18.803  0.00  0.00    +0.000 NA
ATOM     22  C   UNL     1       1.730   8.238  20.255  0.00  0.00    +0.000 C 
ATOM     23  C   UNL     1       1.387   6.779  20.607  0.00  0.00    +0.000 C 
BRANCH  21  24
ATOM     24  C   UNL     1       2.290   9.859  18.514  0.00  0.00    +0.000 C 
BRANCH  24  25
ATOM     25  C   UNL     1       1.330  11.012  18.625  0.00  0.00    +0.000 A 
ATOM     26  C   UNL     1       1.790  12.311  18.784  0.00  0.00    +0.000 A 
ATOM     27  C   UNL     1       0.863  13.337  18.758  0.00  0.00    +0.000 A 
ATOM     28  C   UNL     1      -0.469  13.015  18.581  0.00  0.00    +0.000 A 
ATOM     29  N   UNL     1      -0.895  11.745  18.453  0.00  0.00    +0.000 NA
ATOM     30  N   UNL     1       0.011  10.734  18.472  0.00  0.00    +0.000 NA
ENDBRANCH  24  25
ENDBRANCH  21  24
ENDBRANCH  17  18
ENDBRANCH  16  17
ENDBRANCH  12  16
TORSDOF 5
ENDMDL
MODEL 8
REMARK VINA RESULT:      -8.0      3.741     10.798
REMARK  Name = 
REMARK  5 active torsions:
REMARK  status: ('A' for Active; 'I' for Inactive)
REMARK    1  A    between atoms: N_12  and  C_13
REMARK    2  A    between atoms: C_13  and  C_14
REMARK    3  A    between atoms: C_14  and  C_15
REMARK    4  A    between atoms: N_18  and  C_19
REMARK    5  A    between atoms: C_19  and  C_20
REMARK                            x       y       z     vdW  Elec       q    Type
REMARK                         _______ _______ _______ _____ _____    ______ ____
ROOT
ATOM      1  O   UNL     1       0.339  10.009  23.278  0.00  0.00    +0.000 OA
ATOM      2  C   UNL     1      -0.129  10.502  22.270  0.00  0.00    +0.000 C 
ATOM      3  C   UNL     1      -1.278  11.421  22.246  0.00  0.00    +0.000 A 
ATOM      4  C   UNL     1      -1.994  11.907  23.326  0.00  0.00    +0.000 A 
ATOM      5  C   UNL     1      -3.029  12.749  22.993  0.00  0.00    +0.000 A 
ATOM      6  C   UNL     1      -3.329  13.073  21.681  0.00  0.00    +0.000 A 
ATOM      7  C   UNL     1      -2.620  12.578  20.603  0.00  0.00    +0.000 A 
ATOM      8  C   UNL     1      -1.564  11.724  20.894  0.00  0.00    +0.000 A 
ATOM      9  C   UNL     1      -0.605  10.996  20.004  0.00  0.00    +0.000 C 
ATOM     10  C   UNL     1      -0.091  11.590  18.723  0.00  0.00    +0.000 C 
ATOM     11  C   UNL     1      -1.054  10.436  18.679  0.00  0.00    +0.000 C 
ATOM     12  N   UNL     1       0.250  10.303  20.945  0.00  0.00    +0.000 N 
ATOM     13  O   UNL     1      -4.391  13.922  21.593  0.00  0.00    +0.000 OA
ATOM     14  C   UNL     1      -4.719  14.097  22.988  0.00  0.00    +0.000 C 
ATOM     15  O   UNL     1      -3.865  13.353  23.879  0.00  0.00    +0.000 OA
ENDROOT
BRANCH  12  16
ATOM     16  C   UNL     1       1.194   9.288  20.582  0.00  0.00    +0.000 C 
BRANCH  16  17
ATOM     17  C   UNL     1       0.844   7.888  21.103  0.00  0.00    +0.000 C 
BRANCH  17  18
ATOM     18  C   UNL     1       1.888   6.910  20.565  0.00  0.00    +0.000 C 
ATOM     19  C   UNL     1       1.429   5.449  20.632  0.00  0.00    +0.000 C 
ATOM     20  C   UNL     1       2.646   4.562  20.421  0.00  0.00    +0.000 C 
ATOM     21  N   UNL     1       3.298   4.804  19.127  0.00  0.00    +0.000 NA
ATOM     22  C   UNL     1       3.559   6.239  18.864  0.00  0.00    +0.000 C 
ATOM     23  C   UNL     1       2.347   7.152  19.130  0.00  0.00    +0.000 C 
BRANCH  21  24
ATOM     24  C   UNL     1       4.567   4.029  19.125  0.00  0.00    +0.000 C 
BRANCH  24  25
ATOM     25  C   UNL     1       5.411   4.233  17.895  0.00  0.00    +0.000 A 
ATOM     26  C   UNL     1       6.716   4.693  17.993  0.00  0.00    +0.000 A 
ATOM     27  C   UNL     1       7.475   4.743  16.839  0.00  0.00    +0.000 A 
ATOM     28  C   UNL     1       6.895   4.340  15.651  0.00  0.00    +0.000 A 
ATOM     29  N   UNL     1       5.618   3.920  15.577  0.00  0.00    +0.000 NA
ATOM     30  N   UNL     1       4.869   3.863  16.708  0.00  0.00    +0.000 NA
ENDBRANCH  24  25
ENDBRANCH  21  24
ENDBRANCH  17  18
ENDBRANCH  16  17
ENDBRANCH  12  16
TORSDOF 5
ENDMDL
MODEL 9
REMARK VINA RESULT:      -7.9      2.005      2.964
REMARK  Name = 
REMARK  5 active torsions:
REMARK  status: ('A' for Active; 'I' for Inactive)
REMARK    1  A    between atoms: N_12  and  C_13
REMARK    2  A    between atoms: C_13  and  C_14
REMARK    3  A    between atoms: C_14  and  C_15
REMARK    4  A    between atoms: N_18  and  C_19
REMARK    5  A    between atoms: C_19  and  C_20
REMARK                            x       y       z     vdW  Elec       q    Type
REMARK                         _______ _______ _______ _____ _____    ______ ____
ROOT
ATOM      1  O   UNL     1       2.539   5.256  20.904  0.00  0.00    +0.000 OA
ATOM      2  C   UNL     1       2.629   6.012  19.955  0.00  0.00    +0.000 C 
ATOM      3  C   UNL     1       3.608   5.871  18.866  0.00  0.00    +0.000 A 
ATOM      4  C   UNL     1       4.553   4.873  18.703  0.00  0.00    +0.000 A 
ATOM      5  C   UNL     1       5.341   5.010  17.584  0.00  0.00    +0.000 A 
ATOM      6  C   UNL     1       5.200   6.068  16.702  0.00  0.00    +0.000 A 
ATOM      7  C   UNL     1       4.263   7.070  16.874  0.00  0.00    +0.000 A 
ATOM      8  C   UNL     1       3.444   6.970  17.990  0.00  0.00    +0.000 A 
ATOM      9  C   UNL     1       2.352   7.858  18.501  0.00  0.00    +0.000 C 
ATOM     10  C   UNL     1       1.418   8.591  17.579  0.00  0.00    +0.000 C 
ATOM     11  C   UNL     1       2.448   9.356  18.364  0.00  0.00    +0.000 C 
ATOM     12  N   UNL     1       1.899   7.166  19.689  0.00  0.00    +0.000 N 
ATOM     13  O   UNL     1       6.085   5.996  15.669  0.00  0.00    +0.000 OA
ATOM     14  C   UNL     1       6.791   4.781  15.997  0.00  0.00    +0.000 C 
ATOM     15  O   UNL     1       6.329   4.154  17.210  0.00  0.00    +0.000 OA
ENDROOT
BRANCH  12  16
ATOM     16  C   UNL     1       1.009   7.730  20.661  0.00  0.00    +0.000 C 
BRANCH  16  17
ATOM     17  C   UNL     1       1.658   8.784  21.570  0.00  0.00    +0.000 C 
BRANCH  17  18
ATOM     18  C   UNL     1       0.611   9.857  21.867  0.00  0.00    +0.000 C 
ATOM     19  C   UNL     1      -0.260  10.197  20.651  0.00  0.00    +0.000 C 
ATOM     20  C   UNL     1      -0.997  11.493  20.946  0.00  0.00    +0.000 C 
ATOM     21  N   UNL     1      -1.851  11.392  22.137  0.00  0.00    +0.000 NA
ATOM     22  C   UNL     1      -1.147  10.830  23.314  0.00  0.00    +0.000 C 
ATOM     23  C   UNL     1      -0.351   9.548  23.011  0.00  0.00    +0.000 C 
BRANCH  21  24
ATOM     24  C   UNL     1      -2.357  12.760  22.429  0.00  0.00    +0.000 C 
BRANCH  24  25
ATOM     25  C   UNL     1      -3.781  12.798  22.916  0.00  0.00    +0.000 A 
ATOM     26  C   UNL     1      -4.790  13.328  22.127  0.00  0.00    +0.000 A 
ATOM     27  C   UNL     1      -6.092  13.224  22.582  0.00  0.00    +0.000 A 
ATOM     28  C   UNL     1      -6.318  12.605  23.797  0.00  0.00    +0.000 A 
ATOM     29  N   UNL     1      -5.318  12.120  24.557  0.00  0.00    +0.000 NA
ATOM     30  N   UNL     1      -4.038  12.215  24.113  0.00  0.00    +0.000 NA
ENDBRANCH  24  25
ENDBRANCH  21  24
ENDBRANCH  17  18
ENDBRANCH  16  17
ENDBRANCH  12  16
TORSDOF 5
ENDMDL
