MODEL 1
REMARK VINA RESULT:      -6.2      0.000      0.000
REMARK  Name = 
REMARK  5 active torsions:
REMARK  status: ('A' for Active; 'I' for Inactive)
REMARK    1  A    between atoms: C_1  and  C_2
REMARK    2  A    between atoms: C_2  and  C_3
REMARK    3  A    between atoms: C_6  and  O_7
REMARK    4  A    between atoms: C_12  and  S_13
REMARK    5  A    between atoms: C_14  and  N_15
REMARK                            x       y       z     vdW  Elec       q    Type
REMARK                         _______ _______ _______ _____ _____    ______ ____
ROOT
ATOM      1  C   UNL     1       3.238   3.616  17.075  0.00  0.00    +0.000 C 
ATOM      2  C   UNL     1       3.909   4.207  18.341  0.00  0.00    +0.000 C 
ATOM      3  C   UNL     1       5.373   4.548  17.939  0.00  0.00    +0.000 C 
ATOM      4  C   UNL     1       3.165   5.496  18.749  0.00  0.00    +0.000 A 
ATOM      5  C   UNL     1       3.181   6.622  17.895  0.00  0.00    +0.000 A 
ATOM      6  C   UNL     1       2.550   7.809  18.256  0.00  0.00    +0.000 A 
ATOM      7  C   UNL     1       1.874   7.915  19.459  0.00  0.00    +0.000 A 
ATOM      8  C   UNL     1       1.825   6.814  20.307  0.00  0.00    +0.000 A 
ATOM      9  C   UNL     1       2.453   5.601  19.963  0.00  0.00    +0.000 A 
ATOM     10  C   UNL     1       2.390   4.486  20.976  0.00  0.00    +0.000 C 
ATOM     11  C   UNL     1       2.718   3.104  20.418  0.00  0.00    +0.000 C 
ATOM     12  C   UNL     1       3.988   3.183  19.539  0.00  0.00    +0.000 C 
ENDROOT
BRANCH  12  13
ATOM     13  N   UNL     1       4.458   1.840  19.139  0.00  0.00    +0.000 NA
ATOM     14  H   UNL     1       5.481   1.858  19.091  0.00  0.00    +0.000 HD
ATOM     15  H   UNL     1       4.161   1.649  18.182  0.00  0.00    +0.000 HD
ENDBRANCH  12  13
BRANCH   6  16
ATOM     16  O   UNL     1       2.583   8.908  17.450  0.00  0.00    +0.000 OA
ATOM     17  H   UNL     1       3.402   8.886  16.928  0.00  0.00    +0.000 HD
ENDBRANCH   6  16
BRANCH  11  18
ATOM     18  S   UNL     1       1.252   2.327  19.632  0.00  0.00    +0.000 S 
ATOM     19  H   UNL     1       1.116   3.218  18.638  0.00  0.00    +0.000 HD
ENDBRANCH  11  18
TORSDOF 3
ENDMDL
MODEL 2
REMARK VINA RESULT:      -6.1      1.803      2.233
REMARK  Name = 
REMARK  5 active torsions:
REMARK  status: ('A' for Active; 'I' for Inactive)
REMARK    1  A    between atoms: C_1  and  C_2
REMARK    2  A    between atoms: C_2  and  C_3
REMARK    3  A    between atoms: C_6  and  O_7
REMARK    4  A    between atoms: C_12  and  S_13
REMARK    5  A    between atoms: C_14  and  N_15
REMARK                            x       y       z     vdW  Elec       q    Type
REMARK                         _______ _______ _______ _____ _____    ______ ____
ROOT
ATOM      1  C   UNL     1       5.101   5.567  15.980  0.00  0.00    +0.000 C 
ATOM      2  C   UNL     1       5.369   6.059  17.425  0.00  0.00    +0.000 C 
ATOM      3  C   UNL     1       6.510   7.113  17.321  0.00  0.00    +0.000 C 
ATOM      4  C   UNL     1       4.091   6.725  17.976  0.00  0.00    +0.000 A 
ATOM      5  C   UNL     1       3.600   7.910  17.384  0.00  0.00    +0.000 A 
ATOM      6  C   UNL     1       2.470   8.551  17.885  0.00  0.00    +0.000 A 
ATOM      7  C   UNL     1       1.786   8.035  18.972  0.00  0.00    +0.000 A 
ATOM      8  C   UNL     1       2.236   6.857  19.559  0.00  0.00    +0.000 A 
ATOM      9  C   UNL     1       3.375   6.189  19.068  0.00  0.00    +0.000 A 
ATOM     10  C   UNL     1       3.815   4.952  19.810  0.00  0.00    +0.000 C 
ATOM     11  C   UNL     1       4.776   4.056  19.033  0.00  0.00    +0.000 C 
ATOM     12  C   UNL     1       5.885   4.918  18.386  0.00  0.00    +0.000 C 
ENDROOT
BRANCH  12  13
ATOM     13  N   UNL     1       6.949   4.081  17.791  0.00  0.00    +0.000 NA
ATOM     14  H   UNL     1       6.572   3.627  16.954  0.00  0.00    +0.000 HD
ATOM     15  H   UNL     1       7.165   3.309  18.424  0.00  0.00    +0.000 HD
ENDBRANCH  12  13
BRANCH   6  16
ATOM     16  O   UNL     1       2.005   9.709  17.336  0.00  0.00    +0.000 OA
ATOM     17  H   UNL     1       1.925  10.375  18.038  0.00  0.00    +0.000 HD
ENDBRANCH   6  16
BRANCH  11  18
ATOM     18  S   UNL     1       3.881   2.925  17.898  0.00  0.00    +0.000 S 
ATOM     19  H   UNL     1       4.245   1.781  18.498  0.00  0.00    +0.000 HD
ENDBRANCH  11  18
TORSDOF 3
ENDMDL
MODEL 3
REMARK VINA RESULT:      -6.1      2.962      4.271
REMARK  Name = 
REMARK  5 active torsions:
REMARK  status: ('A' for Active; 'I' for Inactive)
REMARK    1  A    between atoms: C_1  and  C_2
REMARK    2  A    between atoms: C_2  and  C_3
REMARK    3  A    between atoms: C_6  and  O_7
REMARK    4  A    between atoms: C_12  and  S_13
REMARK    5  A    between atoms: C_14  and  N_15
REMARK                            x       y       z     vdW  Elec       q    Type
REMARK                         _______ _______ _______ _____ _____    ______ ____
ROOT
ATOM      1  C   UNL     1       2.147   3.688  17.305  0.00  0.00    +0.000 C 
ATOM      2  C   UNL     1       3.457   3.330  18.053  0.00  0.00    +0.000 C 
ATOM      3  C   UNL     1       3.545   1.776  18.057  0.00  0.00    +0.000 C 
ATOM      4  C   UNL     1       4.655   3.919  17.281  0.00  0.00    +0.000 A 
ATOM      5  C   UNL     1       4.960   3.450  15.983  0.00  0.00    +0.000 A 
ATOM      6  C   UNL     1       6.058   3.938  15.280  0.00  0.00    +0.000 A 
ATOM      7  C   UNL     1       6.875   4.911  15.829  0.00  0.00    +0.000 A 
ATOM      8  C   UNL     1       6.584   5.406  17.095  0.00  0.00    +0.000 A 
ATOM      9  C   UNL     1       5.477   4.930  17.825  0.00  0.00    +0.000 A 
ATOM     10  C   UNL     1       5.281   5.488  19.212  0.00  0.00    +0.000 C 
ATOM     11  C   UNL     1       3.889   5.260  19.796  0.00  0.00    +0.000 C 
ATOM     12  C   UNL     1       3.458   3.793  19.562  0.00  0.00    +0.000 C 
ENDROOT
BRANCH  12  13
ATOM     13  N   UNL     1       2.207   3.472  20.281  0.00  0.00    +0.000 NA
ATOM     14  H   UNL     1       1.952   2.504  20.067  0.00  0.00    +0.000 HD
ATOM     15  H   UNL     1       1.443   4.028  19.895  0.00  0.00    +0.000 HD
ENDBRANCH  12  13
BRANCH   6  16
ATOM     16  O   UNL     1       6.374   3.473  14.039  0.00  0.00    +0.000 OA
ATOM     17  H   UNL     1       7.144   2.887  14.113  0.00  0.00    +0.000 HD
ENDBRANCH   6  16
BRANCH  11  18
ATOM     18  S   UNL     1       2.701   6.540  19.230  0.00  0.00    +0.000 S 
ATOM     19  H   UNL     1       3.616   7.432  18.819  0.00  0.00    +0.000 HD
ENDBRANCH  11  18
TORSDOF 3
ENDMDL
MODEL 4
REMARK VINA RESULT:      -6.0      1.017      1.040
REMARK  Name = 
REMARK  5 active torsions:
REMARK  status: ('A' for Active; 'I' for Inactive)
REMARK    1  A    between atoms: C_1  and  C_2
REMARK    2  A    between atoms: C_2  and  C_3
REMARK    3  A    between atoms: C_6  and  O_7
REMARK    4  A    between atoms: C_12  and  S_13
REMARK    5  A    between atoms: C_14  and  N_15
REMARK                            x       y       z     vdW  Elec       q    Type
REMARK                         _______ _______ _______ _____ _____    ______ ____
ROOT
ATOM      1  C   UNL     1       3.874   4.676  16.855  0.00  0.00    +0.000 C 
ATOM      2  C   UNL     1       4.309   5.319  18.197  0.00  0.00    +0.000 C 
ATOM      3  C   UNL     1       5.713   5.942  17.947  0.00  0.00    +0.000 C 
ATOM      4  C   UNL     1       3.305   6.428  18.573  0.00  0.00    +0.000 A 
ATOM      5  C   UNL     1       3.184   7.578  17.759  0.00  0.00    +0.000 A 
ATOM      6  C   UNL     1       2.313   8.610  18.096  0.00  0.00    +0.000 A 
ATOM      7  C   UNL     1       1.526   8.531  19.231  0.00  0.00    +0.000 A 
ATOM      8  C   UNL     1       1.609   7.401  20.037  0.00  0.00    +0.000 A 
ATOM      9  C   UNL     1       2.481   6.342  19.716  0.00  0.00    +0.000 A 
ATOM     10  C   UNL     1       2.539   5.186  20.683  0.00  0.00    +0.000 C 
ATOM     11  C   UNL     1       3.168   3.917  20.115  0.00  0.00    +0.000 C 
ATOM     12  C   UNL     1       4.473   4.270  19.365  0.00  0.00    +0.000 C 
ENDROOT
BRANCH  12  13
ATOM     13  N   UNL     1       5.220   3.058  18.970  0.00  0.00    +0.000 NA
ATOM     14  H   UNL     1       5.504   3.158  17.991  0.00  0.00    +0.000 HD
ATOM     15  H   UNL     1       4.588   2.256  18.971  0.00  0.00    +0.000 HD
ENDBRANCH  12  13
BRANCH   6  16
ATOM     16  O   UNL     1       2.210   9.734  17.331  0.00  0.00    +0.000 OA
ATOM     17  H   UNL     1       2.929  10.340  17.571  0.00  0.00    +0.000 HD
ENDBRANCH   6  16
BRANCH  11  18
ATOM     18  S   UNL     1       1.949   2.922  19.170  0.00  0.00    +0.000 S 
ATOM     19  H   UNL     1       2.698   1.813  19.068  0.00  0.00    +0.000 HD
ENDBRANCH  11  18
TORSDOF 3
ENDMDL
MODEL 5
REMARK VINA RESULT:      -5.8      2.314      4.075
REMARK  Name = 
REMARK  5 active torsions:
REMARK  status: ('A' for Active; 'I' for Inactive)
REMARK    1  A    between atoms: C_1  and  C_2
REMARK    2  A    between atoms: C_2  and  C_3
REMARK    3  A    between atoms: C_6  and  O_7
REMARK    4  A    between atoms: C_12  and  S_13
REMARK    5  A    between atoms: C_14  and  N_15
REMARK                            x       y       z     vdW  Elec       q    Type
REMARK                         _______ _______ _______ _____ _____    ______ ____
ROOT
ATOM      1  C   UNL     1       3.591   5.523  19.861  0.00  0.00    +0.000 C 
ATOM      2  C   UNL     1       3.290   5.464  18.342  0.00  0.00    +0.000 C 
ATOM      3  C   UNL     1       2.526   6.775  17.998  0.00  0.00    +0.000 C 
ATOM      4  C   UNL     1       4.623   5.417  17.566  0.00  0.00    +0.000 A 
ATOM      5  C   UNL     1       5.508   6.518  17.615  0.00  0.00    +0.000 A 
ATOM      6  C   UNL     1       6.699   6.517  16.895  0.00  0.00    +0.000 A 
ATOM      7  C   UNL     1       7.059   5.428  16.121  0.00  0.00    +0.000 A 
ATOM      8  C   UNL     1       6.216   4.322  16.074  0.00  0.00    +0.000 A 
ATOM      9  C   UNL     1       5.007   4.298  16.796  0.00  0.00    +0.000 A 
ATOM     10  C   UNL     1       4.137   3.078  16.633  0.00  0.00    +0.000 C 
ATOM     11  C   UNL     1       3.067   2.915  17.710  0.00  0.00    +0.000 C 
ATOM     12  C   UNL     1       2.347   4.264  17.940  0.00  0.00    +0.000 C 
ENDROOT
BRANCH  12  13
ATOM     13  N   UNL     1       1.174   4.111  18.826  0.00  0.00    +0.000 NA
ATOM     14  H   UNL     1       1.416   4.485  19.749  0.00  0.00    +0.000 HD
ATOM     15  H   UNL     1       1.002   3.118  18.991  0.00  0.00    +0.000 HD
ENDBRANCH  12  13
BRANCH   6  16
ATOM     16  O   UNL     1       7.546   7.586  16.915  0.00  0.00    +0.000 OA
ATOM     17  H   UNL     1       7.794   7.803  16.002  0.00  0.00    +0.000 HD
ENDBRANCH   6  16
BRANCH  11  18
ATOM     18  S   UNL     1       3.738   2.102  19.213  0.00  0.00    +0.000 S 
ATOM     19  H   UNL     1       4.412   3.166  19.678  0.00  0.00    +0.000 HD
ENDBRANCH  11  18
TORSDOF 3
ENDMDL
MODEL 6
REMARK VINA RESULT:      -5.8      2.624      3.678
REMARK  Name = 
REMARK  5 active torsions:
REMARK  status: ('A' for Active; 'I' for Inactive)
REMARK    1  A    between atoms: C_1  and  C_2
REMARK    2  A    between atoms: C_2  and  C_3
REMARK    3  A    between atoms: C_6  and  O_7
REMARK    4  A    between atoms: C_12  and  S_13
REMARK    5  A    between atoms: C_14  and  N_15
REMARK                            x       y       z     vdW  Elec       q    Type
REMARK                         _______ _______ _______ _____ _____    ______ ____
ROOT
ATOM      1  C   UNL     1       5.275   3.996  19.086  0.00  0.00    +0.000 C 
ATOM      2  C   UNL     1       4.266   4.363  17.968  0.00  0.00    +0.000 C 
ATOM      3  C   UNL     1       3.226   3.207  17.923  0.00  0.00    +0.000 C 
ATOM      4  C   UNL     1       3.563   5.685  18.338  0.00  0.00    +0.000 A 
ATOM      5  C   UNL     1       2.726   5.745  19.476  0.00  0.00    +0.000 A 
ATOM      6  C   UNL     1       2.050   6.915  19.811  0.00  0.00    +0.000 A 
ATOM      7  C   UNL     1       2.192   8.060  19.046  0.00  0.00    +0.000 A 
ATOM      8  C   UNL     1       3.028   8.034  17.935  0.00  0.00    +0.000 A 
ATOM      9  C   UNL     1       3.724   6.863  17.577  0.00  0.00    +0.000 A 
ATOM     10  C   UNL     1       4.559   6.920  16.323  0.00  0.00    +0.000 C 
ATOM     11  C   UNL     1       5.587   5.799  16.194  0.00  0.00    +0.000 C 
ATOM     12  C   UNL     1       4.926   4.443  16.536  0.00  0.00    +0.000 C 
ENDROOT
BRANCH  12  13
ATOM     13  N   UNL     1       5.823   3.308  16.234  0.00  0.00    +0.000 NA
ATOM     14  H   UNL     1       6.477   3.599  15.502  0.00  0.00    +0.000 HD
ATOM     15  H   UNL     1       5.283   2.553  15.808  0.00  0.00    +0.000 HD
ENDBRANCH  12  13
BRANCH   6  16
ATOM     16  O   UNL     1       1.220   6.975  20.891  0.00  0.00    +0.000 OA
ATOM     17  H   UNL     1       1.078   6.074  21.223  0.00  0.00    +0.000 HD
ENDBRANCH   6  16
BRANCH  11  18
ATOM     18  S   UNL     1       7.130   6.186  17.109  0.00  0.00    +0.000 S 
ATOM     19  H   UNL     1       7.167   5.060  17.837  0.00  0.00    +0.000 HD
ENDBRANCH  11  18
TORSDOF 3
ENDMDL
MODEL 7
REMARK VINA RESULT:      -5.8      2.838      3.832
REMARK  Name = 
REMARK  5 active torsions:
REMARK  status: ('A' for Active; 'I' for Inactive)
REMARK    1  A    between atoms: C_1  and  C_2
REMARK    2  A    between atoms: C_2  and  C_3
REMARK    3  A    between atoms: C_6  and  O_7
REMARK    4  A    between atoms: C_12  and  S_13
REMARK    5  A    between atoms: C_14  and  N_15
REMARK                            x       y       z     vdW  Elec       q    Type
REMARK                         _______ _______ _______ _____ _____    ______ ____
ROOT
ATOM      1  C   UNL     1       6.271   6.861  17.420  0.00  0.00    +0.000 C 
ATOM      2  C   UNL     1       6.027   5.481  18.083  0.00  0.00    +0.000 C 
ATOM      3  C   UNL     1       6.824   5.493  19.420  0.00  0.00    +0.000 C 
ATOM      4  C   UNL     1       4.521   5.322  18.373  0.00  0.00    +0.000 A 
ATOM      5  C   UNL     1       3.886   6.175  19.304  0.00  0.00    +0.000 A 
ATOM      6  C   UNL     1       2.537   6.028  19.613  0.00  0.00    +0.000 A 
ATOM      7  C   UNL     1       1.772   5.049  19.002  0.00  0.00    +0.000 A 
ATOM      8  C   UNL     1       2.367   4.211  18.065  0.00  0.00    +0.000 A 
ATOM      9  C   UNL     1       3.731   4.342  17.734  0.00  0.00    +0.000 A 
ATOM     10  C   UNL     1       4.294   3.348  16.750  0.00  0.00    +0.000 C 
ATOM     11  C   UNL     1       5.626   3.759  16.128  0.00  0.00    +0.000 C 
ATOM     12  C   UNL     1       6.581   4.274  17.230  0.00  0.00    +0.000 C 
ENDROOT
BRANCH  12  13
ATOM     13  N   UNL     1       7.946   4.495  16.708  0.00  0.00    +0.000 NA
ATOM     14  H   UNL     1       8.030   4.011  15.810  0.00  0.00    +0.000 HD
ATOM     15  H   UNL     1       8.620   4.026  17.315  0.00  0.00    +0.000 HD
ENDBRANCH  12  13
BRANCH   6  16
ATOM     16  O   UNL     1       1.923   6.830  20.529  0.00  0.00    +0.000 OA
ATOM     17  H   UNL     1       1.022   6.500  20.676  0.00  0.00    +0.000 HD
ENDBRANCH   6  16
BRANCH  11  18
ATOM     18  S   UNL     1       5.386   4.878  14.694  0.00  0.00    +0.000 S 
ATOM     19  H   UNL     1       4.046   4.931  14.759  0.00  0.00    +0.000 HD
ENDBRANCH  11  18
TORSDOF 3
ENDMDL
MODEL 8
REMARK VINA RESULT:      -5.5      2.970      4.699
REMARK  Name = 
REMARK  5 active torsions:
REMARK  status: ('A' for Active; 'I' for Inactive)
REMARK    1  A    between atoms: C_1  and  C_2
REMARK    2  A    between atoms: C_2  and  C_3
REMARK    3  A    between atoms: C_6  and  O_7
REMARK    4  A    between atoms: C_12  and  S_13
REMARK    5  A    between atoms: C_14  and  N_15
REMARK                            x       y       z     vdW  Elec       q    Type
REMARK                         _______ _______ _______ _____ _____    ______ ____
ROOT
ATOM      1  C   UNL     1       6.190   5.597  19.213  0.00  0.00    +0.000 C 
ATOM      2  C   UNL     1       5.068   5.813  18.166  0.00  0.00    +0.000 C 
ATOM      3  C   UNL     1       4.970   7.350  17.943  0.00  0.00    +0.000 C 
ATOM      4  C   UNL     1       5.468   5.118  16.848  0.00  0.00    +0.000 A 
ATOM      5  C   UNL     1       6.593   5.573  16.124  0.00  0.00    +0.000 A 
ATOM      6  C   UNL     1       6.954   4.988  14.913  0.00  0.00    +0.000 A 
ATOM      7  C   UNL     1       6.228   3.931  14.392  0.00  0.00    +0.000 A 
ATOM      8  C   UNL     1       5.130   3.450  15.097  0.00  0.00    +0.000 A 
ATOM      9  C   UNL     1       4.746   4.024  16.325  0.00  0.00    +0.000 A 
ATOM     10  C   UNL     1       3.508   3.469  16.982  0.00  0.00    +0.000 C 
ATOM     11  C   UNL     1       3.361   3.825  18.459  0.00  0.00    +0.000 C 
ATOM     12  C   UNL     1       3.650   5.331  18.664  0.00  0.00    +0.000 C 
ENDROOT
BRANCH  12  13
ATOM     13  N   UNL     1       3.327   5.765  20.040  0.00  0.00    +0.000 NA
ATOM     14  H   UNL     1       4.001   5.334  20.680  0.00  0.00    +0.000 HD
ATOM     15  H   UNL     1       2.426   5.372  20.316  0.00  0.00    +0.000 HD
ENDBRANCH  12  13
BRANCH   6  16
ATOM     16  O   UNL     1       8.022   5.437  14.194  0.00  0.00    +0.000 OA
ATOM     17  H   UNL     1       8.386   6.220  14.637  0.00  0.00    +0.000 HD
ENDBRANCH   6  16
BRANCH  11  18
ATOM     18  S   UNL     1       4.312   2.678  19.530  0.00  0.00    +0.000 S 
ATOM     19  H   UNL     1       5.511   3.256  19.354  0.00  0.00    +0.000 HD
ENDBRANCH  11  18
TORSDOF 3
ENDMDL
MODEL 9
REMARK VINA RESULT:      -5.5      1.958      3.125
REMARK  Name = 
REMARK  5 active torsions:
REMARK  status: ('A' for Active; 'I' for Inactive)
REMARK    1  A    between atoms: C_1  and  C_2
REMARK    2  A    between atoms: C_2  and  C_3
REMARK    3  A    between atoms: C_6  and  O_7
REMARK    4  A    between atoms: C_12  and  S_13
REMARK    5  A    between atoms: C_14  and  N_15
REMARK                            x       y       z     vdW  Elec       q    Type
REMARK                         _______ _______ _______ _____ _____    ______ ____
ROOT
ATOM      1  C   UNL     1       2.950   3.323  20.991  0.00  0.00    +0.000 C 
ATOM      2  C   UNL     1       2.070   3.754  19.790  0.00  0.00    +0.000 C 
ATOM      3  C   UNL     1       0.631   3.252  20.101  0.00  0.00    +0.000 C 
ATOM      4  C   UNL     1       2.077   5.293  19.687  0.00  0.00    +0.000 A 
ATOM      5  C   UNL     1       1.507   6.072  20.720  0.00  0.00    +0.000 A 
ATOM      6  C   UNL     1       1.466   7.461  20.634  0.00  0.00    +0.000 A 
ATOM      7  C   UNL     1       1.998   8.120  19.539  0.00  0.00    +0.000 A 
ATOM      8  C   UNL     1       2.584   7.378  18.520  0.00  0.00    +0.000 A 
ATOM      9  C   UNL     1       2.640   5.972  18.585  0.00  0.00    +0.000 A 
ATOM     10  C   UNL     1       3.245   5.256  17.403  0.00  0.00    +0.000 C 
ATOM     11  C   UNL     1       3.646   3.809  17.677  0.00  0.00    +0.000 C 
ATOM     12  C   UNL     1       2.506   3.084  18.428  0.00  0.00    +0.000 C 
ENDROOT
BRANCH  12  13
ATOM     13  N   UNL     1       2.763   1.633  18.540  0.00  0.00    +0.000 NA
ATOM     14  H   UNL     1       1.864   1.150  18.623  0.00  0.00    +0.000 HD
ATOM     15  H   UNL     1       3.238   1.440  19.423  0.00  0.00    +0.000 HD
ENDBRANCH  12  13
BRANCH   6  16
ATOM     16  O   UNL     1       0.895   8.219  21.613  0.00  0.00    +0.000 OA
ATOM     17  H   UNL     1       1.006   9.156  21.385  0.00  0.00    +0.000 HD
ENDBRANCH   6  16
BRANCH  11  18
ATOM     18  S   UNL     1       5.306   3.702  18.452  0.00  0.00    +0.000 S 
ATOM     19  H   UNL     1       5.211   4.826  19.180  0.00  0.00    +0.000 HD
ENDBRANCH  11  18
TORSDOF 3
ENDMDL
