MODEL 1
REMARK VINA RESULT:      -6.9      0.000      0.000
REMARK  Name = 
REMARK  16 active torsions:
REMARK  status: ('A' for Active; 'I' for Inactive)
REMARK    1  A    between atoms: C_1  and  C_2
REMARK    2  A    between atoms: C_2  and  C_3
REMARK    3  A    between atoms: C_3  and  C_4
REMARK    4  A    between atoms: C_4  and  C_5
REMARK    5  A    between atoms: C_5  and  C_6
REMARK    6  A    between atoms: C_10  and  O_11
REMARK    7  A    between atoms: O_11  and  C_12
REMARK    8  A    between atoms: C_12  and  C_13
REMARK    9  A    between atoms: C_17  and  C_18
REMARK   10  A    between atoms: C_17  and  C_22
REMARK   11  A    between atoms: C_18  and  C_19
REMARK   12  A    between atoms: C_19  and  C_20
REMARK   13  A    between atoms: C_20  and  C_21
REMARK   14  A    between atoms: C_26  and  O_27
REMARK   15  A    between atoms: O_27  and  C_28
REMARK   16  A    between atoms: C_28  and  C_29
REMARK                            x       y       z     vdW  Elec       q    Type
REMARK                         _______ _______ _______ _____ _____    ______ ____
ROOT
ATOM      1  C   UNL     1       4.931   4.536  16.903  0.00  0.00    +0.000 C 
ATOM      2  O   UNL     1       5.690   4.833  18.075  0.00  0.00    +0.000 OA
ATOM      3  C   UNL     1       5.128   6.027  17.496  0.00  0.00    +0.000 C 
ENDROOT
BRANCH   1   4
ATOM      4  C   UNL     1       3.575   3.864  17.208  0.00  0.00    +0.000 A 
ATOM      5  C   UNL     1       2.368   4.369  16.700  0.00  0.00    +0.000 A 
ATOM      6  C   UNL     1       1.151   4.083  17.328  0.00  0.00    +0.000 A 
ATOM      7  C   UNL     1       1.114   3.258  18.453  0.00  0.00    +0.000 A 
ATOM      8  C   UNL     1       2.283   2.637  18.878  0.00  0.00    +0.000 A 
ATOM      9  C   UNL     1       3.492   2.890  18.223  0.00  0.00    +0.000 A 
BRANCH   8  10
ATOM     10  O   UNL     1       2.409   1.868  20.062  0.00  0.00    +0.000 OA
BRANCH  10  11
ATOM     11  C   UNL     1       3.031   2.271  21.230  0.00  0.00    +0.000 C 
ATOM     12  C   UNL     1       2.171   3.290  21.934  0.00  0.00    +0.000 C 
ATOM     13  O   UNL     1       4.124   1.913  21.656  0.00  0.00    +0.000 OA
ENDBRANCH  10  11
ENDBRANCH   8  10
ENDBRANCH   1   4
BRANCH   3  14
ATOM     14  C   UNL     1       3.977   6.635  18.292  0.00  0.00    +0.000 A 
ATOM     15  C   UNL     1       3.581   6.106  19.532  0.00  0.00    +0.000 A 
ATOM     16  C   UNL     1       2.445   6.575  20.188  0.00  0.00    +0.000 A 
ATOM     17  C   UNL     1       1.671   7.576  19.605  0.00  0.00    +0.000 A 
ATOM     18  C   UNL     1       2.068   8.136  18.390  0.00  0.00    +0.000 A 
ATOM     19  C   UNL     1       3.233   7.703  17.767  0.00  0.00    +0.000 A 
BRANCH  18  20
ATOM     20  O   UNL     1       1.181   9.090  17.830  0.00  0.00    +0.000 OA
BRANCH  20  21
ATOM     21  C   UNL     1       0.527  10.103  18.538  0.00  0.00    +0.000 C 
ATOM     22  C   UNL     1       1.485  11.226  18.791  0.00  0.00    +0.000 C 
ATOM     23  O   UNL     1      -0.620  10.097  18.962  0.00  0.00    +0.000 OA
ENDBRANCH  20  21
ENDBRANCH  18  20
ENDBRANCH   3  14
BRANCH   1  24
ATOM     24  C   UNL     1       5.743   3.885  15.795  0.00  0.00    +0.000 C 
BRANCH  24  25
ATOM     25  C   UNL     1       5.305   4.020  14.331  0.00  0.00    +0.000 C 
BRANCH  25  27
ATOM     26  C   UNL     1       5.817   3.161  11.990  0.00  0.00    +0.000 C 
ATOM     27  C   UNL     1       6.375   3.785  13.252  0.00  0.00    +0.000 C 
ENDBRANCH  25  27
ENDBRANCH  24  25
ENDBRANCH   1  24
BRANCH   3  28
ATOM     28  C   UNL     1       6.238   6.997  17.173  0.00  0.00    +0.000 C 
BRANCH  28  29
ATOM     29  C   UNL     1       7.643   6.575  17.597  0.00  0.00    +0.000 C 
BRANCH  29  30
ATOM     30  C   UNL     1       8.238   7.686  18.469  0.00  0.00    +0.000 C 
ATOM     31  C   UNL     1       8.060   9.072  17.882  0.00  0.00    +0.000 C 
ENDBRANCH  29  30
ENDBRANCH  28  29
ENDBRANCH   3  28
TORSDOF 12
ENDMDL
MODEL 2
REMARK VINA RESULT:      -6.5      1.083      6.154
REMARK  Name = 
REMARK  16 active torsions:
REMARK  status: ('A' for Active; 'I' for Inactive)
REMARK    1  A    between atoms: C_1  and  C_2
REMARK    2  A    between atoms: C_2  and  C_3
REMARK    3  A    between atoms: C_3  and  C_4
REMARK    4  A    between atoms: C_4  and  C_5
REMARK    5  A    between atoms: C_5  and  C_6
REMARK    6  A    between atoms: C_10  and  O_11
REMARK    7  A    between atoms: O_11  and  C_12
REMARK    8  A    between atoms: C_12  and  C_13
REMARK    9  A    between atoms: C_17  and  C_18
REMARK   10  A    between atoms: C_17  and  C_22
REMARK   11  A    between atoms: C_18  and  C_19
REMARK   12  A    between atoms: C_19  and  C_20
REMARK   13  A    between atoms: C_20  and  C_21
REMARK   14  A    between atoms: C_26  and  O_27
REMARK   15  A    between atoms: O_27  and  C_28
REMARK   16  A    between atoms: C_28  and  C_29
REMARK                            x       y       z     vdW  Elec       q    Type
REMARK                         _______ _______ _______ _____ _____    ______ ____
ROOT
ATOM      1  C   UNL     1       5.494   6.302  16.999  0.00  0.00    +0.000 C 
ATOM      2  O   UNL     1       4.936   5.983  15.725  0.00  0.00    +0.000 OA
ATOM      3  C   UNL     1       5.344   4.795  16.432  0.00  0.00    +0.000 C 
ENDROOT
BRANCH   1   4
ATOM      4  C   UNL     1       4.436   6.738  18.036  0.00  0.00    +0.000 A 
ATOM      5  C   UNL     1       4.182   5.988  19.195  0.00  0.00    +0.000 A 
ATOM      6  C   UNL     1       2.958   6.096  19.863  0.00  0.00    +0.000 A 
ATOM      7  C   UNL     1       1.980   6.981  19.407  0.00  0.00    +0.000 A 
ATOM      8  C   UNL     1       2.275   7.832  18.348  0.00  0.00    +0.000 A 
ATOM      9  C   UNL     1       3.515   7.754  17.708  0.00  0.00    +0.000 A 
BRANCH   8  10
ATOM     10  O   UNL     1       1.345   8.696  17.717  0.00  0.00    +0.000 OA
BRANCH  10  11
ATOM     11  C   UNL     1       0.789   9.835  18.271  0.00  0.00    +0.000 C 
ATOM     12  C   UNL     1      -0.660   9.936  17.869  0.00  0.00    +0.000 C 
ATOM     13  O   UNL     1       1.351  10.680  18.960  0.00  0.00    +0.000 OA
ENDBRANCH  10  11
ENDBRANCH   8  10
ENDBRANCH   1   4
BRANCH   3  14
ATOM     14  C   UNL     1       4.191   3.946  16.961  0.00  0.00    +0.000 A 
ATOM     15  C   UNL     1       2.868   4.159  16.540  0.00  0.00    +0.000 A 
ATOM     16  C   UNL     1       1.804   3.477  17.127  0.00  0.00    +0.000 A 
ATOM     17  C   UNL     1       2.045   2.576  18.163  0.00  0.00    +0.000 A 
ATOM     18  C   UNL     1       3.356   2.328  18.571  0.00  0.00    +0.000 A 
ATOM     19  C   UNL     1       4.418   2.970  17.944  0.00  0.00    +0.000 A 
BRANCH  18  20
ATOM     20  O   UNL     1       3.504   1.460  19.683  0.00  0.00    +0.000 OA
BRANCH  20  21
ATOM     21  C   UNL     1       3.921   1.845  20.961  0.00  0.00    +0.000 C 
ATOM     22  C   UNL     1       2.795   2.548  21.656  0.00  0.00    +0.000 C 
ATOM     23  O   UNL     1       5.030   1.711  21.457  0.00  0.00    +0.000 OA
ENDBRANCH  20  21
ENDBRANCH  18  20
ENDBRANCH   3  14
BRANCH   1  24
ATOM     24  C   UNL     1       6.732   7.181  16.924  0.00  0.00    +0.000 C 
BRANCH  24  25
ATOM     25  C   UNL     1       7.834   7.060  17.983  0.00  0.00    +0.000 C 
BRANCH  25  27
ATOM     26  C   UNL     1       7.631   5.559  20.029  0.00  0.00    +0.000 C 
ATOM     27  C   UNL     1       8.079   5.667  18.587  0.00  0.00    +0.000 C 
ENDBRANCH  25  27
ENDBRANCH  24  25
ENDBRANCH   1  24
BRANCH   3  28
ATOM     28  C   UNL     1       6.342   4.032  15.596  0.00  0.00    +0.000 C 
BRANCH  28  29
ATOM     29  C   UNL     1       6.572   4.556  14.180  0.00  0.00    +0.000 C 
BRANCH  29  30
ATOM     30  C   UNL     1       5.837   3.635  13.200  0.00  0.00    +0.000 C 
ATOM     31  C   UNL     1       6.598   3.402  11.909  0.00  0.00    +0.000 C 
ENDBRANCH  29  30
ENDBRANCH  28  29
ENDBRANCH   3  28
TORSDOF 12
ENDMDL
MODEL 3
REMARK VINA RESULT:      -6.0      1.773      5.776
REMARK  Name = 
REMARK  16 active torsions:
REMARK  status: ('A' for Active; 'I' for Inactive)
REMARK    1  A    between atoms: C_1  and  C_2
REMARK    2  A    between atoms: C_2  and  C_3
REMARK    3  A    between atoms: C_3  and  C_4
REMARK    4  A    between atoms: C_4  and  C_5
REMARK    5  A    between atoms: C_5  and  C_6
REMARK    6  A    between atoms: C_10  and  O_11
REMARK    7  A    between atoms: O_11  and  C_12
REMARK    8  A    between atoms: C_12  and  C_13
REMARK    9  A    between atoms: C_17  and  C_18
REMARK   10  A    between atoms: C_17  and  C_22
REMARK   11  A    between atoms: C_18  and  C_19
REMARK   12  A    between atoms: C_19  and  C_20
REMARK   13  A    between atoms: C_20  and  C_21
REMARK   14  A    between atoms: C_26  and  O_27
REMARK   15  A    between atoms: O_27  and  C_28
REMARK   16  A    between atoms: C_28  and  C_29
REMARK                            x       y       z     vdW  Elec       q    Type
REMARK                         _______ _______ _______ _____ _____    ______ ____
ROOT
ATOM      1  C   UNL     1       4.002   4.353  17.211  0.00  0.00    +0.000 C 
ATOM      2  O   UNL     1       4.936   3.325  17.540  0.00  0.00    +0.000 OA
ATOM      3  C   UNL     1       5.531   4.322  16.687  0.00  0.00    +0.000 C 
ENDROOT
BRANCH   1   4
ATOM      4  C   UNL     1       3.712   5.312  18.385  0.00  0.00    +0.000 A 
ATOM      5  C   UNL     1       3.659   4.861  19.714  0.00  0.00    +0.000 A 
ATOM      6  C   UNL     1       2.954   5.578  20.685  0.00  0.00    +0.000 A 
ATOM      7  C   UNL     1       2.321   6.778  20.357  0.00  0.00    +0.000 A 
ATOM      8  C   UNL     1       2.488   7.306  19.082  0.00  0.00    +0.000 A 
ATOM      9  C   UNL     1       3.229   6.610  18.123  0.00  0.00    +0.000 A 
BRANCH   8  10
ATOM     10  O   UNL     1       1.817   8.451  18.584  0.00  0.00    +0.000 OA
BRANCH  10  11
ATOM     11  C   UNL     1       1.122   9.379  19.338  0.00  0.00    +0.000 C 
ATOM     12  C   UNL     1       0.415  10.347  18.424  0.00  0.00    +0.000 C 
ATOM     13  O   UNL     1       1.081   9.466  20.561  0.00  0.00    +0.000 OA
ENDBRANCH  10  11
ENDBRANCH   8  10
ENDBRANCH   1   4
BRANCH   3  14
ATOM     14  C   UNL     1       6.541   5.230  17.384  0.00  0.00    +0.000 A 
ATOM     15  C   UNL     1       7.250   4.804  18.520  0.00  0.00    +0.000 A 
ATOM     16  C   UNL     1       8.066   5.680  19.234  0.00  0.00    +0.000 A 
ATOM     17  C   UNL     1       8.174   7.010  18.831  0.00  0.00    +0.000 A 
ATOM     18  C   UNL     1       7.504   7.441  17.686  0.00  0.00    +0.000 A 
ATOM     19  C   UNL     1       6.736   6.549  16.946  0.00  0.00    +0.000 A 
BRANCH  18  20
ATOM     20  O   UNL     1       7.604   8.825  17.395  0.00  0.00    +0.000 OA
BRANCH  20  21
ATOM     21  C   UNL     1       8.355   9.754  18.123  0.00  0.00    +0.000 C 
ATOM     22  C   UNL     1       8.252  11.095  17.466  0.00  0.00    +0.000 C 
ATOM     23  O   UNL     1       9.051   9.545  19.107  0.00  0.00    +0.000 OA
ENDBRANCH  20  21
ENDBRANCH  18  20
ENDBRANCH   3  14
BRANCH   1  24
ATOM     24  C   UNL     1       2.777   3.852  16.463  0.00  0.00    +0.000 C 
BRANCH  24  25
ATOM     25  C   UNL     1       1.487   3.519  17.224  0.00  0.00    +0.000 C 
BRANCH  25  27
ATOM     26  C   UNL     1       0.713   2.642  19.485  0.00  0.00    +0.000 C 
ATOM     27  C   UNL     1       1.552   2.377  18.252  0.00  0.00    +0.000 C 
ENDBRANCH  25  27
ENDBRANCH  24  25
ENDBRANCH   1  24
BRANCH   3  28
ATOM     28  C   UNL     1       6.053   3.664  15.433  0.00  0.00    +0.000 C 
BRANCH  28  29
ATOM     29  C   UNL     1       6.421   4.602  14.286  0.00  0.00    +0.000 C 
BRANCH  29  30
ATOM     30  C   UNL     1       6.511   3.777  12.998  0.00  0.00    +0.000 C 
ATOM     31  C   UNL     1       5.157   3.394  12.433  0.00  0.00    +0.000 C 
ENDBRANCH  29  30
ENDBRANCH  28  29
ENDBRANCH   3  28
TORSDOF 12
ENDMDL
MODEL 4
REMARK VINA RESULT:      -5.8      1.897      5.593
REMARK  Name = 
REMARK  16 active torsions:
REMARK  status: ('A' for Active; 'I' for Inactive)
REMARK    1  A    between atoms: C_1  and  C_2
REMARK    2  A    between atoms: C_2  and  C_3
REMARK    3  A    between atoms: C_3  and  C_4
REMARK    4  A    between atoms: C_4  and  C_5
REMARK    5  A    between atoms: C_5  and  C_6
REMARK    6  A    between atoms: C_10  and  O_11
REMARK    7  A    between atoms: O_11  and  C_12
REMARK    8  A    between atoms: C_12  and  C_13
REMARK    9  A    between atoms: C_17  and  C_18
REMARK   10  A    between atoms: C_17  and  C_22
REMARK   11  A    between atoms: C_18  and  C_19
REMARK   12  A    between atoms: C_19  and  C_20
REMARK   13  A    between atoms: C_20  and  C_21
REMARK   14  A    between atoms: C_26  and  O_27
REMARK   15  A    between atoms: O_27  and  C_28
REMARK   16  A    between atoms: C_28  and  C_29
REMARK                            x       y       z     vdW  Elec       q    Type
REMARK                         _______ _______ _______ _____ _____    ______ ____
ROOT
ATOM      1  C   UNL     1       3.429   3.174  17.835  0.00  0.00    +0.000 C 
ATOM      2  O   UNL     1       2.379   3.684  17.014  0.00  0.00    +0.000 OA
ATOM      3  C   UNL     1       2.101   3.894  18.411  0.00  0.00    +0.000 C 
ENDROOT
BRANCH   1   4
ATOM      4  C   UNL     1       4.705   4.043  17.803  0.00  0.00    +0.000 A 
ATOM      5  C   UNL     1       5.177   4.707  18.946  0.00  0.00    +0.000 A 
ATOM      6  C   UNL     1       6.005   5.828  18.831  0.00  0.00    +0.000 A 
ATOM      7  C   UNL     1       6.405   6.285  17.574  0.00  0.00    +0.000 A 
ATOM      8  C   UNL     1       6.062   5.551  16.445  0.00  0.00    +0.000 A 
ATOM      9  C   UNL     1       5.271   4.405  16.564  0.00  0.00    +0.000 A 
BRANCH   8  10
ATOM     10  O   UNL     1       6.307   5.956  15.108  0.00  0.00    +0.000 OA
BRANCH  10  11
ATOM     11  C   UNL     1       7.117   5.303  14.197  0.00  0.00    +0.000 C 
ATOM     12  C   UNL     1       6.369   4.137  13.600  0.00  0.00    +0.000 C 
ATOM     13  O   UNL     1       8.278   5.568  13.906  0.00  0.00    +0.000 OA
ENDBRANCH  10  11
ENDBRANCH   8  10
ENDBRANCH   1   4
BRANCH   3  14
ATOM     14  C   UNL     1       2.219   5.346  18.869  0.00  0.00    +0.000 A 
ATOM     15  C   UNL     1       2.198   5.691  20.230  0.00  0.00    +0.000 A 
ATOM     16  C   UNL     1       2.166   7.023  20.638  0.00  0.00    +0.000 A 
ATOM     17  C   UNL     1       2.139   8.039  19.685  0.00  0.00    +0.000 A 
ATOM     18  C   UNL     1       2.193   7.715  18.329  0.00  0.00    +0.000 A 
ATOM     19  C   UNL     1       2.280   6.386  17.930  0.00  0.00    +0.000 A 
BRANCH  18  20
ATOM     20  O   UNL     1       2.078   8.804  17.428  0.00  0.00    +0.000 OA
BRANCH  20  21
ATOM     21  C   UNL     1       1.632  10.087  17.761  0.00  0.00    +0.000 C 
ATOM     22  C   UNL     1       0.140  10.073  17.890  0.00  0.00    +0.000 C 
ATOM     23  O   UNL     1       2.302  11.104  17.878  0.00  0.00    +0.000 OA
ENDBRANCH  20  21
ENDBRANCH  18  20
ENDBRANCH   3  14
BRANCH   1  24
ATOM     24  C   UNL     1       3.656   1.679  17.683  0.00  0.00    +0.000 C 
BRANCH  24  25
ATOM     25  C   UNL     1       4.039   0.825  18.898  0.00  0.00    +0.000 C 
BRANCH  25  27
ATOM     26  C   UNL     1       5.453   0.580  21.001  0.00  0.00    +0.000 C 
ATOM     27  C   UNL     1       4.746   1.537  20.063  0.00  0.00    +0.000 C 
ENDBRANCH  25  27
ENDBRANCH  24  25
ENDBRANCH   1  24
BRANCH   3  28
ATOM     28  C   UNL     1       0.788   3.239  18.766  0.00  0.00    +0.000 C 
BRANCH  28  29
ATOM     29  C   UNL     1       0.843   2.179  19.864  0.00  0.00    +0.000 C 
BRANCH  29  30
ATOM     30  C   UNL     1       0.971   2.891  21.216  0.00  0.00    +0.000 C 
ATOM     31  C   UNL     1       2.291   2.627  21.912  0.00  0.00    +0.000 C 
ENDBRANCH  29  30
ENDBRANCH  28  29
ENDBRANCH   3  28
TORSDOF 12
ENDMDL
MODEL 5
REMARK VINA RESULT:      -5.7      1.718      5.560
REMARK  Name = 
REMARK  16 active torsions:
REMARK  status: ('A' for Active; 'I' for Inactive)
REMARK    1  A    between atoms: C_1  and  C_2
REMARK    2  A    between atoms: C_2  and  C_3
REMARK    3  A    between atoms: C_3  and  C_4
REMARK    4  A    between atoms: C_4  and  C_5
REMARK    5  A    between atoms: C_5  and  C_6
REMARK    6  A    between atoms: C_10  and  O_11
REMARK    7  A    between atoms: O_11  and  C_12
REMARK    8  A    between atoms: C_12  and  C_13
REMARK    9  A    between atoms: C_17  and  C_18
REMARK   10  A    between atoms: C_17  and  C_22
REMARK   11  A    between atoms: C_18  and  C_19
REMARK   12  A    between atoms: C_19  and  C_20
REMARK   13  A    between atoms: C_20  and  C_21
REMARK   14  A    between atoms: C_26  and  O_27
REMARK   15  A    between atoms: O_27  and  C_28
REMARK   16  A    between atoms: C_28  and  C_29
REMARK                            x       y       z     vdW  Elec       q    Type
REMARK                         _______ _______ _______ _____ _____    ______ ____
ROOT
ATOM      1  C   UNL     1       4.493   6.805  17.680  0.00  0.00    +0.000 C 
ATOM      2  O   UNL     1       4.493   6.120  16.428  0.00  0.00    +0.000 OA
ATOM      3  C   UNL     1       4.607   5.199  17.530  0.00  0.00    +0.000 C 
ENDROOT
BRANCH   1   4
ATOM      4  C   UNL     1       3.103   7.346  18.079  0.00  0.00    +0.000 A 
ATOM      5  C   UNL     1       2.408   8.264  17.276  0.00  0.00    +0.000 A 
ATOM      6  C   UNL     1       1.426   9.094  17.825  0.00  0.00    +0.000 A 
ATOM      7  C   UNL     1       1.094   8.998  19.178  0.00  0.00    +0.000 A 
ATOM      8  C   UNL     1       1.672   7.996  19.948  0.00  0.00    +0.000 A 
ATOM      9  C   UNL     1       2.623   7.138  19.388  0.00  0.00    +0.000 A 
BRANCH   8  10
ATOM     10  O   UNL     1       1.511   7.854  21.350  0.00  0.00    +0.000 OA
BRANCH  10  11
ATOM     11  C   UNL     1       1.107   8.845  22.225  0.00  0.00    +0.000 C 
ATOM     12  C   UNL     1      -0.399   8.897  22.269  0.00  0.00    +0.000 C 
ATOM     13  O   UNL     1       1.820   9.611  22.865  0.00  0.00    +0.000 OA
ENDBRANCH  10  11
ENDBRANCH   8  10
ENDBRANCH   1   4
BRANCH   3  14
ATOM     14  C   UNL     1       3.354   4.368  17.794  0.00  0.00    +0.000 A 
ATOM     15  C   UNL     1       2.204   4.502  16.998  0.00  0.00    +0.000 A 
ATOM     16  C   UNL     1       1.019   3.845  17.325  0.00  0.00    +0.000 A 
ATOM     17  C   UNL     1       0.958   3.052  18.469  0.00  0.00    +0.000 A 
ATOM     18  C   UNL     1       2.100   2.883  19.253  0.00  0.00    +0.000 A 
ATOM     19  C   UNL     1       3.295   3.496  18.891  0.00  0.00    +0.000 A 
BRANCH  18  20
ATOM     20  O   UNL     1       1.929   2.127  20.440  0.00  0.00    +0.000 OA
BRANCH  20  21
ATOM     21  C   UNL     1       1.649   2.657  21.704  0.00  0.00    +0.000 C 
ATOM     22  C   UNL     1       2.236   4.031  21.804  0.00  0.00    +0.000 C 
ATOM     23  O   UNL     1       1.076   2.107  22.634  0.00  0.00    +0.000 OA
ENDBRANCH  20  21
ENDBRANCH  18  20
ENDBRANCH   3  14
BRANCH   1  24
ATOM     24  C   UNL     1       5.644   7.785  17.843  0.00  0.00    +0.000 C 
BRANCH  24  25
ATOM     25  C   UNL     1       7.036   7.443  17.300  0.00  0.00    +0.000 C 
BRANCH  25  27
ATOM     26  C   UNL     1       8.490   9.348  18.157  0.00  0.00    +0.000 C 
ATOM     27  C   UNL     1       8.246   7.854  18.155  0.00  0.00    +0.000 C 
ENDBRANCH  25  27
ENDBRANCH  24  25
ENDBRANCH   1  24
BRANCH   3  28
ATOM     28  C   UNL     1       5.868   4.385  17.375  0.00  0.00    +0.000 C 
BRANCH  28  29
ATOM     29  C   UNL     1       6.042   3.666  16.039  0.00  0.00    +0.000 C 
BRANCH  29  30
ATOM     30  C   UNL     1       7.152   4.372  15.253  0.00  0.00    +0.000 C 
ATOM     31  C   UNL     1       6.710   4.846  13.883  0.00  0.00    +0.000 C 
ENDBRANCH  29  30
ENDBRANCH  28  29
ENDBRANCH   3  28
TORSDOF 12
ENDMDL
MODEL 6
REMARK VINA RESULT:      -5.6      2.054      5.226
REMARK  Name = 
REMARK  16 active torsions:
REMARK  status: ('A' for Active; 'I' for Inactive)
REMARK    1  A    between atoms: C_1  and  C_2
REMARK    2  A    between atoms: C_2  and  C_3
REMARK    3  A    between atoms: C_3  and  C_4
REMARK    4  A    between atoms: C_4  and  C_5
REMARK    5  A    between atoms: C_5  and  C_6
REMARK    6  A    between atoms: C_10  and  O_11
REMARK    7  A    between atoms: O_11  and  C_12
REMARK    8  A    between atoms: C_12  and  C_13
REMARK    9  A    between atoms: C_17  and  C_18
REMARK   10  A    between atoms: C_17  and  C_22
REMARK   11  A    between atoms: C_18  and  C_19
REMARK   12  A    between atoms: C_19  and  C_20
REMARK   13  A    between atoms: C_20  and  C_21
REMARK   14  A    between atoms: C_26  and  O_27
REMARK   15  A    between atoms: O_27  and  C_28
REMARK   16  A    between atoms: C_28  and  C_29
REMARK                            x       y       z     vdW  Elec       q    Type
REMARK                         _______ _______ _______ _____ _____    ______ ____
ROOT
ATOM      1  C   UNL     1       3.306   3.163  17.572  0.00  0.00    +0.000 C 
ATOM      2  O   UNL     1       2.064   3.462  16.935  0.00  0.00    +0.000 OA
ATOM      3  C   UNL     1       2.116   4.011  18.266  0.00  0.00    +0.000 C 
ENDROOT
BRANCH   1   4
ATOM      4  C   UNL     1       4.488   3.989  17.023  0.00  0.00    +0.000 A 
ATOM      5  C   UNL     1       4.679   4.183  15.646  0.00  0.00    +0.000 A 
ATOM      6  C   UNL     1       5.943   4.496  15.135  0.00  0.00    +0.000 A 
ATOM      7  C   UNL     1       7.031   4.657  15.995  0.00  0.00    +0.000 A 
ATOM      8  C   UNL     1       6.824   4.610  17.368  0.00  0.00    +0.000 A 
ATOM      9  C   UNL     1       5.552   4.340  17.879  0.00  0.00    +0.000 A 
BRANCH   8  10
ATOM     10  O   UNL     1       7.851   4.647  18.345  0.00  0.00    +0.000 OA
BRANCH  10  11
ATOM     11  C   UNL     1       7.985   5.590  19.348  0.00  0.00    +0.000 C 
ATOM     12  C   UNL     1       8.111   6.962  18.737  0.00  0.00    +0.000 C 
ATOM     13  O   UNL     1       8.033   5.391  20.557  0.00  0.00    +0.000 OA
ENDBRANCH  10  11
ENDBRANCH   8  10
ENDBRANCH   1   4
BRANCH   3  14
ATOM     14  C   UNL     1       2.262   5.529  18.321  0.00  0.00    +0.000 A 
ATOM     15  C   UNL     1       2.913   6.241  17.300  0.00  0.00    +0.000 A 
ATOM     16  C   UNL     1       3.165   7.607  17.419  0.00  0.00    +0.000 A 
ATOM     17  C   UNL     1       2.782   8.284  18.575  0.00  0.00    +0.000 A 
ATOM     18  C   UNL     1       2.105   7.599  19.584  0.00  0.00    +0.000 A 
ATOM     19  C   UNL     1       1.807   6.249  19.435  0.00  0.00    +0.000 A 
BRANCH  18  20
ATOM     20  O   UNL     1       1.825   8.345  20.757  0.00  0.00    +0.000 OA
BRANCH  20  21
ATOM     21  C   UNL     1       0.584   8.896  21.090  0.00  0.00    +0.000 C 
ATOM     22  C   UNL     1       0.619  10.373  20.844  0.00  0.00    +0.000 C 
ATOM     23  O   UNL     1      -0.385   8.323  21.567  0.00  0.00    +0.000 OA
ENDBRANCH  20  21
ENDBRANCH  18  20
ENDBRANCH   3  14
BRANCH   1  24
ATOM     24  C   UNL     1       3.571   1.674  17.730  0.00  0.00    +0.000 C 
BRANCH  24  25
ATOM     25  C   UNL     1       3.946   1.095  19.100  0.00  0.00    +0.000 C 
BRANCH  25  27
ATOM     26  C   UNL     1       5.212   1.315  21.298  0.00  0.00    +0.000 C 
ATOM     27  C   UNL     1       4.640   2.039  20.096  0.00  0.00    +0.000 C 
ENDBRANCH  25  27
ENDBRANCH  24  25
ENDBRANCH   1  24
BRANCH   3  28
ATOM     28  C   UNL     1       0.964   3.470  19.077  0.00  0.00    +0.000 C 
BRANCH  28  29
ATOM     29  C   UNL     1       0.783   4.070  20.469  0.00  0.00    +0.000 C 
BRANCH  29  30
ATOM     30  C   UNL     1       1.875   3.504  21.384  0.00  0.00    +0.000 C 
ATOM     31  C   UNL     1       1.486   2.198  22.048  0.00  0.00    +0.000 C 
ENDBRANCH  29  30
ENDBRANCH  28  29
ENDBRANCH   3  28
TORSDOF 12
ENDMDL
MODEL 7
REMARK VINA RESULT:      -5.6      4.369      9.137
REMARK  Name = 
REMARK  16 active torsions:
REMARK  status: ('A' for Active; 'I' for Inactive)
REMARK    1  A    between atoms: C_1  and  C_2
REMARK    2  A    between atoms: C_2  and  C_3
REMARK    3  A    between atoms: C_3  and  C_4
REMARK    4  A    between atoms: C_4  and  C_5
REMARK    5  A    between atoms: C_5  and  C_6
REMARK    6  A    between atoms: C_10  and  O_11
REMARK    7  A    between atoms: O_11  and  C_12
REMARK    8  A    between atoms: C_12  and  C_13
REMARK    9  A    between atoms: C_17  and  C_18
REMARK   10  A    between atoms: C_17  and  C_22
REMARK   11  A    between atoms: C_18  and  C_19
REMARK   12  A    between atoms: C_19  and  C_20
REMARK   13  A    between atoms: C_20  and  C_21
REMARK   14  A    between atoms: C_26  and  O_27
REMARK   15  A    between atoms: O_27  and  C_28
REMARK   16  A    between atoms: C_28  and  C_29
REMARK                            x       y       z     vdW  Elec       q    Type
REMARK                         _______ _______ _______ _____ _____    ______ ____
ROOT
ATOM      1  C   UNL     1      -0.551  10.868  18.477  0.00  0.00    +0.000 C 
ATOM      2  O   UNL     1       0.175  10.147  19.472  0.00  0.00    +0.000 OA
ATOM      3  C   UNL     1       1.063  10.780  18.530  0.00  0.00    +0.000 C 
ENDROOT
BRANCH   1   4
ATOM      4  C   UNL     1      -1.170  12.180  19.006  0.00  0.00    +0.000 A 
ATOM      5  C   UNL     1      -0.870  13.425  18.431  0.00  0.00    +0.000 A 
ATOM      6  C   UNL     1      -1.027  14.607  19.162  0.00  0.00    +0.000 A 
ATOM      7  C   UNL     1      -1.521  14.570  20.467  0.00  0.00    +0.000 A 
ATOM      8  C   UNL     1      -1.956  13.360  20.994  0.00  0.00    +0.000 A 
ATOM      9  C   UNL     1      -1.839  12.185  20.247  0.00  0.00    +0.000 A 
BRANCH   8  10
ATOM     10  O   UNL     1      -2.373  13.161  22.335  0.00  0.00    +0.000 OA
BRANCH  10  11
ATOM     11  C   UNL     1      -1.839  13.778  23.451  0.00  0.00    +0.000 C 
ATOM     12  C   UNL     1      -2.949  14.385  24.272  0.00  0.00    +0.000 C 
ATOM     13  O   UNL     1      -0.655  13.875  23.756  0.00  0.00    +0.000 OA
ENDBRANCH  10  11
ENDBRANCH   8  10
ENDBRANCH   1   4
BRANCH   3  14
ATOM     14  C   UNL     1       1.824  11.981  19.087  0.00  0.00    +0.000 A 
ATOM     15  C   UNL     1       1.814  12.285  20.458  0.00  0.00    +0.000 A 
ATOM     16  C   UNL     1       2.393  13.456  20.943  0.00  0.00    +0.000 A 
ATOM     17  C   UNL     1       2.982  14.356  20.057  0.00  0.00    +0.000 A 
ATOM     18  C   UNL     1       3.031  14.054  18.696  0.00  0.00    +0.000 A 
ATOM     19  C   UNL     1       2.500  12.858  18.225  0.00  0.00    +0.000 A 
BRANCH  18  20
ATOM     20  O   UNL     1       3.574  15.060  17.858  0.00  0.00    +0.000 OA
BRANCH  20  21
ATOM     21  C   UNL     1       4.725  15.807  18.130  0.00  0.00    +0.000 C 
ATOM     22  C   UNL     1       5.930  14.932  17.969  0.00  0.00    +0.000 C 
ATOM     23  O   UNL     1       4.790  16.969  18.503  0.00  0.00    +0.000 OA
ENDBRANCH  20  21
ENDBRANCH  18  20
ENDBRANCH   3  14
BRANCH   1  24
ATOM     24  C   UNL     1      -1.480  10.000  17.645  0.00  0.00    +0.000 C 
BRANCH  24  25
ATOM     25  C   UNL     1      -2.985  10.290  17.608  0.00  0.00    +0.000 C 
BRANCH  25  27
ATOM     26  C   UNL     1      -2.928  10.424  15.066  0.00  0.00    +0.000 C 
ATOM     27  C   UNL     1      -3.541  10.963  16.342  0.00  0.00    +0.000 C 
ENDBRANCH  25  27
ENDBRANCH  24  25
ENDBRANCH   1  24
BRANCH   3  28
ATOM     28  C   UNL     1       1.941   9.735  17.887  0.00  0.00    +0.000 C 
BRANCH  28  29
ATOM     29  C   UNL     1       2.016   8.388  18.603  0.00  0.00    +0.000 C 
BRANCH  29  30
ATOM     30  C   UNL     1       3.044   7.512  17.878  0.00  0.00    +0.000 C 
ATOM     31  C   UNL     1       3.352   6.220  18.607  0.00  0.00    +0.000 C 
ENDBRANCH  29  30
ENDBRANCH  28  29
ENDBRANCH   3  28
TORSDOF 12
ENDMDL
MODEL 8
REMARK VINA RESULT:      -5.5      4.172      8.858
REMARK  Name = 
REMARK  16 active torsions:
REMARK  status: ('A' for Active; 'I' for Inactive)
REMARK    1  A    between atoms: C_1  and  C_2
REMARK    2  A    between atoms: C_2  and  C_3
REMARK    3  A    between atoms: C_3  and  C_4
REMARK    4  A    between atoms: C_4  and  C_5
REMARK    5  A    between atoms: C_5  and  C_6
REMARK    6  A    between atoms: C_10  and  O_11
REMARK    7  A    between atoms: O_11  and  C_12
REMARK    8  A    between atoms: C_12  and  C_13
REMARK    9  A    between atoms: C_17  and  C_18
REMARK   10  A    between atoms: C_17  and  C_22
REMARK   11  A    between atoms: C_18  and  C_19
REMARK   12  A    between atoms: C_19  and  C_20
REMARK   13  A    between atoms: C_20  and  C_21
REMARK   14  A    between atoms: C_26  and  O_27
REMARK   15  A    between atoms: O_27  and  C_28
REMARK   16  A    between atoms: C_28  and  C_29
REMARK                            x       y       z     vdW  Elec       q    Type
REMARK                         _______ _______ _______ _____ _____    ______ ____
ROOT
ATOM      1  C   UNL     1       0.471  12.302  20.155  0.00  0.00    +0.000 C 
ATOM      2  O   UNL     1      -0.547  13.198  20.600  0.00  0.00    +0.000 OA
ATOM      3  C   UNL     1      -0.650  12.946  19.185  0.00  0.00    +0.000 C 
ENDROOT
BRANCH   1   4
ATOM      4  C   UNL     1       0.228  10.840  20.587  0.00  0.00    +0.000 A 
ATOM      5  C   UNL     1      -0.488  10.522  21.752  0.00  0.00    +0.000 A 
ATOM      6  C   UNL     1      -0.310   9.288  22.386  0.00  0.00    +0.000 A 
ATOM      7  C   UNL     1       0.559   8.336  21.849  0.00  0.00    +0.000 A 
ATOM      8  C   UNL     1       1.161   8.584  20.621  0.00  0.00    +0.000 A 
ATOM      9  C   UNL     1       0.949   9.800  19.966  0.00  0.00    +0.000 A 
BRANCH   8  10
ATOM     10  O   UNL     1       2.143   7.759  20.017  0.00  0.00    +0.000 OA
BRANCH  10  11
ATOM     11  C   UNL     1       2.102   6.379  19.928  0.00  0.00    +0.000 C 
ATOM     12  C   UNL     1       2.360   5.957  18.504  0.00  0.00    +0.000 C 
ATOM     13  O   UNL     1       1.865   5.580  20.828  0.00  0.00    +0.000 OA
ENDBRANCH  10  11
ENDBRANCH   8  10
ENDBRANCH   1   4
BRANCH   3  14
ATOM     14  C   UNL     1      -1.833  12.070  18.782  0.00  0.00    +0.000 A 
ATOM     15  C   UNL     1      -1.698  11.049  17.826  0.00  0.00    +0.000 A 
ATOM     16  C   UNL     1      -2.807  10.345  17.361  0.00  0.00    +0.000 A 
ATOM     17  C   UNL     1      -4.079  10.661  17.834  0.00  0.00    +0.000 A 
ATOM     18  C   UNL     1      -4.226  11.649  18.809  0.00  0.00    +0.000 A 
ATOM     19  C   UNL     1      -3.110  12.310  19.310  0.00  0.00    +0.000 A 
BRANCH  18  20
ATOM     20  O   UNL     1      -5.560  11.963  19.174  0.00  0.00    +0.000 OA
BRANCH  20  21
ATOM     21  C   UNL     1      -6.191  11.564  20.356  0.00  0.00    +0.000 C 
ATOM     22  C   UNL     1      -7.216  10.519  20.038  0.00  0.00    +0.000 C 
ATOM     23  O   UNL     1      -6.018  12.007  21.482  0.00  0.00    +0.000 OA
ENDBRANCH  20  21
ENDBRANCH  18  20
ENDBRANCH   3  14
BRANCH   1  24
ATOM     24  C   UNL     1       1.884  12.819  20.379  0.00  0.00    +0.000 C 
BRANCH  24  25
ATOM     25  C   UNL     1       2.715  13.336  19.199  0.00  0.00    +0.000 C 
BRANCH  25  27
ATOM     26  C   UNL     1       4.219  15.183  18.299  0.00  0.00    +0.000 C 
ATOM     27  C   UNL     1       3.020  14.843  19.160  0.00  0.00    +0.000 C 
ENDBRANCH  25  27
ENDBRANCH  24  25
ENDBRANCH   1  24
BRANCH   3  28
ATOM     28  C   UNL     1      -0.565  14.254  18.435  0.00  0.00    +0.000 C 
BRANCH  28  29
ATOM     29  C   UNL     1      -0.652  15.520  19.284  0.00  0.00    +0.000 C 
BRANCH  29  30
ATOM     30  C   UNL     1      -0.460  16.731  18.364  0.00  0.00    +0.000 C 
ATOM     31  C   UNL     1      -1.280  17.937  18.779  0.00  0.00    +0.000 C 
ENDBRANCH  29  30
ENDBRANCH  28  29
ENDBRANCH   3  28
TORSDOF 12
ENDMDL
MODEL 9
REMARK VINA RESULT:      -5.5      4.304      9.899
REMARK  Name = 
REMARK  16 active torsions:
REMARK  status: ('A' for Active; 'I' for Inactive)
REMARK    1  A    between atoms: C_1  and  C_2
REMARK    2  A    between atoms: C_2  and  C_3
REMARK    3  A    between atoms: C_3  and  C_4
REMARK    4  A    between atoms: C_4  and  C_5
REMARK    5  A    between atoms: C_5  and  C_6
REMARK    6  A    between atoms: C_10  and  O_11
REMARK    7  A    between atoms: O_11  and  C_12
REMARK    8  A    between atoms: C_12  and  C_13
REMARK    9  A    between atoms: C_17  and  C_18
REMARK   10  A    between atoms: C_17  and  C_22
REMARK   11  A    between atoms: C_18  and  C_19
REMARK   12  A    between atoms: C_19  and  C_20
REMARK   13  A    between atoms: C_20  and  C_21
REMARK   14  A    between atoms: C_26  and  O_27
REMARK   15  A    between atoms: O_27  and  C_28
REMARK   16  A    between atoms: C_28  and  C_29
REMARK                            x       y       z     vdW  Elec       q    Type
REMARK                         _______ _______ _______ _____ _____    ______ ____
ROOT
ATOM      1  C   UNL     1      -0.327  13.623  19.328  0.00  0.00    +0.000 C 
ATOM      2  O   UNL     1       0.617  13.340  18.296  0.00  0.00    +0.000 OA
ATOM      3  C   UNL     1       1.082  12.870  19.576  0.00  0.00    +0.000 C 
ENDROOT
BRANCH   1   4
ATOM      4  C   UNL     1      -1.575  12.715  19.279  0.00  0.00    +0.000 A 
ATOM      5  C   UNL     1      -1.912  11.982  18.130  0.00  0.00    +0.000 A 
ATOM      6  C   UNL     1      -3.228  11.562  17.910  0.00  0.00    +0.000 A 
ATOM      7  C   UNL     1      -4.223  11.834  18.851  0.00  0.00    +0.000 A 
ATOM      8  C   UNL     1      -3.872  12.430  20.056  0.00  0.00    +0.000 A 
ATOM      9  C   UNL     1      -2.548  12.811  20.294  0.00  0.00    +0.000 A 
BRANCH   8  10
ATOM     10  O   UNL     1      -4.790  12.860  21.047  0.00  0.00    +0.000 OA
BRANCH  10  11
ATOM     11  C   UNL     1      -6.134  12.536  21.105  0.00  0.00    +0.000 C 
ATOM     12  C   UNL     1      -6.957  13.716  20.652  0.00  0.00    +0.000 C 
ATOM     13  O   UNL     1      -6.632  11.483  21.488  0.00  0.00    +0.000 OA
ENDBRANCH  10  11
ENDBRANCH   8  10
ENDBRANCH   1   4
BRANCH   3  14
ATOM     14  C   UNL     1       1.061  11.353  19.739  0.00  0.00    +0.000 A 
ATOM     15  C   UNL     1       0.873  10.752  20.995  0.00  0.00    +0.000 A 
ATOM     16  C   UNL     1       0.992   9.374  21.162  0.00  0.00    +0.000 A 
ATOM     17  C   UNL     1       1.319   8.569  20.073  0.00  0.00    +0.000 A 
ATOM     18  C   UNL     1       1.477   9.146  18.812  0.00  0.00    +0.000 A 
ATOM     19  C   UNL     1       1.302  10.514  18.641  0.00  0.00    +0.000 A 
BRANCH  18  20
ATOM     20  O   UNL     1       1.888   8.267  17.778  0.00  0.00    +0.000 OA
BRANCH  20  21
ATOM     21  C   UNL     1       2.913   7.320  17.879  0.00  0.00    +0.000 C 
ATOM     22  C   UNL     1       2.313   5.966  18.102  0.00  0.00    +0.000 C 
ATOM     23  O   UNL     1       4.119   7.520  17.858  0.00  0.00    +0.000 OA
ENDBRANCH  20  21
ENDBRANCH  18  20
ENDBRANCH   3  14
BRANCH   1  24
ATOM     24  C   UNL     1      -0.609  15.105  19.513  0.00  0.00    +0.000 C 
BRANCH  24  25
ATOM     25  C   UNL     1      -0.348  16.092  18.369  0.00  0.00    +0.000 C 
BRANCH  25  27
ATOM     26  C   UNL     1       0.808  18.178  17.479  0.00  0.00    +0.000 C 
ATOM     27  C   UNL     1       0.450  17.363  18.704  0.00  0.00    +0.000 C 
ENDBRANCH  25  27
ENDBRANCH  24  25
ENDBRANCH   1  24
BRANCH   3  28
ATOM     28  C   UNL     1       2.414  13.508  19.890  0.00  0.00    +0.000 C 
BRANCH  28  29
ATOM     29  C   UNL     1       3.305  13.827  18.692  0.00  0.00    +0.000 C 
BRANCH  29  30
ATOM     30  C   UNL     1       3.479  15.347  18.611  0.00  0.00    +0.000 C 
ATOM     31  C   UNL     1       3.678  15.855  17.197  0.00  0.00    +0.000 C 
ENDBRANCH  29  30
ENDBRANCH  28  29
ENDBRANCH   3  28
TORSDOF 12
ENDMDL
