MODEL 1
REMARK VINA RESULT:      -6.3      0.000      0.000
REMARK  Name = 
REMARK  9 active torsions:
REMARK  status: ('A' for Active; 'I' for Inactive)
REMARK    1  A    between atoms: C_1  and  C_2
REMARK    2  A    between atoms: C_2  and  C_3
REMARK    3  A    between atoms: C_2  and  C_4
REMARK    4  A    between atoms: C_4  and  C_5
REMARK    5  A    between atoms: C_5  and  O_6
REMARK    6  A    between atoms: O_6  and  C_7
REMARK    7  A    between atoms: C_10  and  O_11
REMARK    8  A    between atoms: C_12  and  C_13
REMARK    9  A    between atoms: C_13  and  O_14
REMARK                            x       y       z     vdW  Elec       q    Type
REMARK                         _______ _______ _______ _____ _____    ______ ____
ROOT
ATOM      1  C   UNL     1       4.419   4.086  18.574  0.00  0.00    +0.000 C 
ATOM      2  C   UNL     1       4.627   3.820  17.109  0.00  0.00    +0.000 C 
ATOM      3  C   UNL     1       5.738   4.186  16.447  0.00  0.00    +0.000 C 
ATOM      4  C   UNL     1       6.879   4.845  17.161  0.00  0.00    +0.000 C 
ATOM      5  C   UNL     1       6.678   4.824  18.691  0.00  0.00    +0.000 C 
ATOM      6  O   UNL     1       5.308   5.107  19.042  0.00  0.00    +0.000 OA
ENDROOT
BRANCH   4   7
ATOM      7  O   UNL     1       8.073   4.153  16.813  0.00  0.00    +0.000 OA
ATOM      8  H   UNL     1       8.012   3.262  17.203  0.00  0.00    +0.000 HD
ENDBRANCH   4   7
BRANCH   1   9
ATOM      9  O   UNL     1       4.590   2.855  19.271  0.00  0.00    +0.000 OA
BRANCH   9  10
ATOM     10  C   UNL     1       3.343   2.230  19.568  0.00  0.00    +0.000 C 
BRANCH  10  11
ATOM     11  C   UNL     1       2.739   2.841  20.835  0.00  0.00    +0.000 C 
BRANCH  11  13
ATOM     12  C   UNL     1       1.388   4.982  20.509  0.00  0.00    +0.000 C 
ATOM     13  C   UNL     1       1.338   3.457  20.635  0.00  0.00    +0.000 C 
ATOM     14  C   UNL     1       0.672   2.868  19.389  0.00  0.00    +0.000 C 
ENDBRANCH  11  13
ENDBRANCH  10  11
ENDBRANCH   9  10
ENDBRANCH   1   9
BRANCH   5  15
ATOM     15  C   UNL     1       7.554   5.883  19.367  0.00  0.00    +0.000 C 
BRANCH  15  16
ATOM     16  O   UNL     1       8.129   5.349  20.563  0.00  0.00    +0.000 OA
ATOM     17  H   UNL     1       7.879   5.974  21.270  0.00  0.00    +0.000 HD
ENDBRANCH  15  16
ENDBRANCH   5  15
TORSDOF 7
ENDMDL
MODEL 2
REMARK VINA RESULT:      -6.2      1.342      1.614
REMARK  Name = 
REMARK  9 active torsions:
REMARK  status: ('A' for Active; 'I' for Inactive)
REMARK    1  A    between atoms: C_1  and  C_2
REMARK    2  A    between atoms: C_2  and  C_3
REMARK    3  A    between atoms: C_2  and  C_4
REMARK    4  A    between atoms: C_4  and  C_5
REMARK    5  A    between atoms: C_5  and  O_6
REMARK    6  A    between atoms: O_6  and  C_7
REMARK    7  A    between atoms: C_10  and  O_11
REMARK    8  A    between atoms: C_12  and  C_13
REMARK    9  A    between atoms: C_13  and  O_14
REMARK                            x       y       z     vdW  Elec       q    Type
REMARK                         _______ _______ _______ _____ _____    ______ ____
ROOT
ATOM      1  C   UNL     1       4.567   5.056  19.112  0.00  0.00    +0.000 C 
ATOM      2  C   UNL     1       4.179   5.829  17.882  0.00  0.00    +0.000 C 
ATOM      3  C   UNL     1       5.061   6.522  17.142  0.00  0.00    +0.000 C 
ATOM      4  C   UNL     1       6.522   6.517  17.480  0.00  0.00    +0.000 C 
ATOM      5  C   UNL     1       6.846   5.488  18.583  0.00  0.00    +0.000 C 
ATOM      6  O   UNL     1       5.837   5.491  19.612  0.00  0.00    +0.000 OA
ENDROOT
BRANCH   4   7
ATOM      7  O   UNL     1       7.245   6.211  16.293  0.00  0.00    +0.000 OA
ATOM      8  H   UNL     1       7.077   5.273  16.089  0.00  0.00    +0.000 HD
ENDBRANCH   4   7
BRANCH   1   9
ATOM      9  O   UNL     1       4.559   3.671  18.780  0.00  0.00    +0.000 OA
BRANCH   9  10
ATOM     10  C   UNL     1       3.790   2.903  19.704  0.00  0.00    +0.000 C 
BRANCH  10  11
ATOM     11  C   UNL     1       2.324   2.870  19.267  0.00  0.00    +0.000 C 
BRANCH  11  13
ATOM     12  C   UNL     1       1.660   2.646  21.721  0.00  0.00    +0.000 C 
ATOM     13  C   UNL     1       1.324   3.280  20.368  0.00  0.00    +0.000 C 
ATOM     14  C   UNL     1       1.295   4.804  20.519  0.00  0.00    +0.000 C 
ENDBRANCH  11  13
ENDBRANCH  10  11
ENDBRANCH   9  10
ENDBRANCH   1   9
BRANCH   5  15
ATOM     15  C   UNL     1       8.185   5.813  19.250  0.00  0.00    +0.000 C 
BRANCH  15  16
ATOM     16  O   UNL     1       8.167   5.382  20.614  0.00  0.00    +0.000 OA
ATOM     17  H   UNL     1       7.688   4.532  20.610  0.00  0.00    +0.000 HD
ENDBRANCH  15  16
ENDBRANCH   5  15
TORSDOF 7
ENDMDL
MODEL 3
REMARK VINA RESULT:      -6.2      0.820      1.193
REMARK  Name = 
REMARK  9 active torsions:
REMARK  status: ('A' for Active; 'I' for Inactive)
REMARK    1  A    between atoms: C_1  and  C_2
REMARK    2  A    between atoms: C_2  and  C_3
REMARK    3  A    between atoms: C_2  and  C_4
REMARK    4  A    between atoms: C_4  and  C_5
REMARK    5  A    between atoms: C_5  and  O_6
REMARK    6  A    between atoms: O_6  and  C_7
REMARK    7  A    between atoms: C_10  and  O_11
REMARK    8  A    between atoms: C_12  and  C_13
REMARK    9  A    between atoms: C_13  and  O_14
REMARK                            x       y       z     vdW  Elec       q    Type
REMARK                         _______ _______ _______ _____ _____    ______ ____
ROOT
ATOM      1  C   UNL     1       4.428   4.774  18.350  0.00  0.00    +0.000 C 
ATOM      2  C   UNL     1       4.467   4.749  16.848  0.00  0.00    +0.000 C 
ATOM      3  C   UNL     1       5.568   5.047  16.137  0.00  0.00    +0.000 C 
ATOM      4  C   UNL     1       6.862   5.373  16.821  0.00  0.00    +0.000 C 
ATOM      5  C   UNL     1       6.784   5.107  18.340  0.00  0.00    +0.000 C 
ATOM      6  O   UNL     1       5.518   5.537  18.880  0.00  0.00    +0.000 OA
ENDROOT
BRANCH   4   7
ATOM      7  O   UNL     1       7.883   4.574  16.234  0.00  0.00    +0.000 OA
ATOM      8  H   UNL     1       7.531   3.668  16.161  0.00  0.00    +0.000 HD
ENDBRANCH   4   7
BRANCH   1   9
ATOM      9  O   UNL     1       4.433   3.426  18.811  0.00  0.00    +0.000 OA
BRANCH   9  10
ATOM     10  C   UNL     1       3.742   3.280  20.050  0.00  0.00    +0.000 C 
BRANCH  10  11
ATOM     11  C   UNL     1       2.548   4.236  20.100  0.00  0.00    +0.000 C 
BRANCH  11  13
ATOM     12  C   UNL     1       0.689   2.734  19.206  0.00  0.00    +0.000 C 
ATOM     13  C   UNL     1       1.199   3.550  20.397  0.00  0.00    +0.000 C 
ATOM     14  C   UNL     1       1.324   2.636  21.619  0.00  0.00    +0.000 C 
ENDBRANCH  11  13
ENDBRANCH  10  11
ENDBRANCH   9  10
ENDBRANCH   1   9
BRANCH   5  15
ATOM     15  C   UNL     1       7.884   5.871  19.081  0.00  0.00    +0.000 C 
BRANCH  15  16
ATOM     16  O   UNL     1       7.942   5.442  20.444  0.00  0.00    +0.000 OA
ATOM     17  H   UNL     1       8.872   5.190  20.596  0.00  0.00    +0.000 HD
ENDBRANCH  15  16
ENDBRANCH   5  15
TORSDOF 7
ENDMDL
MODEL 4
REMARK VINA RESULT:      -6.2      0.844      1.354
REMARK  Name = 
REMARK  9 active torsions:
REMARK  status: ('A' for Active; 'I' for Inactive)
REMARK    1  A    between atoms: C_1  and  C_2
REMARK    2  A    between atoms: C_2  and  C_3
REMARK    3  A    between atoms: C_2  and  C_4
REMARK    4  A    between atoms: C_4  and  C_5
REMARK    5  A    between atoms: C_5  and  O_6
REMARK    6  A    between atoms: O_6  and  C_7
REMARK    7  A    between atoms: C_10  and  O_11
REMARK    8  A    between atoms: C_12  and  C_13
REMARK    9  A    between atoms: C_13  and  O_14
REMARK                            x       y       z     vdW  Elec       q    Type
REMARK                         _______ _______ _______ _____ _____    ______ ____
ROOT
ATOM      1  C   UNL     1       4.313   4.952  18.171  0.00  0.00    +0.000 C 
ATOM      2  C   UNL     1       4.589   4.536  16.753  0.00  0.00    +0.000 C 
ATOM      3  C   UNL     1       5.814   4.576  16.202  0.00  0.00    +0.000 C 
ATOM      4  C   UNL     1       7.008   4.995  17.007  0.00  0.00    +0.000 C 
ATOM      5  C   UNL     1       6.661   5.137  18.504  0.00  0.00    +0.000 C 
ATOM      6  O   UNL     1       5.376   5.763  18.685  0.00  0.00    +0.000 OA
ENDROOT
BRANCH   4   7
ATOM      7  O   UNL     1       8.024   4.014  16.827  0.00  0.00    +0.000 OA
ATOM      8  H   UNL     1       7.603   3.240  16.413  0.00  0.00    +0.000 HD
ENDBRANCH   4   7
BRANCH   1   9
ATOM      9  O   UNL     1       4.109   3.771  18.942  0.00  0.00    +0.000 OA
BRANCH   9  10
ATOM     10  C   UNL     1       2.919   3.082  18.562  0.00  0.00    +0.000 C 
BRANCH  10  11
ATOM     11  C   UNL     1       1.713   4.017  18.676  0.00  0.00    +0.000 C 
BRANCH  11  13
ATOM     12  C   UNL     1       1.344   2.819  20.899  0.00  0.00    +0.000 C 
ATOM     13  C   UNL     1       1.106   4.098  20.092  0.00  0.00    +0.000 C 
ATOM     14  C   UNL     1       1.690   5.291  20.853  0.00  0.00    +0.000 C 
ENDBRANCH  11  13
ENDBRANCH  10  11
ENDBRANCH   9  10
ENDBRANCH   1   9
BRANCH   5  15
ATOM     15  C   UNL     1       7.701   6.003  19.221  0.00  0.00    +0.000 C 
BRANCH  15  16
ATOM     16  O   UNL     1       7.985   5.456  20.511  0.00  0.00    +0.000 OA
ATOM     17  H   UNL     1       8.655   6.048  20.901  0.00  0.00    +0.000 HD
ENDBRANCH  15  16
ENDBRANCH   5  15
TORSDOF 7
ENDMDL
MODEL 5
REMARK VINA RESULT:      -6.2      1.227      1.249
REMARK  Name = 
REMARK  9 active torsions:
REMARK  status: ('A' for Active; 'I' for Inactive)
REMARK    1  A    between atoms: C_1  and  C_2
REMARK    2  A    between atoms: C_2  and  C_3
REMARK    3  A    between atoms: C_2  and  C_4
REMARK    4  A    between atoms: C_4  and  C_5
REMARK    5  A    between atoms: C_5  and  O_6
REMARK    6  A    between atoms: O_6  and  C_7
REMARK    7  A    between atoms: C_10  and  O_11
REMARK    8  A    between atoms: C_12  and  C_13
REMARK    9  A    between atoms: C_13  and  O_14
REMARK                            x       y       z     vdW  Elec       q    Type
REMARK                         _______ _______ _______ _____ _____    ______ ____
ROOT
ATOM      1  C   UNL     1       4.499   4.637  19.124  0.00  0.00    +0.000 C 
ATOM      2  C   UNL     1       3.962   5.364  17.923  0.00  0.00    +0.000 C 
ATOM      3  C   UNL     1       4.699   6.215  17.190  0.00  0.00    +0.000 C 
ATOM      4  C   UNL     1       6.146   6.450  17.505  0.00  0.00    +0.000 C 
ATOM      5  C   UNL     1       6.662   5.463  18.573  0.00  0.00    +0.000 C 
ATOM      6  O   UNL     1       5.687   5.268  19.617  0.00  0.00    +0.000 OA
ENDROOT
BRANCH   4   7
ATOM      7  O   UNL     1       6.887   6.302  16.299  0.00  0.00    +0.000 OA
ATOM      8  H   UNL     1       7.756   6.717  16.444  0.00  0.00    +0.000 HD
ENDBRANCH   4   7
BRANCH   1   9
ATOM      9  O   UNL     1       4.719   3.280  18.753  0.00  0.00    +0.000 OA
BRANCH   9  10
ATOM     10  C   UNL     1       3.528   2.500  18.842  0.00  0.00    +0.000 C 
BRANCH  10  11
ATOM     11  C   UNL     1       2.900   2.659  20.229  0.00  0.00    +0.000 C 
BRANCH  11  13
ATOM     12  C   UNL     1       1.033   4.378  20.495  0.00  0.00    +0.000 C 
ATOM     13  C   UNL     1       1.379   2.914  20.210  0.00  0.00    +0.000 C 
ATOM     14  C   UNL     1       0.789   2.511  18.855  0.00  0.00    +0.000 C 
ENDBRANCH  11  13
ENDBRANCH  10  11
ENDBRANCH   9  10
ENDBRANCH   1   9
BRANCH   5  15
ATOM     15  C   UNL     1       7.940   5.993  19.229  0.00  0.00    +0.000 C 
BRANCH  15  16
ATOM     16  O   UNL     1       8.068   5.457  20.549  0.00  0.00    +0.000 OA
ATOM     17  H   UNL     1       8.528   6.147  21.064  0.00  0.00    +0.000 HD
ENDBRANCH  15  16
ENDBRANCH   5  15
TORSDOF 7
ENDMDL
MODEL 6
REMARK VINA RESULT:      -6.1      1.202      1.369
REMARK  Name = 
REMARK  9 active torsions:
REMARK  status: ('A' for Active; 'I' for Inactive)
REMARK    1  A    between atoms: C_1  and  C_2
REMARK    2  A    between atoms: C_2  and  C_3
REMARK    3  A    between atoms: C_2  and  C_4
REMARK    4  A    between atoms: C_4  and  C_5
REMARK    5  A    between atoms: C_5  and  O_6
REMARK    6  A    between atoms: O_6  and  C_7
REMARK    7  A    between atoms: C_10  and  O_11
REMARK    8  A    between atoms: C_12  and  C_13
REMARK    9  A    between atoms: C_13  and  O_14
REMARK                            x       y       z     vdW  Elec       q    Type
REMARK                         _______ _______ _______ _____ _____    ______ ____
ROOT
ATOM      1  C   UNL     1       4.599   4.425  18.641  0.00  0.00    +0.000 C 
ATOM      2  C   UNL     1       4.348   4.014  17.217  0.00  0.00    +0.000 C 
ATOM      3  C   UNL     1       5.131   4.395  16.194  0.00  0.00    +0.000 C 
ATOM      4  C   UNL     1       6.358   5.224  16.430  0.00  0.00    +0.000 C 
ATOM      5  C   UNL     1       6.670   5.359  17.935  0.00  0.00    +0.000 C 
ATOM      6  O   UNL     1       5.466   5.563  18.702  0.00  0.00    +0.000 OA
ENDROOT
BRANCH   4   7
ATOM      7  O   UNL     1       7.445   4.600  15.756  0.00  0.00    +0.000 OA
ATOM      8  H   UNL     1       8.126   5.283  15.618  0.00  0.00    +0.000 HD
ENDBRANCH   4   7
BRANCH   1   9
ATOM      9  O   UNL     1       5.130   3.299  19.334  0.00  0.00    +0.000 OA
BRANCH   9  10
ATOM     10  C   UNL     1       4.130   2.322  19.616  0.00  0.00    +0.000 C 
BRANCH  10  11
ATOM     11  C   UNL     1       3.139   2.869  20.646  0.00  0.00    +0.000 C 
BRANCH  11  13
ATOM     12  C   UNL     1       0.917   4.077  20.297  0.00  0.00    +0.000 C 
ATOM     13  C   UNL     1       1.658   2.739  20.232  0.00  0.00    +0.000 C 
ATOM     14  C   UNL     1       1.551   2.172  18.813  0.00  0.00    +0.000 C 
ENDBRANCH  11  13
ENDBRANCH  10  11
ENDBRANCH   9  10
ENDBRANCH   1   9
BRANCH   5  15
ATOM     15  C   UNL     1       7.588   6.557  18.193  0.00  0.00    +0.000 C 
BRANCH  15  16
ATOM     16  O   UNL     1       7.637   7.392  17.032  0.00  0.00    +0.000 OA
ATOM     17  H   UNL     1       6.721   7.704  16.901  0.00  0.00    +0.000 HD
ENDBRANCH  15  16
ENDBRANCH   5  15
TORSDOF 7
ENDMDL
MODEL 7
REMARK VINA RESULT:      -6.1      1.552      1.960
REMARK  Name = 
REMARK  9 active torsions:
REMARK  status: ('A' for Active; 'I' for Inactive)
REMARK    1  A    between atoms: C_1  and  C_2
REMARK    2  A    between atoms: C_2  and  C_3
REMARK    3  A    between atoms: C_2  and  C_4
REMARK    4  A    between atoms: C_4  and  C_5
REMARK    5  A    between atoms: C_5  and  O_6
REMARK    6  A    between atoms: O_6  and  C_7
REMARK    7  A    between atoms: C_10  and  O_11
REMARK    8  A    between atoms: C_12  and  C_13
REMARK    9  A    between atoms: C_13  and  O_14
REMARK                            x       y       z     vdW  Elec       q    Type
REMARK                         _______ _______ _______ _____ _____    ______ ____
ROOT
ATOM      1  C   UNL     1       4.343   5.560  17.134  0.00  0.00    +0.000 C 
ATOM      2  C   UNL     1       4.816   4.299  16.465  0.00  0.00    +0.000 C 
ATOM      3  C   UNL     1       6.115   3.998  16.302  0.00  0.00    +0.000 C 
ATOM      4  C   UNL     1       7.188   4.896  16.839  0.00  0.00    +0.000 C 
ATOM      5  C   UNL     1       6.601   6.009  17.734  0.00  0.00    +0.000 C 
ATOM      6  O   UNL     1       5.385   6.542  17.173  0.00  0.00    +0.000 OA
ENDROOT
BRANCH   4   7
ATOM      7  O   UNL     1       8.099   4.095  17.584  0.00  0.00    +0.000 OA
ATOM      8  H   UNL     1       8.981   4.228  17.193  0.00  0.00    +0.000 HD
ENDBRANCH   4   7
BRANCH   1   9
ATOM      9  O   UNL     1       3.871   5.217  18.433  0.00  0.00    +0.000 OA
BRANCH   9  10
ATOM     10  C   UNL     1       2.457   5.030  18.458  0.00  0.00    +0.000 C 
BRANCH  10  11
ATOM     11  C   UNL     1       1.981   4.825  19.898  0.00  0.00    +0.000 C 
BRANCH  11  13
ATOM     12  C   UNL     1       1.002   2.703  18.873  0.00  0.00    +0.000 C 
ATOM     13  C   UNL     1       1.007   3.643  20.082  0.00  0.00    +0.000 C 
ATOM     14  C   UNL     1       1.369   2.846  21.339  0.00  0.00    +0.000 C 
ENDBRANCH  11  13
ENDBRANCH  10  11
ENDBRANCH   9  10
ENDBRANCH   1   9
BRANCH   5  15
ATOM     15  C   UNL     1       7.591   7.169  17.874  0.00  0.00    +0.000 C 
BRANCH  15  16
ATOM     16  O   UNL     1       8.447   6.945  18.997  0.00  0.00    +0.000 OA
ATOM     17  H   UNL     1       8.806   6.046  18.873  0.00  0.00    +0.000 HD
ENDBRANCH  15  16
ENDBRANCH   5  15
TORSDOF 7
ENDMDL
MODEL 8
REMARK VINA RESULT:      -6.1      2.018      2.856
REMARK  Name = 
REMARK  9 active torsions:
REMARK  status: ('A' for Active; 'I' for Inactive)
REMARK    1  A    between atoms: C_1  and  C_2
REMARK    2  A    between atoms: C_2  and  C_3
REMARK    3  A    between atoms: C_2  and  C_4
REMARK    4  A    between atoms: C_4  and  C_5
REMARK    5  A    between atoms: C_5  and  O_6
REMARK    6  A    between atoms: O_6  and  C_7
REMARK    7  A    between atoms: C_10  and  O_11
REMARK    8  A    between atoms: C_12  and  C_13
REMARK    9  A    between atoms: C_13  and  O_14
REMARK                            x       y       z     vdW  Elec       q    Type
REMARK                         _______ _______ _______ _____ _____    ______ ____
ROOT
ATOM      1  C   UNL     1       3.961   4.354  18.073  0.00  0.00    +0.000 C 
ATOM      2  C   UNL     1       3.768   5.844  18.138  0.00  0.00    +0.000 C 
ATOM      3  C   UNL     1       4.461   6.708  17.378  0.00  0.00    +0.000 C 
ATOM      4  C   UNL     1       5.447   6.220  16.360  0.00  0.00    +0.000 C 
ATOM      5  C   UNL     1       5.371   4.688  16.186  0.00  0.00    +0.000 C 
ATOM      6  O   UNL     1       5.212   4.026  17.456  0.00  0.00    +0.000 OA
ENDROOT
BRANCH   4   7
ATOM      7  O   UNL     1       5.164   6.870  15.127  0.00  0.00    +0.000 OA
ATOM      8  H   UNL     1       4.281   7.275  15.213  0.00  0.00    +0.000 HD
ENDBRANCH   4   7
BRANCH   1   9
ATOM      9  O   UNL     1       2.849   3.799  17.377  0.00  0.00    +0.000 OA
BRANCH   9  10
ATOM     10  C   UNL     1       1.609   4.123  18.002  0.00  0.00    +0.000 C 
BRANCH  10  11
ATOM     11  C   UNL     1       1.190   2.997  18.951  0.00  0.00    +0.000 C 
BRANCH  11  13
ATOM     12  C   UNL     1       2.150   2.707  21.298  0.00  0.00    +0.000 C 
ATOM     13  C   UNL     1       1.104   3.416  20.433  0.00  0.00    +0.000 C 
ATOM     14  C   UNL     1       1.282   4.931  20.568  0.00  0.00    +0.000 C 
ENDBRANCH  11  13
ENDBRANCH  10  11
ENDBRANCH   9  10
ENDBRANCH   1   9
BRANCH   5  15
ATOM     15  C   UNL     1       6.655   4.152  15.545  0.00  0.00    +0.000 C 
BRANCH  15  16
ATOM     16  O   UNL     1       7.787   4.530  16.332  0.00  0.00    +0.000 OA
ATOM     17  H   UNL     1       8.164   5.310  15.883  0.00  0.00    +0.000 HD
ENDBRANCH  15  16
ENDBRANCH   5  15
TORSDOF 7
ENDMDL
MODEL 9
REMARK VINA RESULT:      -6.1      1.662      2.403
REMARK  Name = 
REMARK  9 active torsions:
REMARK  status: ('A' for Active; 'I' for Inactive)
REMARK    1  A    between atoms: C_1  and  C_2
REMARK    2  A    between atoms: C_2  and  C_3
REMARK    3  A    between atoms: C_2  and  C_4
REMARK    4  A    between atoms: C_4  and  C_5
REMARK    5  A    between atoms: C_5  and  O_6
REMARK    6  A    between atoms: O_6  and  C_7
REMARK    7  A    between atoms: C_10  and  O_11
REMARK    8  A    between atoms: C_12  and  C_13
REMARK    9  A    between atoms: C_13  and  O_14
REMARK                            x       y       z     vdW  Elec       q    Type
REMARK                         _______ _______ _______ _____ _____    ______ ____
ROOT
ATOM      1  C   UNL     1       4.036   4.662  18.778  0.00  0.00    +0.000 C 
ATOM      2  C   UNL     1       3.501   5.964  18.249  0.00  0.00    +0.000 C 
ATOM      3  C   UNL     1       4.192   6.756  17.412  0.00  0.00    +0.000 C 
ATOM      4  C   UNL     1       5.543   6.348  16.904  0.00  0.00    +0.000 C 
ATOM      5  C   UNL     1       5.876   4.891  17.286  0.00  0.00    +0.000 C 
ATOM      6  O   UNL     1       5.460   4.596  18.635  0.00  0.00    +0.000 OA
ENDROOT
BRANCH   4   7
ATOM      7  O   UNL     1       5.542   6.498  15.489  0.00  0.00    +0.000 OA
ATOM      8  H   UNL     1       5.721   5.620  15.108  0.00  0.00    +0.000 HD
ENDBRANCH   4   7
BRANCH   1   9
ATOM      9  O   UNL     1       3.372   3.605  18.091  0.00  0.00    +0.000 OA
BRANCH   9  10
ATOM     10  C   UNL     1       3.158   2.472  18.931  0.00  0.00    +0.000 C 
BRANCH  10  11
ATOM     11  C   UNL     1       1.664   2.311  19.224  0.00  0.00    +0.000 C 
BRANCH  11  13
ATOM     12  C   UNL     1       2.293   2.719  21.663  0.00  0.00    +0.000 C 
ATOM     13  C   UNL     1       1.220   2.887  20.585  0.00  0.00    +0.000 C 
ATOM     14  C   UNL     1       0.871   4.371  20.446  0.00  0.00    +0.000 C 
ENDBRANCH  11  13
ENDBRANCH  10  11
ENDBRANCH   9  10
ENDBRANCH   1   9
BRANCH   5  15
ATOM     15  C   UNL     1       7.385   4.641  17.205  0.00  0.00    +0.000 C 
BRANCH  15  16
ATOM     16  O   UNL     1       7.804   4.631  15.838  0.00  0.00    +0.000 OA
ATOM     17  H   UNL     1       8.233   5.496  15.694  0.00  0.00    +0.000 HD
ENDBRANCH  15  16
ENDBRANCH   5  15
TORSDOF 7
ENDMDL
