MODEL 1
REMARK VINA RESULT:      -9.9      0.000      0.000
REMARK  Name = 
REMARK  5 active torsions:
REMARK  status: ('A' for Active; 'I' for Inactive)
REMARK    1  A    between atoms: C_1  and  C_2
REMARK    2  A    between atoms: C_2  and  C_3
REMARK    3  A    between atoms: C_3  and  O_4
REMARK    4  A    between atoms: C_27  and  C_28
REMARK    5  A    between atoms: C_28  and  O_30
REMARK                            x       y       z     vdW  Elec       q    Type
REMARK                         _______ _______ _______ _____ _____    ______ ____
ROOT
ATOM      1  C   UNL     1       5.542   5.669  16.927  0.00  0.00    +0.000 C 
ATOM      2  C   UNL     1       5.154   4.382  16.140  0.00  0.00    +0.000 C 
ATOM      3  O   UNL     1       5.525   4.139  15.000  0.00  0.00    +0.000 OA
ATOM      4  O   UNL     1       4.574   3.419  16.915  0.00  0.00    +0.000 OA
ATOM      5  C   UNL     1       3.408   3.811  17.640  0.00  0.00    +0.000 C 
ATOM      6  C   UNL     1       3.476   5.189  18.175  0.00  0.00    +0.000 A 
ATOM      7  C   UNL     1       4.283   6.158  17.711  0.00  0.00    +0.000 A 
ATOM      8  C   UNL     1       3.548   7.529  17.640  0.00  0.00    +0.000 A 
ATOM      9  C   UNL     1       2.538   7.829  18.519  0.00  0.00    +0.000 A 
ATOM     10  N   UNL     1       2.360   6.856  19.477  0.00  0.00    +0.000 N 
ATOM     11  C   UNL     1       2.644   5.539  19.337  0.00  0.00    +0.000 A 
ATOM     12  O   UNL     1       2.268   4.681  20.119  0.00  0.00    +0.000 OA
ATOM     13  C   UNL     1       1.748   7.358  20.680  0.00  0.00    +0.000 C 
ATOM     14  C   UNL     1       1.212   8.677  20.260  0.00  0.00    +0.000 A 
ATOM     15  C   UNL     1       1.515   8.929  18.931  0.00  0.00    +0.000 A 
ATOM     16  N   UNL     1       0.804   9.852  18.261  0.00  0.00    +0.000 NA
ATOM     17  C   UNL     1      -0.168  10.624  18.970  0.00  0.00    +0.000 A 
ATOM     18  C   UNL     1      -1.085  11.512  18.362  0.00  0.00    +0.000 A 
ATOM     19  C   UNL     1      -2.014  12.328  19.063  0.00  0.00    +0.000 A 
ATOM     20  C   UNL     1      -2.059  12.290  20.433  0.00  0.00    +0.000 A 
ATOM     21  F   UNL     1      -2.900  13.063  21.134  0.00  0.00    +0.000 F 
ATOM     22  C   UNL     1      -1.233  11.393  21.095  0.00  0.00    +0.000 A 
ATOM     23  C   UNL     1      -0.328  10.561  20.394  0.00  0.00    +0.000 A 
ATOM     24  C   UNL     1       0.405   9.527  21.021  0.00  0.00    +0.000 A 
ENDROOT
BRANCH   1  26
ATOM     25  C   UNL     1       7.591   5.993  18.800  0.00  0.00    +0.000 C 
ATOM     26  C   UNL     1       6.907   5.195  17.662  0.00  0.00    +0.000 C 
ENDBRANCH   1  26
BRANCH   1  27
ATOM     27  O   UNL     1       5.920   6.776  16.105  0.00  0.00    +0.000 OA
ATOM     28  H   UNL     1       6.724   6.533  15.615  0.00  0.00    +0.000 HD
ENDBRANCH   1  27
BRANCH  24  29
ATOM     29  C   UNL     1       0.258   9.268  22.480  0.00  0.00    +0.000 C 
ATOM     30  O   UNL     1       0.877   9.768  23.397  0.00  0.00    +0.000 OA
BRANCH  29  31
ATOM     31  O   UNL     1      -0.820   8.496  22.682  0.00  0.00    +0.000 OA
ATOM     32  H   UNL     1      -1.598   8.956  22.315  0.00  0.00    +0.000 HD
ENDBRANCH  29  31
ENDBRANCH  24  29
TORSDOF 4
ENDMDL
MODEL 2
REMARK VINA RESULT:      -8.4      2.336      3.841
REMARK  Name = 
REMARK  5 active torsions:
REMARK  status: ('A' for Active; 'I' for Inactive)
REMARK    1  A    between atoms: C_1  and  C_2
REMARK    2  A    between atoms: C_2  and  C_3
REMARK    3  A    between atoms: C_3  and  O_4
REMARK    4  A    between atoms: C_27  and  C_28
REMARK    5  A    between atoms: C_28  and  O_30
REMARK                            x       y       z     vdW  Elec       q    Type
REMARK                         _______ _______ _______ _____ _____    ______ ____
ROOT
ATOM      1  C   UNL     1       3.177   2.995  19.892  0.00  0.00    +0.000 C 
ATOM      2  C   UNL     1       4.683   2.789  20.235  0.00  0.00    +0.000 C 
ATOM      3  O   UNL     1       5.100   1.926  20.997  0.00  0.00    +0.000 OA
ATOM      4  O   UNL     1       5.531   3.482  19.420  0.00  0.00    +0.000 OA
ATOM      5  C   UNL     1       5.326   4.893  19.352  0.00  0.00    +0.000 C 
ATOM      6  C   UNL     1       3.900   5.288  19.371  0.00  0.00    +0.000 A 
ATOM      7  C   UNL     1       2.896   4.529  19.841  0.00  0.00    +0.000 A 
ATOM      8  C   UNL     1       1.877   5.373  20.664  0.00  0.00    +0.000 A 
ATOM      9  C   UNL     1       1.668   6.697  20.374  0.00  0.00    +0.000 A 
ATOM     10  N   UNL     1       2.357   7.112  19.256  0.00  0.00    +0.000 N 
ATOM     11  C   UNL     1       3.516   6.586  18.793  0.00  0.00    +0.000 A 
ATOM     12  O   UNL     1       4.206   7.119  17.939  0.00  0.00    +0.000 OA
ATOM     13  C   UNL     1       1.758   8.258  18.620  0.00  0.00    +0.000 C 
ATOM     14  C   UNL     1       0.822   8.765  19.654  0.00  0.00    +0.000 A 
ATOM     15  C   UNL     1       0.856   7.962  20.783  0.00  0.00    +0.000 A 
ATOM     16  N   UNL     1       0.401   8.452  21.949  0.00  0.00    +0.000 NA
ATOM     17  C   UNL     1      -0.205   9.746  21.964  0.00  0.00    +0.000 A 
ATOM     18  C   UNL     1      -0.583  10.441  23.137  0.00  0.00    +0.000 A 
ATOM     19  C   UNL     1      -1.240  11.700  23.161  0.00  0.00    +0.000 A 
ATOM     20  C   UNL     1      -1.558  12.327  21.984  0.00  0.00    +0.000 A 
ATOM     21  F   UNL     1      -2.203  13.502  21.960  0.00  0.00    +0.000 F 
ATOM     22  C   UNL     1      -1.160  11.735  20.793  0.00  0.00    +0.000 A 
ATOM     23  C   UNL     1      -0.481  10.494  20.772  0.00  0.00    +0.000 A 
ATOM     24  C   UNL     1       0.081   9.948  19.595  0.00  0.00    +0.000 A 
ENDROOT
BRANCH   1  26
ATOM     25  C   UNL     1       2.587   2.529  17.200  0.00  0.00    +0.000 C 
ATOM     26  C   UNL     1       3.008   2.025  18.603  0.00  0.00    +0.000 C 
ENDBRANCH   1  26
BRANCH   1  27
ATOM     27  O   UNL     1       2.270   2.483  20.872  0.00  0.00    +0.000 OA
ATOM     28  H   UNL     1       1.851   1.682  20.513  0.00  0.00    +0.000 HD
ENDBRANCH   1  27
BRANCH  24  29
ATOM     29  C   UNL     1      -0.028  10.668  18.296  0.00  0.00    +0.000 C 
ATOM     30  O   UNL     1      -0.938  10.632  17.492  0.00  0.00    +0.000 OA
BRANCH  29  31
ATOM     31  O   UNL     1       0.983  11.543  18.194  0.00  0.00    +0.000 OA
ATOM     32  H   UNL     1       1.805  11.092  18.461  0.00  0.00    +0.000 HD
ENDBRANCH  29  31
ENDBRANCH  24  29
TORSDOF 4
ENDMDL
MODEL 3
REMARK VINA RESULT:      -8.1      3.411      8.273
REMARK  Name = 
REMARK  5 active torsions:
REMARK  status: ('A' for Active; 'I' for Inactive)
REMARK    1  A    between atoms: C_1  and  C_2
REMARK    2  A    between atoms: C_2  and  C_3
REMARK    3  A    between atoms: C_3  and  O_4
REMARK    4  A    between atoms: C_27  and  C_28
REMARK    5  A    between atoms: C_28  and  O_30
REMARK                            x       y       z     vdW  Elec       q    Type
REMARK                         _______ _______ _______ _____ _____    ______ ____
ROOT
ATOM      1  C   UNL     1      -1.197  12.366  19.009  0.00  0.00    +0.000 C 
ATOM      2  C   UNL     1      -0.692  13.606  19.804  0.00  0.00    +0.000 C 
ATOM      3  O   UNL     1      -0.744  14.755  19.387  0.00  0.00    +0.000 OA
ATOM      4  O   UNL     1      -0.420  13.343  21.117  0.00  0.00    +0.000 OA
ATOM      5  C   UNL     1       0.519  12.297  21.367  0.00  0.00    +0.000 C 
ATOM      6  C   UNL     1       0.397  11.153  20.437  0.00  0.00    +0.000 A 
ATOM      7  C   UNL     1      -0.179  11.203  19.224  0.00  0.00    +0.000 A 
ATOM      8  C   UNL     1       0.638  10.399  18.169  0.00  0.00    +0.000 A 
ATOM      9  C   UNL     1       1.378   9.305  18.540  0.00  0.00    +0.000 A 
ATOM     10  N   UNL     1       1.214   8.978  19.868  0.00  0.00    +0.000 N 
ATOM     11  C   UNL     1       0.891   9.835  20.866  0.00  0.00    +0.000 A 
ATOM     12  O   UNL     1       0.974   9.553  22.051  0.00  0.00    +0.000 OA
ATOM     13  C   UNL     1       1.496   7.592  20.144  0.00  0.00    +0.000 C 
ATOM     14  C   UNL     1       2.216   7.147  18.925  0.00  0.00    +0.000 A 
ATOM     15  C   UNL     1       2.316   8.182  18.009  0.00  0.00    +0.000 A 
ATOM     16  N   UNL     1       3.248   8.112  17.041  0.00  0.00    +0.000 NA
ATOM     17  C   UNL     1       4.031   6.923  16.922  0.00  0.00    +0.000 A 
ATOM     18  C   UNL     1       5.140   6.777  16.056  0.00  0.00    +0.000 A 
ATOM     19  C   UNL     1       5.888   5.582  15.887  0.00  0.00    +0.000 A 
ATOM     20  C   UNL     1       5.545   4.455  16.589  0.00  0.00    +0.000 A 
ATOM     21  F   UNL     1       6.205   3.299  16.438  0.00  0.00    +0.000 F 
ATOM     22  C   UNL     1       4.506   4.541  17.506  0.00  0.00    +0.000 A 
ATOM     23  C   UNL     1       3.780   5.741  17.694  0.00  0.00    +0.000 A 
ATOM     24  C   UNL     1       2.833   5.909  18.730  0.00  0.00    +0.000 A 
ENDROOT
BRANCH   1  26
ATOM     25  C   UNL     1      -3.882  11.689  18.627  0.00  0.00    +0.000 C 
ATOM     26  C   UNL     1      -2.743  12.285  19.492  0.00  0.00    +0.000 C 
ENDBRANCH   1  26
BRANCH   1  27
ATOM     27  O   UNL     1      -1.253  12.554  17.592  0.00  0.00    +0.000 OA
ATOM     28  H   UNL     1      -1.664  11.767  17.194  0.00  0.00    +0.000 HD
ENDBRANCH   1  27
BRANCH  24  29
ATOM     29  C   UNL     1       2.546   4.801  19.684  0.00  0.00    +0.000 C 
ATOM     30  O   UNL     1       3.059   4.589  20.764  0.00  0.00    +0.000 OA
BRANCH  29  31
ATOM     31  O   UNL     1       1.470   4.124  19.258  0.00  0.00    +0.000 OA
ATOM     32  H   UNL     1       1.758   3.233  18.984  0.00  0.00    +0.000 HD
ENDBRANCH  29  31
ENDBRANCH  24  29
TORSDOF 4
ENDMDL
MODEL 4
REMARK VINA RESULT:      -8.0      3.474      8.452
REMARK  Name = 
REMARK  5 active torsions:
REMARK  status: ('A' for Active; 'I' for Inactive)
REMARK    1  A    between atoms: C_1  and  C_2
REMARK    2  A    between atoms: C_2  and  C_3
REMARK    3  A    between atoms: C_3  and  O_4
REMARK    4  A    between atoms: C_27  and  C_28
REMARK    5  A    between atoms: C_28  and  O_30
REMARK                            x       y       z     vdW  Elec       q    Type
REMARK                         _______ _______ _______ _____ _____    ______ ____
ROOT
ATOM      1  C   UNL     1      -0.442  11.872  21.624  0.00  0.00    +0.000 C 
ATOM      2  C   UNL     1      -1.888  12.155  21.120  0.00  0.00    +0.000 C 
ATOM      3  O   UNL     1      -2.816  12.482  21.848  0.00  0.00    +0.000 OA
ATOM      4  O   UNL     1      -1.985  12.262  19.762  0.00  0.00    +0.000 OA
ATOM      5  C   UNL     1      -1.509  11.147  19.008  0.00  0.00    +0.000 C 
ATOM      6  C   UNL     1      -0.293  10.522  19.573  0.00  0.00    +0.000 A 
ATOM      7  C   UNL     1       0.109  10.634  20.850  0.00  0.00    +0.000 A 
ATOM      8  C   UNL     1       0.635   9.277  21.406  0.00  0.00    +0.000 A 
ATOM      9  C   UNL     1       1.221   8.358  20.573  0.00  0.00    +0.000 A 
ATOM     10  N   UNL     1       1.368   8.825  19.286  0.00  0.00    +0.000 N 
ATOM     11  C   UNL     1       0.589   9.754  18.680  0.00  0.00    +0.000 A 
ATOM     12  O   UNL     1       0.612   9.975  17.480  0.00  0.00    +0.000 OA
ATOM     13  C   UNL     1       2.427   8.165  18.566  0.00  0.00    +0.000 C 
ATOM     14  C   UNL     1       2.704   6.968  19.399  0.00  0.00    +0.000 A 
ATOM     15  C   UNL     1       1.892   6.954  20.522  0.00  0.00    +0.000 A 
ATOM     16  N   UNL     1       1.703   5.796  21.179  0.00  0.00    +0.000 NA
ATOM     17  C   UNL     1       2.434   4.640  20.764  0.00  0.00    +0.000 A 
ATOM     18  C   UNL     1       2.218   3.334  21.263  0.00  0.00    +0.000 A 
ATOM     19  C   UNL     1       2.978   2.190  20.901  0.00  0.00    +0.000 A 
ATOM     20  C   UNL     1       4.012   2.310  20.009  0.00  0.00    +0.000 A 
ATOM     21  F   UNL     1       4.772   1.262  19.662  0.00  0.00    +0.000 F 
ATOM     22  C   UNL     1       4.241   3.549  19.429  0.00  0.00    +0.000 A 
ATOM     23  C   UNL     1       3.465   4.682  19.769  0.00  0.00    +0.000 A 
ATOM     24  C   UNL     1       3.563   5.914  19.080  0.00  0.00    +0.000 A 
ENDROOT
BRANCH   1  26
ATOM     25  C   UNL     1       1.425  13.681  20.595  0.00  0.00    +0.000 C 
ATOM     26  C   UNL     1       0.227  13.346  21.519  0.00  0.00    +0.000 C 
ENDBRANCH   1  26
BRANCH   1  27
ATOM     27  O   UNL     1      -0.355  11.516  23.006  0.00  0.00    +0.000 OA
ATOM     28  H   UNL     1      -1.014  12.033  23.499  0.00  0.00    +0.000 HD
ENDBRANCH   1  27
BRANCH  24  29
ATOM     29  C   UNL     1       4.515   6.076  17.946  0.00  0.00    +0.000 C 
ATOM     30  O   UNL     1       5.660   6.477  17.979  0.00  0.00    +0.000 OA
BRANCH  29  31
ATOM     31  O   UNL     1       3.978   5.534  16.843  0.00  0.00    +0.000 OA
ATOM     32  H   UNL     1       3.015   5.454  16.979  0.00  0.00    +0.000 HD
ENDBRANCH  29  31
ENDBRANCH  24  29
TORSDOF 4
ENDMDL
MODEL 5
REMARK VINA RESULT:      -8.0      2.418      4.032
REMARK  Name = 
REMARK  5 active torsions:
REMARK  status: ('A' for Active; 'I' for Inactive)
REMARK    1  A    between atoms: C_1  and  C_2
REMARK    2  A    between atoms: C_2  and  C_3
REMARK    3  A    between atoms: C_3  and  O_4
REMARK    4  A    between atoms: C_27  and  C_28
REMARK    5  A    between atoms: C_28  and  O_30
REMARK                            x       y       z     vdW  Elec       q    Type
REMARK                         _______ _______ _______ _____ _____    ______ ____
ROOT
ATOM      1  C   UNL     1       3.084   5.268  19.664  0.00  0.00    +0.000 C 
ATOM      2  C   UNL     1       4.611   5.346  19.364  0.00  0.00    +0.000 C 
ATOM      3  O   UNL     1       5.467   4.757  20.010  0.00  0.00    +0.000 OA
ATOM      4  O   UNL     1       4.904   5.922  18.161  0.00  0.00    +0.000 OA
ATOM      5  C   UNL     1       4.386   7.235  17.948  0.00  0.00    +0.000 C 
ATOM      6  C   UNL     1       3.030   7.437  18.504  0.00  0.00    +0.000 A 
ATOM      7  C   UNL     1       2.478   6.694  19.478  0.00  0.00    +0.000 A 
ATOM      8  C   UNL     1       1.700   7.576  20.500  0.00  0.00    +0.000 A 
ATOM      9  C   UNL     1       1.112   8.751  20.106  0.00  0.00    +0.000 A 
ATOM     10  N   UNL     1       1.206   8.964  18.749  0.00  0.00    +0.000 N 
ATOM     11  C   UNL     1       2.180   8.494  17.934  0.00  0.00    +0.000 A 
ATOM     12  O   UNL     1       2.352   8.885  16.790  0.00  0.00    +0.000 OA
ATOM     13  C   UNL     1       0.174   9.833  18.244  0.00  0.00    +0.000 C 
ATOM     14  C   UNL     1      -0.375  10.454  19.475  0.00  0.00    +0.000 A 
ATOM     15  C   UNL     1       0.268   9.962  20.601  0.00  0.00    +0.000 A 
ATOM     16  N   UNL     1       0.205  10.660  21.748  0.00  0.00    +0.000 NA
ATOM     17  C   UNL     1      -0.615  11.830  21.800  0.00  0.00    +0.000 A 
ATOM     18  C   UNL     1      -0.651  12.736  22.886  0.00  0.00    +0.000 A 
ATOM     19  C   UNL     1      -1.505  13.868  22.972  0.00  0.00    +0.000 A 
ATOM     20  C   UNL     1      -2.382  14.142  21.955  0.00  0.00    +0.000 A 
ATOM     21  F   UNL     1      -3.225  15.183  22.009  0.00  0.00    +0.000 F 
ATOM     22  C   UNL     1      -2.357  13.333  20.828  0.00  0.00    +0.000 A 
ATOM     23  C   UNL     1      -1.487  12.223  20.730  0.00  0.00    +0.000 A 
ATOM     24  C   UNL     1      -1.320  11.481  19.538  0.00  0.00    +0.000 A 
ENDROOT
BRANCH   1  26
ATOM     25  C   UNL     1       1.518   4.053  17.693  0.00  0.00    +0.000 C 
ATOM     26  C   UNL     1       2.645   3.999  18.755  0.00  0.00    +0.000 C 
ENDBRANCH   1  26
BRANCH   1  27
ATOM     27  O   UNL     1       2.762   4.899  21.008  0.00  0.00    +0.000 OA
ATOM     28  H   UNL     1       3.565   4.551  21.431  0.00  0.00    +0.000 HD
ENDBRANCH   1  27
BRANCH  24  29
ATOM     29  C   UNL     1      -2.077  11.841  18.307  0.00  0.00    +0.000 C 
ATOM     30  O   UNL     1      -3.226  11.568  18.026  0.00  0.00    +0.000 OA
BRANCH  29  31
ATOM     31  O   UNL     1      -1.347  12.699  17.579  0.00  0.00    +0.000 OA
ATOM     32  H   UNL     1      -0.405  12.480  17.703  0.00  0.00    +0.000 HD
ENDBRANCH  29  31
ENDBRANCH  24  29
TORSDOF 4
ENDMDL
MODEL 6
REMARK VINA RESULT:      -7.8      2.237      3.685
REMARK  Name = 
REMARK  5 active torsions:
REMARK  status: ('A' for Active; 'I' for Inactive)
REMARK    1  A    between atoms: C_1  and  C_2
REMARK    2  A    between atoms: C_2  and  C_3
REMARK    3  A    between atoms: C_3  and  O_4
REMARK    4  A    between atoms: C_27  and  C_28
REMARK    5  A    between atoms: C_28  and  O_30
REMARK                            x       y       z     vdW  Elec       q    Type
REMARK                         _______ _______ _______ _____ _____    ______ ____
ROOT
ATOM      1  C   UNL     1       3.312   4.407  19.009  0.00  0.00    +0.000 C 
ATOM      2  C   UNL     1       4.870   4.421  18.981  0.00  0.00    +0.000 C 
ATOM      3  O   UNL     1       5.573   3.666  19.638  0.00  0.00    +0.000 OA
ATOM      4  O   UNL     1       5.393   5.173  17.968  0.00  0.00    +0.000 OA
ATOM      5  C   UNL     1       4.979   6.539  17.919  0.00  0.00    +0.000 C 
ATOM      6  C   UNL     1       3.558   6.742  18.275  0.00  0.00    +0.000 A 
ATOM      7  C   UNL     1       2.812   5.885  18.993  0.00  0.00    +0.000 A 
ATOM      8  C   UNL     1       1.909   6.632  20.019  0.00  0.00    +0.000 A 
ATOM      9  C   UNL     1       1.451   7.899  19.758  0.00  0.00    +0.000 A 
ATOM     10  N   UNL     1       1.789   8.337  18.497  0.00  0.00    +0.000 N 
ATOM     11  C   UNL     1       2.868   7.943  17.778  0.00  0.00    +0.000 A 
ATOM     12  O   UNL     1       3.252   8.514  16.770  0.00  0.00    +0.000 OA
ATOM     13  C   UNL     1       0.900   9.355  17.999  0.00  0.00    +0.000 C 
ATOM     14  C   UNL     1       0.173   9.792  19.217  0.00  0.00    +0.000 A 
ATOM     15  C   UNL     1       0.589   9.066  20.323  0.00  0.00    +0.000 A 
ATOM     16  N   UNL     1       0.359   9.557  21.553  0.00  0.00    +0.000 NA
ATOM     17  C   UNL     1      -0.405  10.758  21.685  0.00  0.00    +0.000 A 
ATOM     18  C   UNL     1      -0.588  11.462  22.899  0.00  0.00    +0.000 A 
ATOM     19  C   UNL     1      -1.392  12.622  23.052  0.00  0.00    +0.000 A 
ATOM     20  C   UNL     1      -2.066  13.135  21.973  0.00  0.00    +0.000 A 
ATOM     21  F   UNL     1      -2.858  14.210  22.080  0.00  0.00    +0.000 F 
ATOM     22  C   UNL     1      -1.883  12.534  20.736  0.00  0.00    +0.000 A 
ATOM     23  C   UNL     1      -1.059  11.395  20.579  0.00  0.00    +0.000 A 
ATOM     24  C   UNL     1      -0.720  10.862  19.314  0.00  0.00    +0.000 A 
ENDROOT
BRANCH   1  26
ATOM     25  C   UNL     1       3.153   1.818  17.966  0.00  0.00    +0.000 C 
ATOM     26  C   UNL     1       2.981   3.352  17.823  0.00  0.00    +0.000 C 
ENDBRANCH   1  26
BRANCH   1  27
ATOM     27  O   UNL     1       2.746   3.836  20.191  0.00  0.00    +0.000 OA
ATOM     28  H   UNL     1       3.299   4.089  20.950  0.00  0.00    +0.000 HD
ENDBRANCH   1  27
BRANCH  24  29
ATOM     29  C   UNL     1      -1.236  11.486  18.063  0.00  0.00    +0.000 C 
ATOM     30  O   UNL     1      -2.249  11.214  17.451  0.00  0.00    +0.000 OA
BRANCH  29  31
ATOM     31  O   UNL     1      -0.491  12.562  17.772  0.00  0.00    +0.000 OA
ATOM     32  H   UNL     1      -0.082  12.422  16.897  0.00  0.00    +0.000 HD
ENDBRANCH  29  31
ENDBRANCH  24  29
TORSDOF 4
ENDMDL
MODEL 7
REMARK VINA RESULT:      -7.7      1.313      1.621
REMARK  Name = 
REMARK  5 active torsions:
REMARK  status: ('A' for Active; 'I' for Inactive)
REMARK    1  A    between atoms: C_1  and  C_2
REMARK    2  A    between atoms: C_2  and  C_3
REMARK    3  A    between atoms: C_3  and  O_4
REMARK    4  A    between atoms: C_27  and  C_28
REMARK    5  A    between atoms: C_28  and  O_30
REMARK                            x       y       z     vdW  Elec       q    Type
REMARK                         _______ _______ _______ _____ _____    ______ ____
ROOT
ATOM      1  C   UNL     1       4.749   6.356  17.152  0.00  0.00    +0.000 C 
ATOM      2  C   UNL     1       4.546   4.825  16.952  0.00  0.00    +0.000 C 
ATOM      3  O   UNL     1       4.813   4.227  15.919  0.00  0.00    +0.000 OA
ATOM      4  O   UNL     1       4.287   4.150  18.111  0.00  0.00    +0.000 OA
ATOM      5  C   UNL     1       3.165   4.608  18.868  0.00  0.00    +0.000 C 
ATOM      6  C   UNL     1       3.007   6.079  18.867  0.00  0.00    +0.000 A 
ATOM      7  C   UNL     1       3.525   6.909  17.946  0.00  0.00    +0.000 A 
ATOM      8  C   UNL     1       2.513   8.025  17.549  0.00  0.00    +0.000 A 
ATOM      9  C   UNL     1       1.583   8.480  18.449  0.00  0.00    +0.000 A 
ATOM     10  N   UNL     1       1.737   7.926  19.700  0.00  0.00    +0.000 N 
ATOM     11  C   UNL     1       2.274   6.713  19.974  0.00  0.00    +0.000 A 
ATOM     12  O   UNL     1       2.190   6.168  21.063  0.00  0.00    +0.000 OA
ATOM     13  C   UNL     1       1.190   8.748  20.750  0.00  0.00    +0.000 C 
ATOM     14  C   UNL     1       0.338   9.713  20.011  0.00  0.00    +0.000 A 
ATOM     15  C   UNL     1       0.410   9.486  18.645  0.00  0.00    +0.000 A 
ATOM     16  N   UNL     1      -0.559   9.970  17.849  0.00  0.00    +0.000 NA
ATOM     17  C   UNL     1      -1.574  10.797  18.422  0.00  0.00    +0.000 A 
ATOM     18  C   UNL     1      -2.729  11.241  17.735  0.00  0.00    +0.000 A 
ATOM     19  C   UNL     1      -3.713  12.111  18.277  0.00  0.00    +0.000 A 
ATOM     20  C   UNL     1      -3.575  12.587  19.555  0.00  0.00    +0.000 A 
ATOM     21  F   UNL     1      -4.465  13.432  20.094  0.00  0.00    +0.000 F 
ATOM     22  C   UNL     1      -2.500  12.142  20.312  0.00  0.00    +0.000 A 
ATOM     23  C   UNL     1      -1.536  11.254  19.781  0.00  0.00    +0.000 A 
ATOM     24  C   UNL     1      -0.528  10.655  20.571  0.00  0.00    +0.000 A 
ENDROOT
BRANCH   1  26
ATOM     25  C   UNL     1       7.502   5.933  16.916  0.00  0.00    +0.000 C 
ATOM     26  C   UNL     1       6.265   6.406  17.723  0.00  0.00    +0.000 C 
ENDBRANCH   1  26
BRANCH   1  27
ATOM     27  O   UNL     1       4.777   7.113  15.938  0.00  0.00    +0.000 OA
ATOM     28  H   UNL     1       5.108   6.540  15.227  0.00  0.00    +0.000 HD
ENDBRANCH   1  27
BRANCH  24  29
ATOM     29  C   UNL     1      -0.430  10.949  22.028  0.00  0.00    +0.000 C 
ATOM     30  O   UNL     1      -0.857  10.293  22.956  0.00  0.00    +0.000 OA
BRANCH  29  31
ATOM     31  O   UNL     1       0.383  12.000  22.210  0.00  0.00    +0.000 OA
ATOM     32  H   UNL     1       0.983  11.797  22.952  0.00  0.00    +0.000 HD
ENDBRANCH  29  31
ENDBRANCH  24  29
TORSDOF 4
ENDMDL
MODEL 8
REMARK VINA RESULT:      -7.6      3.479      8.242
REMARK  Name = 
REMARK  5 active torsions:
REMARK  status: ('A' for Active; 'I' for Inactive)
REMARK    1  A    between atoms: C_1  and  C_2
REMARK    2  A    between atoms: C_2  and  C_3
REMARK    3  A    between atoms: C_3  and  O_4
REMARK    4  A    between atoms: C_27  and  C_28
REMARK    5  A    between atoms: C_28  and  O_30
REMARK                            x       y       z     vdW  Elec       q    Type
REMARK                         _______ _______ _______ _____ _____    ______ ____
ROOT
ATOM      1  C   UNL     1      -0.805  13.193  19.088  0.00  0.00    +0.000 C 
ATOM      2  C   UNL     1      -0.127  14.409  19.786  0.00  0.00    +0.000 C 
ATOM      3  O   UNL     1       0.001  15.511  19.271  0.00  0.00    +0.000 OA
ATOM      4  O   UNL     1       0.088  14.225  21.123  0.00  0.00    +0.000 OA
ATOM      5  C   UNL     1       0.855  13.076  21.484  0.00  0.00    +0.000 C 
ATOM      6  C   UNL     1       0.571  11.886  20.654  0.00  0.00    +0.000 A 
ATOM      7  C   UNL     1       0.022  11.914  19.427  0.00  0.00    +0.000 A 
ATOM      8  C   UNL     1       0.719  10.906  18.465  0.00  0.00    +0.000 A 
ATOM      9  C   UNL     1       1.281   9.751  18.947  0.00  0.00    +0.000 A 
ATOM     10  N   UNL     1       1.054   9.571  20.293  0.00  0.00    +0.000 N 
ATOM     11  C   UNL     1       0.854  10.552  21.206  0.00  0.00    +0.000 A 
ATOM     12  O   UNL     1       0.881  10.367  22.412  0.00  0.00    +0.000 OA
ATOM     13  C   UNL     1       1.120   8.189  20.694  0.00  0.00    +0.000 C 
ATOM     14  C   UNL     1       1.778   7.534  19.536  0.00  0.00    +0.000 A 
ATOM     15  C   UNL     1       2.044   8.457  18.536  0.00  0.00    +0.000 A 
ATOM     16  N   UNL     1       2.965   8.163  17.602  0.00  0.00    +0.000 NA
ATOM     17  C   UNL     1       3.560   6.864  17.604  0.00  0.00    +0.000 A 
ATOM     18  C   UNL     1       4.644   6.477  16.781  0.00  0.00    +0.000 A 
ATOM     19  C   UNL     1       5.203   5.173  16.733  0.00  0.00    +0.000 A 
ATOM     20  C   UNL     1       4.685   4.177  17.520  0.00  0.00    +0.000 A 
ATOM     21  F   UNL     1       5.164   2.926  17.485  0.00  0.00    +0.000 F 
ATOM     22  C   UNL     1       3.662   4.499  18.401  0.00  0.00    +0.000 A 
ATOM     23  C   UNL     1       3.124   5.806  18.468  0.00  0.00    +0.000 A 
ATOM     24  C   UNL     1       2.202   6.205  19.463  0.00  0.00    +0.000 A 
ENDROOT
BRANCH   1  26
ATOM     25  C   UNL     1      -3.352  12.216  19.698  0.00  0.00    +0.000 C 
ATOM     26  C   UNL     1      -2.350  13.388  19.539  0.00  0.00    +0.000 C 
ENDBRANCH   1  26
BRANCH   1  27
ATOM     27  O   UNL     1      -0.817  13.261  17.660  0.00  0.00    +0.000 OA
ATOM     28  H   UNL     1      -1.183  14.122  17.396  0.00  0.00    +0.000 HD
ENDBRANCH   1  27
BRANCH  24  29
ATOM     29  C   UNL     1       1.740   5.242  20.501  0.00  0.00    +0.000 C 
ATOM     30  O   UNL     1       0.799   4.476  20.449  0.00  0.00    +0.000 OA
BRANCH  29  31
ATOM     31  O   UNL     1       2.643   5.200  21.492  0.00  0.00    +0.000 OA
ATOM     32  H   UNL     1       2.288   4.636  22.205  0.00  0.00    +0.000 HD
ENDBRANCH  29  31
ENDBRANCH  24  29
TORSDOF 4
ENDMDL
MODEL 9
REMARK VINA RESULT:      -7.4      3.363      8.489
REMARK  Name = 
REMARK  5 active torsions:
REMARK  status: ('A' for Active; 'I' for Inactive)
REMARK    1  A    between atoms: C_1  and  C_2
REMARK    2  A    between atoms: C_2  and  C_3
REMARK    3  A    between atoms: C_3  and  O_4
REMARK    4  A    between atoms: C_27  and  C_28
REMARK    5  A    between atoms: C_28  and  O_30
REMARK                            x       y       z     vdW  Elec       q    Type
REMARK                         _______ _______ _______ _____ _____    ______ ____
ROOT
ATOM      1  C   UNL     1      -2.091  12.753  20.272  0.00  0.00    +0.000 C 
ATOM      2  C   UNL     1      -1.591  13.970  21.106  0.00  0.00    +0.000 C 
ATOM      3  O   UNL     1      -1.659  15.133  20.730  0.00  0.00    +0.000 OA
ATOM      4  O   UNL     1      -1.301  13.663  22.405  0.00  0.00    +0.000 OA
ATOM      5  C   UNL     1      -0.349  12.619  22.608  0.00  0.00    +0.000 C 
ATOM      6  C   UNL     1      -0.469  11.507  21.640  0.00  0.00    +0.000 A 
ATOM      7  C   UNL     1      -1.059  11.594  20.435  0.00  0.00    +0.000 A 
ATOM      8  C   UNL     1      -0.246  10.837  19.344  0.00  0.00    +0.000 A 
ATOM      9  C   UNL     1       0.509   9.738  19.669  0.00  0.00    +0.000 A 
ATOM     10  N   UNL     1       0.363   9.363  20.986  0.00  0.00    +0.000 N 
ATOM     11  C   UNL     1       0.043  10.180  22.017  0.00  0.00    +0.000 A 
ATOM     12  O   UNL     1       0.141   9.858  23.190  0.00  0.00    +0.000 OA
ATOM     13  C   UNL     1       0.662   7.971  21.210  0.00  0.00    +0.000 C 
ATOM     14  C   UNL     1       1.374   7.577  19.968  0.00  0.00    +0.000 A 
ATOM     15  C   UNL     1       1.453   8.644  19.088  0.00  0.00    +0.000 A 
ATOM     16  N   UNL     1       2.375   8.619  18.109  0.00  0.00    +0.000 NA
ATOM     17  C   UNL     1       3.169   7.443  17.939  0.00  0.00    +0.000 A 
ATOM     18  C   UNL     1       4.270   7.339  17.057  0.00  0.00    +0.000 A 
ATOM     19  C   UNL     1       5.028   6.158  16.838  0.00  0.00    +0.000 A 
ATOM     20  C   UNL     1       4.704   5.004  17.503  0.00  0.00    +0.000 A 
ATOM     21  F   UNL     1       5.374   3.861  17.304  0.00  0.00    +0.000 F 
ATOM     22  C   UNL     1       3.675   5.047  18.433  0.00  0.00    +0.000 A 
ATOM     23  C   UNL     1       2.939   6.231  18.672  0.00  0.00    +0.000 A 
ATOM     24  C   UNL     1       2.001   6.353  19.723  0.00  0.00    +0.000 A 
ENDROOT
BRANCH   1  26
ATOM     25  C   UNL     1      -4.073  12.826  22.242  0.00  0.00    +0.000 C 
ATOM     26  C   UNL     1      -3.631  12.639  20.769  0.00  0.00    +0.000 C 
ENDBRANCH   1  26
BRANCH   1  27
ATOM     27  O   UNL     1      -2.165  12.990  18.864  0.00  0.00    +0.000 OA
ATOM     28  H   UNL     1      -1.303  12.771  18.470  0.00  0.00    +0.000 HD
ENDBRANCH   1  27
BRANCH  24  29
ATOM     29  C   UNL     1       1.735   5.209  20.640  0.00  0.00    +0.000 C 
ATOM     30  O   UNL     1       0.919   4.319  20.514  0.00  0.00    +0.000 OA
BRANCH  29  31
ATOM     31  O   UNL     1       2.678   5.186  21.594  0.00  0.00    +0.000 OA
ATOM     32  H   UNL     1       2.239   5.044  22.454  0.00  0.00    +0.000 HD
ENDBRANCH  29  31
ENDBRANCH  24  29
TORSDOF 4
ENDMDL
