MODEL 1
REMARK VINA RESULT:      -7.4      0.000      0.000
REMARK  Name = 
REMARK  8 active torsions:
REMARK  status: ('A' for Active; 'I' for Inactive)
REMARK    1  A    between atoms: C_1  and  C_2
REMARK    2  A    between atoms: C_4  and  C_5
REMARK    3  A    between atoms: N_6  and  C_7
REMARK    4  A    between atoms: C_7  and  C_8
REMARK    5  A    between atoms: C_8  and  C_9
REMARK    6  A    between atoms: C_8  and  N_10
REMARK    7  A    between atoms: N_10  and  C_11
REMARK    8  A    between atoms: C_13  and  C_14
REMARK                            x       y       z     vdW  Elec       q    Type
REMARK                         _______ _______ _______ _____ _____    ______ ____
ROOT
ATOM      1  N   UNL     1       4.057   4.137  16.918  0.00  0.00    +0.000 N 
ATOM      2  H   UNL     1       3.216   4.355  16.399  0.00  0.00    +0.000 HD
ENDROOT
BRANCH   1   3
ATOM      3  C   UNL     1       5.245   4.715  16.511  0.00  0.00    +0.000 A 
ATOM      4  N   UNL     1       5.853   5.605  17.313  0.00  0.00    +0.000 NA
ATOM      5  C   UNL     1       6.999   6.159  16.882  0.00  0.00    +0.000 A 
ATOM      6  C   UNL     1       7.705   7.110  17.794  0.00  0.00    +0.000 C 
ATOM      7  N   UNL     1       7.556   5.933  15.682  0.00  0.00    +0.000 NA
ATOM      8  C   UNL     1       6.918   5.066  14.875  0.00  0.00    +0.000 A 
ATOM      9  C   UNL     1       5.736   4.435  15.241  0.00  0.00    +0.000 A 
ATOM     10  C   UNL     1       5.049   3.492  14.292  0.00  0.00    +0.000 C 
ATOM     11  C   UNL     1       5.509   3.680  12.841  0.00  0.00    +0.000 C 
ATOM     12  N   UNL     1       6.969   3.695  12.765  0.00  0.00    +0.000 NA
ATOM     13  C   UNL     1       7.490   4.871  13.483  0.00  0.00    +0.000 C 
ATOM     14  H   UNL     1       7.265   3.752  11.793  0.00  0.00    +0.000 HD
ENDBRANCH   1   3
BRANCH   1  15
ATOM     15  C   UNL     1       4.014   3.018  17.853  0.00  0.00    +0.000 C 
ATOM     16  C   UNL     1       2.714   2.232  17.676  0.00  0.00    +0.000 C 
BRANCH  15  17
ATOM     17  C   UNL     1       4.228   3.542  19.293  0.00  0.00    +0.000 C 
BRANCH  17  23
ATOM     18  C   UNL     1       1.966   7.763  19.787  0.00  0.00    +0.000 C 
ATOM     19  C   UNL     1       2.207   6.316  19.986  0.00  0.00    +0.000 A 
ATOM     20  C   UNL     1       1.598   5.435  20.907  0.00  0.00    +0.000 A 
ATOM     21  C   UNL     1       2.227   4.223  20.724  0.00  0.00    +0.000 A 
ATOM     22  C   UNL     1       1.995   2.914  21.378  0.00  0.00    +0.000 C 
ATOM     23  N   UNL     1       3.198   4.448  19.773  0.00  0.00    +0.000 N 
ATOM     24  N   UNL     1       3.111   5.684  19.238  0.00  0.00    +0.000 NA
ENDBRANCH  17  23
ENDBRANCH  15  17
ENDBRANCH   1  15
TORSDOF 4
ENDMDL
MODEL 2
REMARK VINA RESULT:      -7.1      0.932      1.194
REMARK  Name = 
REMARK  8 active torsions:
REMARK  status: ('A' for Active; 'I' for Inactive)
REMARK    1  A    between atoms: C_1  and  C_2
REMARK    2  A    between atoms: C_4  and  C_5
REMARK    3  A    between atoms: N_6  and  C_7
REMARK    4  A    between atoms: C_7  and  C_8
REMARK    5  A    between atoms: C_8  and  C_9
REMARK    6  A    between atoms: C_8  and  N_10
REMARK    7  A    between atoms: N_10  and  C_11
REMARK    8  A    between atoms: C_13  and  C_14
REMARK                            x       y       z     vdW  Elec       q    Type
REMARK                         _______ _______ _______ _____ _____    ______ ____
ROOT
ATOM      1  N   UNL     1       4.043   3.620  16.525  0.00  0.00    +0.000 N 
ATOM      2  H   UNL     1       3.535   3.214  15.749  0.00  0.00    +0.000 HD
ENDROOT
BRANCH   1   3
ATOM      3  C   UNL     1       5.209   4.310  16.253  0.00  0.00    +0.000 A 
ATOM      4  N   UNL     1       5.737   5.108  17.196  0.00  0.00    +0.000 NA
ATOM      5  C   UNL     1       6.864   5.777  16.896  0.00  0.00    +0.000 A 
ATOM      6  C   UNL     1       7.482   6.624  17.962  0.00  0.00    +0.000 C 
ATOM      7  N   UNL     1       7.474   5.753  15.702  0.00  0.00    +0.000 NA
ATOM      8  C   UNL     1       6.916   4.976  14.755  0.00  0.00    +0.000 A 
ATOM      9  C   UNL     1       5.759   4.240  14.978  0.00  0.00    +0.000 A 
ATOM     10  C   UNL     1       5.161   3.406  13.878  0.00  0.00    +0.000 C 
ATOM     11  C   UNL     1       5.659   3.822  12.489  0.00  0.00    +0.000 C 
ATOM     12  N   UNL     1       7.117   3.923  12.478  0.00  0.00    +0.000 NA
ATOM     13  C   UNL     1       7.545   5.011  13.374  0.00  0.00    +0.000 C 
ATOM     14  H   UNL     1       7.443   4.134  11.536  0.00  0.00    +0.000 HD
ENDBRANCH   1   3
BRANCH   1  15
ATOM     15  C   UNL     1       3.682   3.200  17.874  0.00  0.00    +0.000 C 
ATOM     16  C   UNL     1       3.801   1.681  18.005  0.00  0.00    +0.000 C 
BRANCH  15  17
ATOM     17  C   UNL     1       2.274   3.741  18.221  0.00  0.00    +0.000 C 
BRANCH  17  23
ATOM     18  C   UNL     1       2.554   8.533  17.859  0.00  0.00    +0.000 C 
ATOM     19  C   UNL     1       2.373   7.227  18.531  0.00  0.00    +0.000 A 
ATOM     20  C   UNL     1       2.335   6.940  19.914  0.00  0.00    +0.000 A 
ATOM     21  C   UNL     1       2.214   5.570  19.999  0.00  0.00    +0.000 A 
ATOM     22  C   UNL     1       2.091   4.691  21.186  0.00  0.00    +0.000 C 
ATOM     23  N   UNL     1       2.247   5.113  18.701  0.00  0.00    +0.000 N 
ATOM     24  N   UNL     1       2.223   6.121  17.804  0.00  0.00    +0.000 NA
ENDBRANCH  17  23
ENDBRANCH  15  17
ENDBRANCH   1  15
TORSDOF 4
ENDMDL
MODEL 3
REMARK VINA RESULT:      -7.0      1.742      5.587
REMARK  Name = 
REMARK  8 active torsions:
REMARK  status: ('A' for Active; 'I' for Inactive)
REMARK    1  A    between atoms: C_1  and  C_2
REMARK    2  A    between atoms: C_4  and  C_5
REMARK    3  A    between atoms: N_6  and  C_7
REMARK    4  A    between atoms: C_7  and  C_8
REMARK    5  A    between atoms: C_8  and  C_9
REMARK    6  A    between atoms: C_8  and  N_10
REMARK    7  A    between atoms: N_10  and  C_11
REMARK    8  A    between atoms: C_13  and  C_14
REMARK                            x       y       z     vdW  Elec       q    Type
REMARK                         _______ _______ _______ _____ _____    ______ ____
ROOT
ATOM      1  N   UNL     1       4.946   4.205  16.370  0.00  0.00    +0.000 N 
ATOM      2  H   UNL     1       5.018   3.195  16.372  0.00  0.00    +0.000 HD
ENDROOT
BRANCH   1   3
ATOM      3  C   UNL     1       3.958   4.791  17.139  0.00  0.00    +0.000 A 
ATOM      4  N   UNL     1       3.906   6.131  17.233  0.00  0.00    +0.000 NA
ATOM      5  C   UNL     1       2.941   6.670  17.999  0.00  0.00    +0.000 A 
ATOM      6  C   UNL     1       2.848   8.160  18.063  0.00  0.00    +0.000 C 
ATOM      7  N   UNL     1       2.060   5.968  18.726  0.00  0.00    +0.000 NA
ATOM      8  C   UNL     1       2.145   4.628  18.650  0.00  0.00    +0.000 A 
ATOM      9  C   UNL     1       3.100   3.983  17.875  0.00  0.00    +0.000 A 
ATOM     10  C   UNL     1       3.169   2.480  17.843  0.00  0.00    +0.000 C 
ATOM     11  C   UNL     1       2.450   1.834  19.033  0.00  0.00    +0.000 C 
ATOM     12  N   UNL     1       1.110   2.397  19.189  0.00  0.00    +0.000 NA
ATOM     13  C   UNL     1       1.212   3.825  19.537  0.00  0.00    +0.000 C 
ATOM     14  H   UNL     1       0.616   1.916  19.938  0.00  0.00    +0.000 HD
ENDBRANCH   1   3
BRANCH   1  15
ATOM     15  C   UNL     1       5.677   4.941  15.345  0.00  0.00    +0.000 C 
ATOM     16  C   UNL     1       5.504   4.264  13.984  0.00  0.00    +0.000 C 
BRANCH  15  17
ATOM     17  C   UNL     1       7.155   5.092  15.776  0.00  0.00    +0.000 C 
BRANCH  17  23
ATOM     18  C   UNL     1       8.156   9.357  17.772  0.00  0.00    +0.000 C 
ATOM     19  C   UNL     1       7.826   7.914  17.736  0.00  0.00    +0.000 A 
ATOM     20  C   UNL     1       7.853   6.973  18.789  0.00  0.00    +0.000 A 
ATOM     21  C   UNL     1       7.524   5.767  18.209  0.00  0.00    +0.000 A 
ATOM     22  C   UNL     1       7.360   4.425  18.816  0.00  0.00    +0.000 C 
ATOM     23  N   UNL     1       7.382   6.028  16.865  0.00  0.00    +0.000 N 
ATOM     24  N   UNL     1       7.446   7.348  16.591  0.00  0.00    +0.000 NA
ENDBRANCH  17  23
ENDBRANCH  15  17
ENDBRANCH   1  15
TORSDOF 4
ENDMDL
MODEL 4
REMARK VINA RESULT:      -6.9      1.549      6.938
REMARK  Name = 
REMARK  8 active torsions:
REMARK  status: ('A' for Active; 'I' for Inactive)
REMARK    1  A    between atoms: C_1  and  C_2
REMARK    2  A    between atoms: C_4  and  C_5
REMARK    3  A    between atoms: N_6  and  C_7
REMARK    4  A    between atoms: C_7  and  C_8
REMARK    5  A    between atoms: C_8  and  C_9
REMARK    6  A    between atoms: C_8  and  N_10
REMARK    7  A    between atoms: N_10  and  C_11
REMARK    8  A    between atoms: C_13  and  C_14
REMARK                            x       y       z     vdW  Elec       q    Type
REMARK                         _______ _______ _______ _____ _____    ______ ____
ROOT
ATOM      1  N   UNL     1       4.820   3.985  16.581  0.00  0.00    +0.000 N 
ATOM      2  H   UNL     1       4.338   3.371  15.936  0.00  0.00    +0.000 HD
ENDROOT
BRANCH   1   3
ATOM      3  C   UNL     1       4.062   4.717  17.476  0.00  0.00    +0.000 A 
ATOM      4  N   UNL     1       3.823   6.016  17.227  0.00  0.00    +0.000 NA
ATOM      5  C   UNL     1       3.095   6.704  18.123  0.00  0.00    +0.000 A 
ATOM      6  C   UNL     1       2.783   8.135  17.822  0.00  0.00    +0.000 C 
ATOM      7  N   UNL     1       2.635   6.207  19.280  0.00  0.00    +0.000 NA
ATOM      8  C   UNL     1       2.911   4.914  19.533  0.00  0.00    +0.000 A 
ATOM      9  C   UNL     1       3.645   4.122  18.660  0.00  0.00    +0.000 A 
ATOM     10  C   UNL     1       3.947   2.688  19.001  0.00  0.00    +0.000 C 
ATOM     11  C   UNL     1       3.784   2.394  20.497  0.00  0.00    +0.000 C 
ATOM     12  N   UNL     1       2.499   2.896  20.980  0.00  0.00    +0.000 NA
ATOM     13  C   UNL     1       2.473   4.366  20.879  0.00  0.00    +0.000 C 
ATOM     14  H   UNL     1       2.370   2.638  21.956  0.00  0.00    +0.000 HD
ENDBRANCH   1   3
BRANCH   1  15
ATOM     15  C   UNL     1       6.226   4.277  16.327  0.00  0.00    +0.000 C 
ATOM     16  C   UNL     1       6.907   4.758  17.610  0.00  0.00    +0.000 C 
BRANCH  15  17
ATOM     17  C   UNL     1       6.340   5.280  15.155  0.00  0.00    +0.000 C 
BRANCH  17  23
ATOM     18  C   UNL     1       5.259   2.216  11.602  0.00  0.00    +0.000 C 
ATOM     19  C   UNL     1       5.984   3.315  12.279  0.00  0.00    +0.000 A 
ATOM     20  C   UNL     1       7.183   3.954  11.894  0.00  0.00    +0.000 A 
ATOM     21  C   UNL     1       7.456   4.856  12.899  0.00  0.00    +0.000 A 
ATOM     22  C   UNL     1       8.561   5.833  13.036  0.00  0.00    +0.000 C 
ATOM     23  N   UNL     1       6.467   4.672  13.840  0.00  0.00    +0.000 N 
ATOM     24  N   UNL     1       5.508   3.825  13.414  0.00  0.00    +0.000 NA
ENDBRANCH  17  23
ENDBRANCH  15  17
ENDBRANCH   1  15
TORSDOF 4
ENDMDL
MODEL 5
REMARK VINA RESULT:      -6.8      1.573      7.178
REMARK  Name = 
REMARK  8 active torsions:
REMARK  status: ('A' for Active; 'I' for Inactive)
REMARK    1  A    between atoms: C_1  and  C_2
REMARK    2  A    between atoms: C_4  and  C_5
REMARK    3  A    between atoms: N_6  and  C_7
REMARK    4  A    between atoms: C_7  and  C_8
REMARK    5  A    between atoms: C_8  and  C_9
REMARK    6  A    between atoms: C_8  and  N_10
REMARK    7  A    between atoms: N_10  and  C_11
REMARK    8  A    between atoms: C_13  and  C_14
REMARK                            x       y       z     vdW  Elec       q    Type
REMARK                         _______ _______ _______ _____ _____    ______ ____
ROOT
ATOM      1  N   UNL     1       5.072   4.847  16.368  0.00  0.00    +0.000 N 
ATOM      2  H   UNL     1       4.720   5.608  15.799  0.00  0.00    +0.000 HD
ENDROOT
BRANCH   1   3
ATOM      3  C   UNL     1       4.290   4.398  17.415  0.00  0.00    +0.000 A 
ATOM      4  N   UNL     1       4.147   3.076  17.610  0.00  0.00    +0.000 NA
ATOM      5  C   UNL     1       3.369   2.672  18.629  0.00  0.00    +0.000 A 
ATOM      6  C   UNL     1       3.250   1.203  18.881  0.00  0.00    +0.000 C 
ATOM      7  N   UNL     1       2.675   3.490  19.435  0.00  0.00    +0.000 NA
ATOM      8  C   UNL     1       2.801   4.811  19.207  0.00  0.00    +0.000 A 
ATOM      9  C   UNL     1       3.592   5.321  18.186  0.00  0.00    +0.000 A 
ATOM     10  C   UNL     1       3.680   6.805  17.957  0.00  0.00    +0.000 C 
ATOM     11  C   UNL     1       2.521   7.569  18.609  0.00  0.00    +0.000 C 
ATOM     12  N   UNL     1       2.355   7.157  20.001  0.00  0.00    +0.000 NA
ATOM     13  C   UNL     1       1.952   5.740  20.054  0.00  0.00    +0.000 C 
ATOM     14  H   UNL     1       1.629   7.716  20.445  0.00  0.00    +0.000 HD
ENDBRANCH   1   3
BRANCH   1  15
ATOM     15  C   UNL     1       6.479   4.487  16.234  0.00  0.00    +0.000 C 
ATOM     16  C   UNL     1       7.192   4.631  17.580  0.00  0.00    +0.000 C 
BRANCH  15  17
ATOM     17  C   UNL     1       7.120   5.327  15.103  0.00  0.00    +0.000 C 
BRANCH  17  23
ATOM     18  C   UNL     1       5.442   2.289  11.767  0.00  0.00    +0.000 C 
ATOM     19  C   UNL     1       6.228   3.422  12.304  0.00  0.00    +0.000 A 
ATOM     20  C   UNL     1       7.254   4.164  11.678  0.00  0.00    +0.000 A 
ATOM     21  C   UNL     1       7.695   5.055  12.632  0.00  0.00    +0.000 A 
ATOM     22  C   UNL     1       8.731   6.112  12.550  0.00  0.00    +0.000 C 
ATOM     23  N   UNL     1       6.973   4.768  13.769  0.00  0.00    +0.000 N 
ATOM     24  N   UNL     1       6.001   3.861  13.541  0.00  0.00    +0.000 NA
ENDBRANCH  17  23
ENDBRANCH  15  17
ENDBRANCH   1  15
TORSDOF 4
ENDMDL
MODEL 6
REMARK VINA RESULT:      -6.8      0.772      1.873
REMARK  Name = 
REMARK  8 active torsions:
REMARK  status: ('A' for Active; 'I' for Inactive)
REMARK    1  A    between atoms: C_1  and  C_2
REMARK    2  A    between atoms: C_4  and  C_5
REMARK    3  A    between atoms: N_6  and  C_7
REMARK    4  A    between atoms: C_7  and  C_8
REMARK    5  A    between atoms: C_8  and  C_9
REMARK    6  A    between atoms: C_8  and  N_10
REMARK    7  A    between atoms: N_10  and  C_11
REMARK    8  A    between atoms: C_13  and  C_14
REMARK                            x       y       z     vdW  Elec       q    Type
REMARK                         _______ _______ _______ _____ _____    ______ ____
ROOT
ATOM      1  N   UNL     1       4.066   4.030  16.677  0.00  0.00    +0.000 N 
ATOM      2  H   UNL     1       3.233   4.257  16.147  0.00  0.00    +0.000 HD
ENDROOT
BRANCH   1   3
ATOM      3  C   UNL     1       5.258   4.623  16.305  0.00  0.00    +0.000 A 
ATOM      4  N   UNL     1       5.839   5.507  17.134  0.00  0.00    +0.000 NA
ATOM      5  C   UNL     1       6.991   6.076  16.737  0.00  0.00    +0.000 A 
ATOM      6  C   UNL     1       7.667   7.020  17.679  0.00  0.00    +0.000 C 
ATOM      7  N   UNL     1       7.577   5.872  15.549  0.00  0.00    +0.000 NA
ATOM      8  C   UNL     1       6.966   5.010  14.715  0.00  0.00    +0.000 A 
ATOM      9  C   UNL     1       5.781   4.365  15.044  0.00  0.00    +0.000 A 
ATOM     10  C   UNL     1       5.125   3.429  14.066  0.00  0.00    +0.000 C 
ATOM     11  C   UNL     1       5.617   3.641  12.630  0.00  0.00    +0.000 C 
ATOM     12  N   UNL     1       7.078   3.668  12.588  0.00  0.00    +0.000 NA
ATOM     13  C   UNL     1       7.572   4.839  13.334  0.00  0.00    +0.000 C 
ATOM     14  H   UNL     1       7.396   3.742  11.624  0.00  0.00    +0.000 HD
ENDBRANCH   1   3
BRANCH   1  15
ATOM     15  C   UNL     1       4.011   2.888  17.582  0.00  0.00    +0.000 C 
ATOM     16  C   UNL     1       2.607   2.282  17.584  0.00  0.00    +0.000 C 
BRANCH  15  17
ATOM     17  C   UNL     1       4.498   3.321  18.986  0.00  0.00    +0.000 C 
BRANCH  17  23
ATOM     18  C   UNL     1       1.127   2.415  22.301  0.00  0.00    +0.000 C 
ATOM     19  C   UNL     1       1.954   3.238  21.389  0.00  0.00    +0.000 A 
ATOM     20  C   UNL     1       1.784   4.590  21.017  0.00  0.00    +0.000 A 
ATOM     21  C   UNL     1       2.781   4.844  20.101  0.00  0.00    +0.000 A 
ATOM     22  C   UNL     1       3.129   6.095  19.386  0.00  0.00    +0.000 C 
ATOM     23  N   UNL     1       3.440   3.648  19.927  0.00  0.00    +0.000 N 
ATOM     24  N   UNL     1       3.019   2.703  20.794  0.00  0.00    +0.000 NA
ENDBRANCH  17  23
ENDBRANCH  15  17
ENDBRANCH   1  15
TORSDOF 4
ENDMDL
MODEL 7
REMARK VINA RESULT:      -6.8      1.644      6.810
REMARK  Name = 
REMARK  8 active torsions:
REMARK  status: ('A' for Active; 'I' for Inactive)
REMARK    1  A    between atoms: C_1  and  C_2
REMARK    2  A    between atoms: C_4  and  C_5
REMARK    3  A    between atoms: N_6  and  C_7
REMARK    4  A    between atoms: C_7  and  C_8
REMARK    5  A    between atoms: C_8  and  C_9
REMARK    6  A    between atoms: C_8  and  N_10
REMARK    7  A    between atoms: N_10  and  C_11
REMARK    8  A    between atoms: C_13  and  C_14
REMARK                            x       y       z     vdW  Elec       q    Type
REMARK                         _______ _______ _______ _____ _____    ______ ____
ROOT
ATOM      1  N   UNL     1       4.894   4.407  16.030  0.00  0.00    +0.000 N 
ATOM      2  H   UNL     1       4.616   4.494  15.060  0.00  0.00    +0.000 HD
ENDROOT
BRANCH   1   3
ATOM      3  C   UNL     1       3.979   4.754  17.006  0.00  0.00    +0.000 A 
ATOM      4  N   UNL     1       3.770   6.053  17.280  0.00  0.00    +0.000 NA
ATOM      5  C   UNL     1       2.884   6.357  18.244  0.00  0.00    +0.000 A 
ATOM      6  C   UNL     1       2.610   7.801  18.515  0.00  0.00    +0.000 C 
ATOM      7  N   UNL     1       2.232   5.458  18.996  0.00  0.00    +0.000 NA
ATOM      8  C   UNL     1       2.476   4.161  18.734  0.00  0.00    +0.000 A 
ATOM      9  C   UNL     1       3.366   3.752  17.748  0.00  0.00    +0.000 A 
ATOM     10  C   UNL     1       3.622   2.289  17.511  0.00  0.00    +0.000 C 
ATOM     11  C   UNL     1       3.198   1.419  18.699  0.00  0.00    +0.000 C 
ATOM     12  N   UNL     1       1.841   1.757  19.123  0.00  0.00    +0.000 NA
ATOM     13  C   UNL     1       1.813   3.138  19.637  0.00  0.00    +0.000 C 
ATOM     14  H   UNL     1       1.543   1.129  19.868  0.00  0.00    +0.000 HD
ENDBRANCH   1   3
BRANCH   1  15
ATOM     15  C   UNL     1       6.311   4.216  16.321  0.00  0.00    +0.000 C 
ATOM     16  C   UNL     1       6.610   4.603  17.770  0.00  0.00    +0.000 C 
BRANCH  15  17
ATOM     17  C   UNL     1       7.158   4.995  15.287  0.00  0.00    +0.000 C 
BRANCH  17  23
ATOM     18  C   UNL     1       5.387   2.315  11.701  0.00  0.00    +0.000 C 
ATOM     19  C   UNL     1       6.184   3.392  12.330  0.00  0.00    +0.000 A 
ATOM     20  C   UNL     1       7.184   4.207  11.754  0.00  0.00    +0.000 A 
ATOM     21  C   UNL     1       7.651   4.995  12.783  0.00  0.00    +0.000 A 
ATOM     22  C   UNL     1       8.677   6.064  12.781  0.00  0.00    +0.000 C 
ATOM     23  N   UNL     1       6.970   4.581  13.906  0.00  0.00    +0.000 N 
ATOM     24  N   UNL     1       5.996   3.694  13.614  0.00  0.00    +0.000 NA
ENDBRANCH  17  23
ENDBRANCH  15  17
ENDBRANCH   1  15
TORSDOF 4
ENDMDL
MODEL 8
REMARK VINA RESULT:      -6.7      3.348      5.664
REMARK  Name = 
REMARK  8 active torsions:
REMARK  status: ('A' for Active; 'I' for Inactive)
REMARK    1  A    between atoms: C_1  and  C_2
REMARK    2  A    between atoms: C_4  and  C_5
REMARK    3  A    between atoms: N_6  and  C_7
REMARK    4  A    between atoms: C_7  and  C_8
REMARK    5  A    between atoms: C_8  and  C_9
REMARK    6  A    between atoms: C_8  and  N_10
REMARK    7  A    between atoms: N_10  and  C_11
REMARK    8  A    between atoms: C_13  and  C_14
REMARK                            x       y       z     vdW  Elec       q    Type
REMARK                         _______ _______ _______ _____ _____    ______ ____
ROOT
ATOM      1  N   UNL     1       2.566   6.716  17.977  0.00  0.00    +0.000 N 
ATOM      2  H   UNL     1       1.868   6.436  17.299  0.00  0.00    +0.000 HD
ENDROOT
BRANCH   1   3
ATOM      3  C   UNL     1       3.481   5.771  18.401  0.00  0.00    +0.000 A 
ATOM      4  N   UNL     1       4.772   6.118  18.536  0.00  0.00    +0.000 NA
ATOM      5  C   UNL     1       5.639   5.173  18.936  0.00  0.00    +0.000 A 
ATOM      6  C   UNL     1       7.066   5.570  19.138  0.00  0.00    +0.000 C 
ATOM      7  N   UNL     1       5.324   3.888  19.157  0.00  0.00    +0.000 NA
ATOM      8  C   UNL     1       4.034   3.545  18.985  0.00  0.00    +0.000 A 
ATOM      9  C   UNL     1       3.065   4.458  18.586  0.00  0.00    +0.000 A 
ATOM     10  C   UNL     1       1.641   4.018  18.384  0.00  0.00    +0.000 C 
ATOM     11  C   UNL     1       1.513   2.500  18.213  0.00  0.00    +0.000 C 
ATOM     12  N   UNL     1       2.240   1.803  19.272  0.00  0.00    +0.000 NA
ATOM     13  C   UNL     1       3.682   2.078  19.145  0.00  0.00    +0.000 C 
ATOM     14  H   UNL     1       2.095   0.798  19.189  0.00  0.00    +0.000 HD
ENDBRANCH   1   3
BRANCH   1  15
ATOM     15  C   UNL     1       2.376   7.984  18.673  0.00  0.00    +0.000 C 
ATOM     16  C   UNL     1       1.890   7.736  20.102  0.00  0.00    +0.000 C 
BRANCH  15  17
ATOM     17  C   UNL     1       1.428   8.886  17.847  0.00  0.00    +0.000 C 
BRANCH  17  23
ATOM     18  C   UNL     1       3.017  13.389  18.458  0.00  0.00    +0.000 C 
ATOM     19  C   UNL     1       2.072  12.254  18.554  0.00  0.00    +0.000 A 
ATOM     20  C   UNL     1       0.890  12.148  19.321  0.00  0.00    +0.000 A 
ATOM     21  C   UNL     1       0.426  10.869  19.102  0.00  0.00    +0.000 A 
ATOM     22  C   UNL     1      -0.790  10.191  19.609  0.00  0.00    +0.000 C 
ATOM     23  N   UNL     1       1.361  10.269  18.289  0.00  0.00    +0.000 N 
ATOM     24  N   UNL     1       2.297  11.141  17.858  0.00  0.00    +0.000 NA
ENDBRANCH  17  23
ENDBRANCH  15  17
ENDBRANCH   1  15
TORSDOF 4
ENDMDL
MODEL 9
REMARK VINA RESULT:      -6.7      2.457      6.187
REMARK  Name = 
REMARK  8 active torsions:
REMARK  status: ('A' for Active; 'I' for Inactive)
REMARK    1  A    between atoms: C_1  and  C_2
REMARK    2  A    between atoms: C_4  and  C_5
REMARK    3  A    between atoms: N_6  and  C_7
REMARK    4  A    between atoms: C_7  and  C_8
REMARK    5  A    between atoms: C_8  and  C_9
REMARK    6  A    between atoms: C_8  and  N_10
REMARK    7  A    between atoms: N_10  and  C_11
REMARK    8  A    between atoms: C_13  and  C_14
REMARK                            x       y       z     vdW  Elec       q    Type
REMARK                         _______ _______ _______ _____ _____    ______ ____
ROOT
ATOM      1  N   UNL     1       2.617   5.445  20.659  0.00  0.00    +0.000 N 
ATOM      2  H   UNL     1       2.619   5.681  21.644  0.00  0.00    +0.000 HD
ENDROOT
BRANCH   1   3
ATOM      3  C   UNL     1       2.583   6.477  19.740  0.00  0.00    +0.000 A 
ATOM      4  N   UNL     1       3.375   6.419  18.656  0.00  0.00    +0.000 NA
ATOM      5  C   UNL     1       3.328   7.445  17.788  0.00  0.00    +0.000 A 
ATOM      6  C   UNL     1       4.169   7.359  16.555  0.00  0.00    +0.000 C 
ATOM      7  N   UNL     1       2.592   8.553  17.952  0.00  0.00    +0.000 NA
ATOM      8  C   UNL     1       1.829   8.614  19.058  0.00  0.00    +0.000 A 
ATOM      9  C   UNL     1       1.803   7.596  20.004  0.00  0.00    +0.000 A 
ATOM     10  C   UNL     1       0.951   7.723  21.238  0.00  0.00    +0.000 C 
ATOM     11  C   UNL     1       0.547   9.174  21.526  0.00  0.00    +0.000 C 
ATOM     12  N   UNL     1       0.006   9.803  20.322  0.00  0.00    +0.000 NA
ATOM     13  C   UNL     1       1.061   9.900  19.298  0.00  0.00    +0.000 C 
ATOM     14  H   UNL     1      -0.321  10.743  20.539  0.00  0.00    +0.000 HD
ENDBRANCH   1   3
BRANCH   1  15
ATOM     15  C   UNL     1       2.350   4.061  20.287  0.00  0.00    +0.000 C 
ATOM     16  C   UNL     1       1.360   3.431  21.269  0.00  0.00    +0.000 C 
BRANCH  15  17
ATOM     17  C   UNL     1       3.687   3.289  20.180  0.00  0.00    +0.000 C 
BRANCH  17  23
ATOM     18  C   UNL     1       7.232   4.885  17.342  0.00  0.00    +0.000 C 
ATOM     19  C   UNL     1       5.973   4.188  17.685  0.00  0.00    +0.000 A 
ATOM     20  C   UNL     1       4.977   3.680  16.821  0.00  0.00    +0.000 A 
ATOM     21  C   UNL     1       3.990   3.191  17.648  0.00  0.00    +0.000 A 
ATOM     22  C   UNL     1       2.716   2.510  17.320  0.00  0.00    +0.000 C 
ATOM     23  N   UNL     1       4.404   3.479  18.929  0.00  0.00    +0.000 N 
ATOM     24  N   UNL     1       5.658   3.975  18.962  0.00  0.00    +0.000 NA
ENDBRANCH  17  23
ENDBRANCH  15  17
ENDBRANCH   1  15
TORSDOF 4
ENDMDL
