MODEL 1
REMARK VINA RESULT:      -9.2      0.000      0.000
REMARK  Name = 
REMARK  5 active torsions:
REMARK  status: ('A' for Active; 'I' for Inactive)
REMARK    1  A    between atoms: N_8  and  C_9
REMARK    2  A    between atoms: C_9  and  C_10
REMARK    3  A    between atoms: C_10  and  N_11
REMARK    4  A    between atoms: N_23  and  C_24
REMARK    5  A    between atoms: C_24  and  C_25
REMARK                            x       y       z     vdW  Elec       q    Type
REMARK                         _______ _______ _______ _____ _____    ______ ____
ROOT
ATOM      1  N   UNL     1       1.955  11.225  17.754  0.00  0.00    +0.000 N 
ATOM      2  C   UNL     1       1.525  10.672  18.918  0.00  0.00    +0.000 A 
ATOM      3  N   UNL     1       0.951  11.430  19.827  0.00  0.00    +0.000 NA
ATOM      4  C   UNL     1       0.591  10.767  20.967  0.00  0.00    +0.000 A 
ATOM      5  C   UNL     1       0.787   9.433  21.247  0.00  0.00    +0.000 A 
ATOM      6  C   UNL     1       0.263   9.225  22.524  0.00  0.00    +0.000 A 
ATOM      7  N   UNL     1      -0.245  10.351  23.039  0.00  0.00    +0.000 NA
ATOM      8  N   UNL     1      -0.035  11.288  22.073  0.00  0.00    +0.000 N 
ATOM      9  C   UNL     1       1.412   8.645  20.251  0.00  0.00    +0.000 A 
ATOM     10  N   UNL     1       1.720   7.385  20.307  0.00  0.00    +0.000 NA
ATOM     11  N   UNL     1       2.284   7.151  19.058  0.00  0.00    +0.000 N 
ATOM     12  C   UNL     1       2.290   8.330  18.279  0.00  0.00    +0.000 A 
ATOM     13  O   UNL     1       2.692   8.476  17.139  0.00  0.00    +0.000 OA
ATOM     14  N   UNL     1       1.731   9.299  19.103  0.00  0.00    +0.000 N 
ATOM     15  H   UNL     1       1.771  12.201  17.568  0.00  0.00    +0.000 HD
ATOM     16  H   UNL     1       2.349  10.647  17.017  0.00  0.00    +0.000 HD
ENDROOT
BRANCH   8  17
ATOM     17  C   UNL     1      -0.508  12.651  22.291  0.00  0.00    +0.000 C 
BRANCH  17  18
ATOM     18  C   UNL     1      -1.781  12.953  21.490  0.00  0.00    +0.000 C 
BRANCH  18  19
ATOM     19  N   UNL     1      -3.097  12.820  22.139  0.00  0.00    +0.000 NA
ATOM     20  C   UNL     1      -3.171  13.235  23.542  0.00  0.00    +0.000 C 
ATOM     21  C   UNL     1      -4.472  12.705  24.163  0.00  0.00    +0.000 C 
ATOM     22  C   UNL     1      -5.697  13.146  23.359  0.00  0.00    +0.000 C 
ATOM     23  C   UNL     1      -5.514  12.844  21.874  0.00  0.00    +0.000 C 
ATOM     24  C   UNL     1      -4.191  13.394  21.356  0.00  0.00    +0.000 C 
ATOM     25  O   UNL     1      -5.897  14.558  23.556  0.00  0.00    +0.000 OA
ATOM     26  C   UNL     1      -7.304  14.710  23.727  0.00  0.00    +0.000 C 
ATOM     27  C   UNL     1      -7.733  13.418  24.364  0.00  0.00    +0.000 C 
ATOM     28  O   UNL     1      -6.865  12.435  23.808  0.00  0.00    +0.000 OA
ENDBRANCH  18  19
ENDBRANCH  17  18
ENDBRANCH   8  17
BRANCH  11  29
ATOM     29  C   UNL     1       2.849   5.871  18.693  0.00  0.00    +0.000 C 
BRANCH  29  30
ATOM     30  C   UNL     1       2.344   4.713  19.517  0.00  0.00    +0.000 A 
ATOM     31  C   UNL     1       2.776   4.535  20.839  0.00  0.00    +0.000 A 
ATOM     32  C   UNL     1       2.206   3.545  21.643  0.00  0.00    +0.000 A 
ATOM     33  C   UNL     1       1.201   2.723  21.135  0.00  0.00    +0.000 A 
ATOM     34  C   UNL     1       0.788   2.868  19.812  0.00  0.00    +0.000 A 
ATOM     35  C   UNL     1       1.369   3.845  19.001  0.00  0.00    +0.000 A 
ENDBRANCH  29  30
ENDBRANCH  11  29
TORSDOF 5
ENDMDL
MODEL 2
REMARK VINA RESULT:      -9.0      0.625      1.457
REMARK  Name = 
REMARK  5 active torsions:
REMARK  status: ('A' for Active; 'I' for Inactive)
REMARK    1  A    between atoms: N_8  and  C_9
REMARK    2  A    between atoms: C_9  and  C_10
REMARK    3  A    between atoms: C_10  and  N_11
REMARK    4  A    between atoms: N_23  and  C_24
REMARK    5  A    between atoms: C_24  and  C_25
REMARK                            x       y       z     vdW  Elec       q    Type
REMARK                         _______ _______ _______ _____ _____    ______ ____
ROOT
ATOM      1  N   UNL     1       1.819  11.358  17.843  0.00  0.00    +0.000 N 
ATOM      2  C   UNL     1       1.393  10.828  19.019  0.00  0.00    +0.000 A 
ATOM      3  N   UNL     1       0.815  11.603  19.912  0.00  0.00    +0.000 NA
ATOM      4  C   UNL     1       0.460  10.963  21.067  0.00  0.00    +0.000 A 
ATOM      5  C   UNL     1       0.666   9.637  21.377  0.00  0.00    +0.000 A 
ATOM      6  C   UNL     1       0.144   9.455  22.659  0.00  0.00    +0.000 A 
ATOM      7  N   UNL     1      -0.371  10.589  23.149  0.00  0.00    +0.000 NA
ATOM      8  N   UNL     1      -0.169  11.505  22.161  0.00  0.00    +0.000 N 
ATOM      9  C   UNL     1       1.296   8.831  20.398  0.00  0.00    +0.000 A 
ATOM     10  N   UNL     1       1.613   7.575  20.482  0.00  0.00    +0.000 NA
ATOM     11  N   UNL     1       2.177   7.317  19.239  0.00  0.00    +0.000 N 
ATOM     12  C   UNL     1       2.175   8.478  18.433  0.00  0.00    +0.000 A 
ATOM     13  O   UNL     1       2.575   8.601  17.290  0.00  0.00    +0.000 OA
ATOM     14  N   UNL     1       1.610   9.462  19.235  0.00  0.00    +0.000 N 
ATOM     15  H   UNL     1       1.628  12.328  17.634  0.00  0.00    +0.000 HD
ATOM     16  H   UNL     1       2.217  10.766  17.119  0.00  0.00    +0.000 HD
ENDROOT
BRANCH   8  17
ATOM     17  C   UNL     1      -0.651  12.869  22.349  0.00  0.00    +0.000 C 
BRANCH  17  18
ATOM     18  C   UNL     1      -1.661  13.276  21.268  0.00  0.00    +0.000 C 
BRANCH  18  19
ATOM     19  N   UNL     1      -3.051  13.580  21.650  0.00  0.00    +0.000 NA
ATOM     20  C   UNL     1      -4.096  12.856  20.922  0.00  0.00    +0.000 C 
ATOM     21  C   UNL     1      -5.452  13.533  21.168  0.00  0.00    +0.000 C 
ATOM     22  C   UNL     1      -5.758  13.648  22.663  0.00  0.00    +0.000 C 
ATOM     23  C   UNL     1      -4.579  14.260  23.416  0.00  0.00    +0.000 C 
ATOM     24  C   UNL     1      -3.279  13.533  23.094  0.00  0.00    +0.000 C 
ATOM     25  O   UNL     1      -6.049  12.337  23.179  0.00  0.00    +0.000 OA
ATOM     26  C   UNL     1      -7.168  12.521  24.042  0.00  0.00    +0.000 C 
ATOM     27  C   UNL     1      -7.912  13.674  23.429  0.00  0.00    +0.000 C 
ATOM     28  O   UNL     1      -6.897  14.503  22.870  0.00  0.00    +0.000 OA
ENDBRANCH  18  19
ENDBRANCH  17  18
ENDBRANCH   8  17
BRANCH  11  29
ATOM     29  C   UNL     1       2.752   6.034  18.902  0.00  0.00    +0.000 C 
BRANCH  29  30
ATOM     30  C   UNL     1       2.156   4.871  19.657  0.00  0.00    +0.000 A 
ATOM     31  C   UNL     1       1.296   3.968  19.016  0.00  0.00    +0.000 A 
ATOM     32  C   UNL     1       0.855   2.820  19.677  0.00  0.00    +0.000 A 
ATOM     33  C   UNL     1       1.266   2.563  20.984  0.00  0.00    +0.000 A 
ATOM     34  C   UNL     1       2.091   3.471  21.644  0.00  0.00    +0.000 A 
ATOM     35  C   UNL     1       2.519   4.629  20.991  0.00  0.00    +0.000 A 
ENDBRANCH  29  30
ENDBRANCH  11  29
TORSDOF 5
ENDMDL
MODEL 3
REMARK VINA RESULT:      -9.0      3.400      5.142
REMARK  Name = 
REMARK  5 active torsions:
REMARK  status: ('A' for Active; 'I' for Inactive)
REMARK    1  A    between atoms: N_8  and  C_9
REMARK    2  A    between atoms: C_9  and  C_10
REMARK    3  A    between atoms: C_10  and  N_11
REMARK    4  A    between atoms: N_23  and  C_24
REMARK    5  A    between atoms: C_24  and  C_25
REMARK                            x       y       z     vdW  Elec       q    Type
REMARK                         _______ _______ _______ _____ _____    ______ ____
ROOT
ATOM      1  N   UNL     1       1.137  10.928  17.962  0.00  0.00    +0.000 N 
ATOM      2  C   UNL     1       0.807  10.526  19.217  0.00  0.00    +0.000 A 
ATOM      3  N   UNL     1       0.106  11.324  19.994  0.00  0.00    +0.000 NA
ATOM      4  C   UNL     1      -0.135  10.823  21.243  0.00  0.00    +0.000 A 
ATOM      5  C   UNL     1       0.292   9.616  21.749  0.00  0.00    +0.000 A 
ATOM      6  C   UNL     1      -0.191   9.553  23.057  0.00  0.00    +0.000 A 
ATOM      7  N   UNL     1      -0.891  10.647  23.379  0.00  0.00    +0.000 NA
ATOM      8  N   UNL     1      -0.847  11.417  22.256  0.00  0.00    +0.000 N 
ATOM      9  C   UNL     1       1.049   8.783  20.890  0.00  0.00    +0.000 A 
ATOM     10  N   UNL     1       1.574   7.626  21.160  0.00  0.00    +0.000 NA
ATOM     11  N   UNL     1       2.174   7.274  19.957  0.00  0.00    +0.000 N 
ATOM     12  C   UNL     1       1.976   8.277  18.982  0.00  0.00    +0.000 A 
ATOM     13  O   UNL     1       2.349   8.284  17.823  0.00  0.00    +0.000 OA
ATOM     14  N   UNL     1       1.252   9.266  19.636  0.00  0.00    +0.000 N 
ATOM     15  H   UNL     1       0.785  11.807  17.611  0.00  0.00    +0.000 HD
ATOM     16  H   UNL     1       1.629  10.305  17.328  0.00  0.00    +0.000 HD
ENDROOT
BRANCH   8  17
ATOM     17  C   UNL     1      -1.553  12.694  22.243  0.00  0.00    +0.000 C 
BRANCH  17  18
ATOM     18  C   UNL     1      -0.595  13.882  22.404  0.00  0.00    +0.000 C 
BRANCH  18  19
ATOM     19  N   UNL     1       0.214  14.324  21.255  0.00  0.00    +0.000 NA
ATOM     20  C   UNL     1      -0.104  15.647  20.711  0.00  0.00    +0.000 C 
ATOM     21  C   UNL     1       0.554  15.802  19.331  0.00  0.00    +0.000 C 
ATOM     22  C   UNL     1       2.060  15.545  19.396  0.00  0.00    +0.000 C 
ATOM     23  C   UNL     1       2.360  14.232  20.116  0.00  0.00    +0.000 C 
ATOM     24  C   UNL     1       1.653  14.166  21.464  0.00  0.00    +0.000 C 
ATOM     25  O   UNL     1       2.689  16.642  20.084  0.00  0.00    +0.000 OA
ATOM     26  C   UNL     1       3.866  16.922  19.332  0.00  0.00    +0.000 C 
ATOM     27  C   UNL     1       3.494  16.548  17.924  0.00  0.00    +0.000 C 
ATOM     28  O   UNL     1       2.602  15.446  18.067  0.00  0.00    +0.000 OA
ENDBRANCH  18  19
ENDBRANCH  17  18
ENDBRANCH   8  17
BRANCH  11  29
ATOM     29  C   UNL     1       2.958   6.068  19.808  0.00  0.00    +0.000 C 
BRANCH  29  30
ATOM     30  C   UNL     1       2.152   4.848  19.437  0.00  0.00    +0.000 A 
ATOM     31  C   UNL     1       2.170   4.351  18.126  0.00  0.00    +0.000 A 
ATOM     32  C   UNL     1       1.534   3.147  17.817  0.00  0.00    +0.000 A 
ATOM     33  C   UNL     1       0.873   2.428  18.812  0.00  0.00    +0.000 A 
ATOM     34  C   UNL     1       0.818   2.930  20.111  0.00  0.00    +0.000 A 
ATOM     35  C   UNL     1       1.438   4.143  20.419  0.00  0.00    +0.000 A 
ENDBRANCH  29  30
ENDBRANCH  11  29
TORSDOF 5
ENDMDL
MODEL 4
REMARK VINA RESULT:      -8.8      3.430      5.079
REMARK  Name = 
REMARK  5 active torsions:
REMARK  status: ('A' for Active; 'I' for Inactive)
REMARK    1  A    between atoms: N_8  and  C_9
REMARK    2  A    between atoms: C_9  and  C_10
REMARK    3  A    between atoms: C_10  and  N_11
REMARK    4  A    between atoms: N_23  and  C_24
REMARK    5  A    between atoms: C_24  and  C_25
REMARK                            x       y       z     vdW  Elec       q    Type
REMARK                         _______ _______ _______ _____ _____    ______ ____
ROOT
ATOM      1  N   UNL     1       1.312  10.816  17.847  0.00  0.00    +0.000 N 
ATOM      2  C   UNL     1       0.934  10.478  19.107  0.00  0.00    +0.000 A 
ATOM      3  N   UNL     1       0.227  11.325  19.824  0.00  0.00    +0.000 NA
ATOM      4  C   UNL     1      -0.064  10.887  21.086  0.00  0.00    +0.000 A 
ATOM      5  C   UNL     1       0.319   9.694  21.659  0.00  0.00    +0.000 A 
ATOM      6  C   UNL     1      -0.207   9.701  22.952  0.00  0.00    +0.000 A 
ATOM      7  N   UNL     1      -0.892  10.823  23.202  0.00  0.00    +0.000 NA
ATOM      8  N   UNL     1      -0.794  11.540  22.048  0.00  0.00    +0.000 N 
ATOM      9  C   UNL     1       1.084   8.808  20.863  0.00  0.00    +0.000 A 
ATOM     10  N   UNL     1       1.573   7.653  21.201  0.00  0.00    +0.000 NA
ATOM     11  N   UNL     1       2.203   7.235  20.035  0.00  0.00    +0.000 N 
ATOM     12  C   UNL     1       2.058   8.197  19.010  0.00  0.00    +0.000 A 
ATOM     13  O   UNL     1       2.468   8.143  17.865  0.00  0.00    +0.000 OA
ATOM     14  N   UNL     1       1.336   9.229  19.596  0.00  0.00    +0.000 N 
ATOM     15  H   UNL     1       0.991  11.686  17.446  0.00  0.00    +0.000 HD
ATOM     16  H   UNL     1       1.810  10.154  17.258  0.00  0.00    +0.000 HD
ENDROOT
BRANCH   8  17
ATOM     17  C   UNL     1      -1.471  12.831  21.956  0.00  0.00    +0.000 C 
BRANCH  17  18
ATOM     18  C   UNL     1      -0.621  13.968  22.537  0.00  0.00    +0.000 C 
BRANCH  18  19
ATOM     19  N   UNL     1       0.239  14.763  21.643  0.00  0.00    +0.000 NA
ATOM     20  C   UNL     1       1.684  14.614  21.834  0.00  0.00    +0.000 C 
ATOM     21  C   UNL     1       2.415  15.748  21.100  0.00  0.00    +0.000 C 
ATOM     22  C   UNL     1       2.025  15.803  19.622  0.00  0.00    +0.000 C 
ATOM     23  C   UNL     1       0.507  15.793  19.456  0.00  0.00    +0.000 C 
ATOM     24  C   UNL     1      -0.127  14.644  20.231  0.00  0.00    +0.000 C 
ATOM     25  O   UNL     1       2.605  14.672  18.947  0.00  0.00    +0.000 OA
ATOM     26  C   UNL     1       3.102  15.192  17.718  0.00  0.00    +0.000 C 
ATOM     27  C   UNL     1       3.474  16.610  18.048  0.00  0.00    +0.000 C 
ATOM     28  O   UNL     1       2.520  17.016  19.025  0.00  0.00    +0.000 OA
ENDBRANCH  18  19
ENDBRANCH  17  18
ENDBRANCH   8  17
BRANCH  11  29
ATOM     29  C   UNL     1       2.963   6.007  19.965  0.00  0.00    +0.000 C 
BRANCH  29  30
ATOM     30  C   UNL     1       2.171   4.814  19.490  0.00  0.00    +0.000 A 
ATOM     31  C   UNL     1       2.357   4.302  18.198  0.00  0.00    +0.000 A 
ATOM     32  C   UNL     1       1.725   3.120  17.807  0.00  0.00    +0.000 A 
ATOM     33  C   UNL     1       0.900   2.438  18.702  0.00  0.00    +0.000 A 
ATOM     34  C   UNL     1       0.681   2.956  19.976  0.00  0.00    +0.000 A 
ATOM     35  C   UNL     1       1.297   4.147  20.363  0.00  0.00    +0.000 A 
ENDBRANCH  29  30
ENDBRANCH  11  29
TORSDOF 5
ENDMDL
MODEL 5
REMARK VINA RESULT:      -8.7      1.600      1.903
REMARK  Name = 
REMARK  5 active torsions:
REMARK  status: ('A' for Active; 'I' for Inactive)
REMARK    1  A    between atoms: N_8  and  C_9
REMARK    2  A    between atoms: C_9  and  C_10
REMARK    3  A    between atoms: C_10  and  N_11
REMARK    4  A    between atoms: N_23  and  C_24
REMARK    5  A    between atoms: C_24  and  C_25
REMARK                            x       y       z     vdW  Elec       q    Type
REMARK                         _______ _______ _______ _____ _____    ______ ____
ROOT
ATOM      1  N   UNL     1       1.267  11.450  18.038  0.00  0.00    +0.000 N 
ATOM      2  C   UNL     1       0.982  10.856  19.226  0.00  0.00    +0.000 A 
ATOM      3  N   UNL     1       0.386  11.548  20.174  0.00  0.00    +0.000 NA
ATOM      4  C   UNL     1       0.181  10.854  21.333  0.00  0.00    +0.000 A 
ATOM      5  C   UNL     1       0.546   9.552  21.596  0.00  0.00    +0.000 A 
ATOM      6  C   UNL     1       0.135   9.292  22.904  0.00  0.00    +0.000 A 
ATOM      7  N   UNL     1      -0.463  10.355  23.455  0.00  0.00    +0.000 NA
ATOM      8  N   UNL     1      -0.427  11.305  22.479  0.00  0.00    +0.000 N 
ATOM      9  C   UNL     1       1.190   8.836  20.558  0.00  0.00    +0.000 A 
ATOM     10  N   UNL     1       1.643   7.620  20.590  0.00  0.00    +0.000 NA
ATOM     11  N   UNL     1       2.146   7.447  19.306  0.00  0.00    +0.000 N 
ATOM     12  C   UNL     1       1.966   8.615  18.532  0.00  0.00    +0.000 A 
ATOM     13  O   UNL     1       2.273   8.800  17.368  0.00  0.00    +0.000 OA
ATOM     14  N   UNL     1       1.355   9.517  19.393  0.00  0.00    +0.000 N 
ATOM     15  H   UNL     1       0.961  12.397  17.867  0.00  0.00    +0.000 HD
ATOM     16  H   UNL     1       1.676  10.917  17.275  0.00  0.00    +0.000 HD
ENDROOT
BRANCH   8  17
ATOM     17  C   UNL     1      -1.037  12.606  22.733  0.00  0.00    +0.000 C 
BRANCH  17  18
ATOM     18  C   UNL     1      -2.562  12.508  22.869  0.00  0.00    +0.000 C 
BRANCH  18  19
ATOM     19  N   UNL     1      -3.317  13.649  23.418  0.00  0.00    +0.000 NA
ATOM     20  C   UNL     1      -2.521  14.725  24.012  0.00  0.00    +0.000 C 
ATOM     21  C   UNL     1      -3.437  15.637  24.843  0.00  0.00    +0.000 C 
ATOM     22  C   UNL     1      -4.605  16.168  24.010  0.00  0.00    +0.000 C 
ATOM     23  C   UNL     1      -5.312  15.032  23.275  0.00  0.00    +0.000 C 
ATOM     24  C   UNL     1      -4.322  14.177  22.494  0.00  0.00    +0.000 C 
ATOM     25  O   UNL     1      -4.102  17.132  23.067  0.00  0.00    +0.000 OA
ATOM     26  C   UNL     1      -5.048  18.197  23.089  0.00  0.00    +0.000 C 
ATOM     27  C   UNL     1      -5.583  18.177  24.494  0.00  0.00    +0.000 C 
ATOM     28  O   UNL     1      -5.573  16.803  24.866  0.00  0.00    +0.000 OA
ENDBRANCH  18  19
ENDBRANCH  17  18
ENDBRANCH   8  17
BRANCH  11  29
ATOM     29  C   UNL     1       2.830   6.238  18.900  0.00  0.00    +0.000 C 
BRANCH  29  30
ATOM     30  C   UNL     1       2.315   4.984  19.563  0.00  0.00    +0.000 A 
ATOM     31  C   UNL     1       2.698   4.660  20.872  0.00  0.00    +0.000 A 
ATOM     32  C   UNL     1       2.116   3.574  21.531  0.00  0.00    +0.000 A 
ATOM     33  C   UNL     1       1.149   2.802  20.889  0.00  0.00    +0.000 A 
ATOM     34  C   UNL     1       0.788   3.093  19.575  0.00  0.00    +0.000 A 
ATOM     35  C   UNL     1       1.381   4.167  18.908  0.00  0.00    +0.000 A 
ENDBRANCH  29  30
ENDBRANCH  11  29
TORSDOF 5
ENDMDL
MODEL 6
REMARK VINA RESULT:      -8.7      2.953      4.040
REMARK  Name = 
REMARK  5 active torsions:
REMARK  status: ('A' for Active; 'I' for Inactive)
REMARK    1  A    between atoms: N_8  and  C_9
REMARK    2  A    between atoms: C_9  and  C_10
REMARK    3  A    between atoms: C_10  and  N_11
REMARK    4  A    between atoms: N_23  and  C_24
REMARK    5  A    between atoms: C_24  and  C_25
REMARK                            x       y       z     vdW  Elec       q    Type
REMARK                         _______ _______ _______ _____ _____    ______ ____
ROOT
ATOM      1  N   UNL     1       0.624  10.951  17.981  0.00  0.00    +0.000 N 
ATOM      2  C   UNL     1       0.446  10.519  19.256  0.00  0.00    +0.000 A 
ATOM      3  N   UNL     1      -0.259  11.245  20.098  0.00  0.00    +0.000 NA
ATOM      4  C   UNL     1      -0.340  10.724  21.359  0.00  0.00    +0.000 A 
ATOM      5  C   UNL     1       0.245   9.565  21.817  0.00  0.00    +0.000 A 
ATOM      6  C   UNL     1      -0.113   9.455  23.161  0.00  0.00    +0.000 A 
ATOM      7  N   UNL     1      -0.886  10.476  23.552  0.00  0.00    +0.000 NA
ATOM      8  N   UNL     1      -1.015  11.246  22.435  0.00  0.00    +0.000 N 
ATOM      9  C   UNL     1       1.001   8.809  20.889  0.00  0.00    +0.000 A 
ATOM     10  N   UNL     1       1.658   7.709  21.103  0.00  0.00    +0.000 NA
ATOM     11  N   UNL     1       2.182   7.417  19.849  0.00  0.00    +0.000 N 
ATOM     12  C   UNL     1       1.802   8.395  18.903  0.00  0.00    +0.000 A 
ATOM     13  O   UNL     1       2.071   8.437  17.716  0.00  0.00    +0.000 OA
ATOM     14  N   UNL     1       1.046   9.309  19.626  0.00  0.00    +0.000 N 
ATOM     15  H   UNL     1       0.159  11.791  17.669  0.00  0.00    +0.000 HD
ATOM     16  H   UNL     1       1.117  10.377  17.302  0.00  0.00    +0.000 HD
ENDROOT
BRANCH   8  17
ATOM     17  C   UNL     1      -1.841  12.449  22.494  0.00  0.00    +0.000 C 
BRANCH  17  18
ATOM     18  C   UNL     1      -1.083  13.637  23.102  0.00  0.00    +0.000 C 
BRANCH  18  19
ATOM     19  N   UNL     1      -0.874  14.853  22.297  0.00  0.00    +0.000 NA
ATOM     20  C   UNL     1       0.453  15.013  21.699  0.00  0.00    +0.000 C 
ATOM     21  C   UNL     1       0.624  16.461  21.216  0.00  0.00    +0.000 C 
ATOM     22  C   UNL     1      -0.498  16.869  20.260  0.00  0.00    +0.000 C 
ATOM     23  C   UNL     1      -1.866  16.537  20.850  0.00  0.00    +0.000 C 
ATOM     24  C   UNL     1      -1.932  15.087  21.314  0.00  0.00    +0.000 C 
ATOM     25  O   UNL     1      -0.317  16.178  19.010  0.00  0.00    +0.000 OA
ATOM     26  C   UNL     1      -0.580  17.156  18.007  0.00  0.00    +0.000 C 
ATOM     27  C   UNL     1      -0.156  18.450  18.644  0.00  0.00    +0.000 C 
ATOM     28  O   UNL     1      -0.457  18.288  20.026  0.00  0.00    +0.000 OA
ENDBRANCH  18  19
ENDBRANCH  17  18
ENDBRANCH   8  17
BRANCH  11  29
ATOM     29  C   UNL     1       3.063   6.292  19.623  0.00  0.00    +0.000 C 
BRANCH  29  30
ATOM     30  C   UNL     1       2.357   4.964  19.514  0.00  0.00    +0.000 A 
ATOM     31  C   UNL     1       1.875   4.315  20.661  0.00  0.00    +0.000 A 
ATOM     32  C   UNL     1       1.104   3.156  20.547  0.00  0.00    +0.000 A 
ATOM     33  C   UNL     1       0.808   2.633  19.289  0.00  0.00    +0.000 A 
ATOM     34  C   UNL     1       1.310   3.250  18.145  0.00  0.00    +0.000 A 
ATOM     35  C   UNL     1       2.096   4.398  18.257  0.00  0.00    +0.000 A 
ENDBRANCH  29  30
ENDBRANCH  11  29
TORSDOF 5
ENDMDL
MODEL 7
REMARK VINA RESULT:      -8.7      3.126      4.577
REMARK  Name = 
REMARK  5 active torsions:
REMARK  status: ('A' for Active; 'I' for Inactive)
REMARK    1  A    between atoms: N_8  and  C_9
REMARK    2  A    between atoms: C_9  and  C_10
REMARK    3  A    between atoms: C_10  and  N_11
REMARK    4  A    between atoms: N_23  and  C_24
REMARK    5  A    between atoms: C_24  and  C_25
REMARK                            x       y       z     vdW  Elec       q    Type
REMARK                         _______ _______ _______ _____ _____    ______ ____
ROOT
ATOM      1  N   UNL     1       0.281  11.377  18.040  0.00  0.00    +0.000 N 
ATOM      2  C   UNL     1       0.194  10.841  19.285  0.00  0.00    +0.000 A 
ATOM      3  N   UNL     1      -0.474  11.478  20.223  0.00  0.00    +0.000 NA
ATOM      4  C   UNL     1      -0.464  10.857  21.441  0.00  0.00    +0.000 A 
ATOM      5  C   UNL     1       0.177   9.682  21.767  0.00  0.00    +0.000 A 
ATOM      6  C   UNL     1      -0.095   9.457  23.118  0.00  0.00    +0.000 A 
ATOM      7  N   UNL     1      -0.865  10.421  23.635  0.00  0.00    +0.000 NA
ATOM      8  N   UNL     1      -1.082  11.273  22.594  0.00  0.00    +0.000 N 
ATOM      9  C   UNL     1       0.891   9.024  20.737  0.00  0.00    +0.000 A 
ATOM     10  N   UNL     1       1.586   7.930  20.822  0.00  0.00    +0.000 NA
ATOM     11  N   UNL     1       2.037   7.753  19.519  0.00  0.00    +0.000 N 
ATOM     12  C   UNL     1       1.576   8.791  18.680  0.00  0.00    +0.000 A 
ATOM     13  O   UNL     1       1.769   8.935  17.486  0.00  0.00    +0.000 OA
ATOM     14  N   UNL     1       0.844   9.623  19.518  0.00  0.00    +0.000 N 
ATOM     15  H   UNL     1      -0.222  12.225  17.825  0.00  0.00    +0.000 HD
ATOM     16  H   UNL     1       0.745  10.874  17.288  0.00  0.00    +0.000 HD
ENDROOT
BRANCH   8  17
ATOM     17  C   UNL     1      -1.931  12.442  22.799  0.00  0.00    +0.000 C 
BRANCH  17  18
ATOM     18  C   UNL     1      -1.108  13.724  22.984  0.00  0.00    +0.000 C 
BRANCH  18  19
ATOM     19  N   UNL     1      -0.615  14.448  21.800  0.00  0.00    +0.000 NA
ATOM     20  C   UNL     1      -1.147  15.798  21.599  0.00  0.00    +0.000 C 
ATOM     21  C   UNL     1      -0.831  16.264  20.170  0.00  0.00    +0.000 C 
ATOM     22  C   UNL     1       0.666  16.177  19.870  0.00  0.00    +0.000 C 
ATOM     23  C   UNL     1       1.220  14.805  20.244  0.00  0.00    +0.000 C 
ATOM     24  C   UNL     1       0.842  14.425  21.671  0.00  0.00    +0.000 C 
ATOM     25  O   UNL     1       1.348  17.206  20.611  0.00  0.00    +0.000 OA
ATOM     26  C   UNL     1       2.301  17.746  19.699  0.00  0.00    +0.000 C 
ATOM     27  C   UNL     1       1.650  17.578  18.354  0.00  0.00    +0.000 C 
ATOM     28  O   UNL     1       0.901  16.372  18.463  0.00  0.00    +0.000 OA
ENDBRANCH  18  19
ENDBRANCH  17  18
ENDBRANCH   8  17
BRANCH  11  29
ATOM     29  C   UNL     1       2.929   6.676  19.151  0.00  0.00    +0.000 C 
BRANCH  29  30
ATOM     30  C   UNL     1       2.295   5.307  19.185  0.00  0.00    +0.000 A 
ATOM     31  C   UNL     1       1.947   4.652  17.995  0.00  0.00    +0.000 A 
ATOM     32  C   UNL     1       1.486   3.334  18.021  0.00  0.00    +0.000 A 
ATOM     33  C   UNL     1       1.368   2.658  19.235  0.00  0.00    +0.000 A 
ATOM     34  C   UNL     1       1.677   3.311  20.426  0.00  0.00    +0.000 A 
ATOM     35  C   UNL     1       2.121   4.635  20.404  0.00  0.00    +0.000 A 
ENDBRANCH  29  30
ENDBRANCH  11  29
TORSDOF 5
ENDMDL
MODEL 8
REMARK VINA RESULT:      -8.6      3.208      4.503
REMARK  Name = 
REMARK  5 active torsions:
REMARK  status: ('A' for Active; 'I' for Inactive)
REMARK    1  A    between atoms: N_8  and  C_9
REMARK    2  A    between atoms: C_9  and  C_10
REMARK    3  A    between atoms: C_10  and  N_11
REMARK    4  A    between atoms: N_23  and  C_24
REMARK    5  A    between atoms: C_24  and  C_25
REMARK                            x       y       z     vdW  Elec       q    Type
REMARK                         _______ _______ _______ _____ _____    ______ ____
ROOT
ATOM      1  N   UNL     1       1.230  10.745  17.842  0.00  0.00    +0.000 N 
ATOM      2  C   UNL     1       0.939  10.337  19.104  0.00  0.00    +0.000 A 
ATOM      3  N   UNL     1       0.243  11.123  19.899  0.00  0.00    +0.000 NA
ATOM      4  C   UNL     1       0.043  10.619  21.153  0.00  0.00    +0.000 A 
ATOM      5  C   UNL     1       0.503   9.419  21.648  0.00  0.00    +0.000 A 
ATOM      6  C   UNL     1       0.054   9.348  22.968  0.00  0.00    +0.000 A 
ATOM      7  N   UNL     1      -0.657  10.430  23.308  0.00  0.00    +0.000 NA
ATOM      8  N   UNL     1      -0.654  11.200  22.184  0.00  0.00    +0.000 N 
ATOM      9  C   UNL     1       1.253   8.599  20.771  0.00  0.00    +0.000 A 
ATOM     10  N   UNL     1       1.805   7.452  21.027  0.00  0.00    +0.000 NA
ATOM     11  N   UNL     1       2.381   7.111  19.809  0.00  0.00    +0.000 N 
ATOM     12  C   UNL     1       2.140   8.109  18.840  0.00  0.00    +0.000 A 
ATOM     13  O   UNL     1       2.485   8.122  17.672  0.00  0.00    +0.000 OA
ATOM     14  N   UNL     1       1.416   9.086  19.512  0.00  0.00    +0.000 N 
ATOM     15  H   UNL     1       0.854  11.618  17.499  0.00  0.00    +0.000 HD
ATOM     16  H   UNL     1       1.717  10.130  17.196  0.00  0.00    +0.000 HD
ENDROOT
BRANCH   8  17
ATOM     17  C   UNL     1      -1.383  12.465  22.189  0.00  0.00    +0.000 C 
BRANCH  17  18
ATOM     18  C   UNL     1      -0.440  13.671  22.295  0.00  0.00    +0.000 C 
BRANCH  18  19
ATOM     19  N   UNL     1      -0.447  14.693  21.234  0.00  0.00    +0.000 NA
ATOM     20  C   UNL     1       0.034  16.024  21.616  0.00  0.00    +0.000 C 
ATOM     21  C   UNL     1      -0.370  17.040  20.537  0.00  0.00    +0.000 C 
ATOM     22  C   UNL     1       0.126  16.616  19.154  0.00  0.00    +0.000 C 
ATOM     23  C   UNL     1      -0.254  15.168  18.857  0.00  0.00    +0.000 C 
ATOM     24  C   UNL     1       0.172  14.241  19.989  0.00  0.00    +0.000 C 
ATOM     25  O   UNL     1       1.556  16.774  19.105  0.00  0.00    +0.000 OA
ATOM     26  C   UNL     1       1.819  17.350  17.829  0.00  0.00    +0.000 C 
ATOM     27  C   UNL     1       0.592  18.168  17.540  0.00  0.00    +0.000 C 
ATOM     28  O   UNL     1      -0.476  17.441  18.139  0.00  0.00    +0.000 OA
ENDBRANCH  18  19
ENDBRANCH  17  18
ENDBRANCH   8  17
BRANCH  11  29
ATOM     29  C   UNL     1       3.182   5.918  19.641  0.00  0.00    +0.000 C 
BRANCH  29  30
ATOM     30  C   UNL     1       2.391   4.634  19.657  0.00  0.00    +0.000 A 
ATOM     31  C   UNL     1       2.104   3.987  20.868  0.00  0.00    +0.000 A 
ATOM     32  C   UNL     1       1.259   2.875  20.894  0.00  0.00    +0.000 A 
ATOM     33  C   UNL     1       0.693   2.398  19.712  0.00  0.00    +0.000 A 
ATOM     34  C   UNL     1       0.999   3.011  18.499  0.00  0.00    +0.000 A 
ATOM     35  C   UNL     1       1.858   4.112  18.468  0.00  0.00    +0.000 A 
ENDBRANCH  29  30
ENDBRANCH  11  29
TORSDOF 5
ENDMDL
MODEL 9
REMARK VINA RESULT:      -8.6      1.629      2.520
REMARK  Name = 
REMARK  5 active torsions:
REMARK  status: ('A' for Active; 'I' for Inactive)
REMARK    1  A    between atoms: N_8  and  C_9
REMARK    2  A    between atoms: C_9  and  C_10
REMARK    3  A    between atoms: C_10  and  N_11
REMARK    4  A    between atoms: N_23  and  C_24
REMARK    5  A    between atoms: C_24  and  C_25
REMARK                            x       y       z     vdW  Elec       q    Type
REMARK                         _______ _______ _______ _____ _____    ______ ____
ROOT
ATOM      1  N   UNL     1       1.825  10.244  17.678  0.00  0.00    +0.000 N 
ATOM      2  C   UNL     1       1.442   9.922  18.940  0.00  0.00    +0.000 A 
ATOM      3  N   UNL     1       0.917  10.846  19.717  0.00  0.00    +0.000 NA
ATOM      4  C   UNL     1       0.602  10.411  20.974  0.00  0.00    +0.000 A 
ATOM      5  C   UNL     1       0.796   9.149  21.488  0.00  0.00    +0.000 A 
ATOM      6  C   UNL     1       0.327   9.190  22.802  0.00  0.00    +0.000 A 
ATOM      7  N   UNL     1      -0.145  10.401  23.121  0.00  0.00    +0.000 NA
ATOM      8  N   UNL     1       0.031  11.139  21.989  0.00  0.00    +0.000 N 
ATOM      9  C   UNL     1       1.367   8.179  20.629  0.00  0.00    +0.000 A 
ATOM     10  N   UNL     1       1.663   6.945  20.905  0.00  0.00    +0.000 NA
ATOM     11  N   UNL     1       2.169   6.475  19.698  0.00  0.00    +0.000 N 
ATOM     12  C   UNL     1       2.153   7.489  18.715  0.00  0.00    +0.000 A 
ATOM     13  O   UNL     1       2.505   7.414  17.552  0.00  0.00    +0.000 OA
ATOM     14  N   UNL     1       1.641   8.604  19.368  0.00  0.00    +0.000 N 
ATOM     15  H   UNL     1       1.644  11.171  17.321  0.00  0.00    +0.000 HD
ATOM     16  H   UNL     1       2.180   9.532  17.045  0.00  0.00    +0.000 HD
ENDROOT
BRANCH   8  17
ATOM     17  C   UNL     1      -0.417  12.528  21.971  0.00  0.00    +0.000 C 
BRANCH  17  18
ATOM     18  C   UNL     1      -1.503  12.795  23.022  0.00  0.00    +0.000 C 
BRANCH  18  19
ATOM     19  N   UNL     1      -2.869  13.131  22.585  0.00  0.00    +0.000 NA
ATOM     20  C   UNL     1      -3.195  12.828  21.189  0.00  0.00    +0.000 C 
ATOM     21  C   UNL     1      -4.492  13.553  20.800  0.00  0.00    +0.000 C 
ATOM     22  C   UNL     1      -5.636  13.205  21.753  0.00  0.00    +0.000 C 
ATOM     23  C   UNL     1      -5.207  13.377  23.208  0.00  0.00    +0.000 C 
ATOM     24  C   UNL     1      -3.906  12.638  23.492  0.00  0.00    +0.000 C 
ATOM     25  O   UNL     1      -6.043  11.845  21.514  0.00  0.00    +0.000 OA
ATOM     26  C   UNL     1      -7.467  11.875  21.548  0.00  0.00    +0.000 C 
ATOM     27  C   UNL     1      -7.812  13.251  21.052  0.00  0.00    +0.000 C 
ATOM     28  O   UNL     1      -6.755  14.081  21.522  0.00  0.00    +0.000 OA
ENDBRANCH  18  19
ENDBRANCH  17  18
ENDBRANCH   8  17
BRANCH  11  29
ATOM     29  C   UNL     1       2.704   5.139  19.553  0.00  0.00    +0.000 C 
BRANCH  29  30
ATOM     30  C   UNL     1       3.985   5.068  18.760  0.00  0.00    +0.000 A 
ATOM     31  C   UNL     1       5.192   5.524  19.311  0.00  0.00    +0.000 A 
ATOM     32  C   UNL     1       6.397   5.334  18.631  0.00  0.00    +0.000 A 
ATOM     33  C   UNL     1       6.409   4.689  17.395  0.00  0.00    +0.000 A 
ATOM     34  C   UNL     1       5.213   4.263  16.822  0.00  0.00    +0.000 A 
ATOM     35  C   UNL     1       4.004   4.468  17.491  0.00  0.00    +0.000 A 
ENDBRANCH  29  30
ENDBRANCH  11  29
TORSDOF 5
ENDMDL
