MODEL 1
REMARK VINA RESULT:      -7.9      0.000      0.000
REMARK  Name = 
REMARK  11 active torsions:
REMARK  status: ('A' for Active; 'I' for Inactive)
REMARK    1  A    between atoms: C_1  and  C_2
REMARK    2  A    between atoms: C_2  and  C_3
REMARK    3  A    between atoms: C_7  and  C_8
REMARK    4  A    between atoms: C_8  and  C_9
REMARK    5  A    between atoms: C_10  and  C_11
REMARK    6  A    between atoms: C_13  and  O_14
REMARK    7  A    between atoms: O_14  and  C_15
REMARK    8  A    between atoms: C_22  and  N_23
REMARK    9  A    between atoms: N_23  and  C_24
REMARK   10  A    between atoms: C_29  and  C_30
REMARK   11  A    between atoms: C_30  and  C_31
REMARK                            x       y       z     vdW  Elec       q    Type
REMARK                         _______ _______ _______ _____ _____    ______ ____
ROOT
ATOM      1  C   UNL     1       2.781   7.128  18.465  0.00  0.00    +0.000 A 
ATOM      2  C   UNL     1       2.215   7.155  19.726  0.00  0.00    +0.000 A 
ATOM      3  C   UNL     1       1.497   8.275  20.171  0.00  0.00    +0.000 A 
ATOM      4  C   UNL     1       1.438   9.430  19.378  0.00  0.00    +0.000 A 
ATOM      5  C   UNL     1       2.178   9.375  18.196  0.00  0.00    +0.000 A 
ATOM      6  N   UNL     1       2.729   8.242  17.718  0.00  0.00    +0.000 NA
ATOM      7  C   UNL     1       2.499  10.591  17.369  0.00  0.00    +0.000 C 
ATOM      8  C   UNL     1       2.297  11.874  18.155  0.00  0.00    +0.000 C 
ATOM      9  C   UNL     1       0.883  11.852  18.716  0.00  0.00    +0.000 C 
ATOM     10  C   UNL     1       0.708  10.705  19.740  0.00  0.00    +0.000 C 
ENDROOT
BRANCH   1  16
ATOM     11  C   UNL     1       2.876   4.695  17.687  0.00  0.00    +0.000 A 
ATOM     12  C   UNL     1       3.549   3.647  17.033  0.00  0.00    +0.000 A 
ATOM     13  C   UNL     1       4.842   3.805  16.569  0.00  0.00    +0.000 A 
ATOM     14  C   UNL     1       5.510   5.002  16.774  0.00  0.00    +0.000 A 
ATOM     15  C   UNL     1       4.908   6.086  17.445  0.00  0.00    +0.000 A 
ATOM     16  C   UNL     1       3.535   5.975  17.868  0.00  0.00    +0.000 A 
BRANCH  11  18
ATOM     17  C   UNL     1       1.134   3.060  18.788  0.00  0.00    +0.000 C 
ATOM     18  C   UNL     1       1.456   4.427  18.195  0.00  0.00    +0.000 C 
ENDBRANCH  11  18
BRANCH  15  19
ATOM     19  C   UNL     1       5.739   7.356  17.609  0.00  0.00    +0.000 C 
ATOM     20  C   UNL     1       7.262   7.260  17.523  0.00  0.00    +0.000 C 
ENDBRANCH  15  19
ENDBRANCH   1  16
BRANCH   3  21
ATOM     21  O   UNL     1       0.849   8.025  21.352  0.00  0.00    +0.000 OA
ATOM     22  C   UNL     1       1.120   8.871  22.456  0.00  0.00    +0.000 C 
ENDBRANCH   3  21
BRANCH  10  23
ATOM     23  N   UNL     1      -0.728  10.429  19.883  0.00  0.00    +0.000 N 
ATOM     24  H   UNL     1      -0.912   9.659  20.519  0.00  0.00    +0.000 HD
BRANCH  23  25
ATOM     25  C   UNL     1      -1.649  10.544  18.837  0.00  0.00    +0.000 A 
ATOM     26  C   UNL     1      -1.463   9.810  17.644  0.00  0.00    +0.000 A 
ATOM     27  C   UNL     1      -2.269   9.974  16.516  0.00  0.00    +0.000 A 
ATOM     28  C   UNL     1      -3.321  10.869  16.549  0.00  0.00    +0.000 A 
ATOM     29  C   UNL     1      -3.532  11.625  17.695  0.00  0.00    +0.000 A 
ATOM     30  C   UNL     1      -2.694  11.504  18.827  0.00  0.00    +0.000 A 
BRANCH  30  31
ATOM     31  C   UNL     1      -2.953  12.533  19.878  0.00  0.00    +0.000 C 
ATOM     32  C   UNL     1      -4.333  12.754  20.431  0.00  0.00    +0.000 C 
ATOM     33  O   UNL     1      -2.024  13.260  20.254  0.00  0.00    +0.000 OA
ENDBRANCH  30  31
ENDBRANCH  23  25
ENDBRANCH  10  23
TORSDOF 7
ENDMDL
MODEL 2
REMARK VINA RESULT:      -7.7      0.176      2.439
REMARK  Name = 
REMARK  11 active torsions:
REMARK  status: ('A' for Active; 'I' for Inactive)
REMARK    1  A    between atoms: C_1  and  C_2
REMARK    2  A    between atoms: C_2  and  C_3
REMARK    3  A    between atoms: C_7  and  C_8
REMARK    4  A    between atoms: C_8  and  C_9
REMARK    5  A    between atoms: C_10  and  C_11
REMARK    6  A    between atoms: C_13  and  O_14
REMARK    7  A    between atoms: O_14  and  C_15
REMARK    8  A    between atoms: C_22  and  N_23
REMARK    9  A    between atoms: N_23  and  C_24
REMARK   10  A    between atoms: C_29  and  C_30
REMARK   11  A    between atoms: C_30  and  C_31
REMARK                            x       y       z     vdW  Elec       q    Type
REMARK                         _______ _______ _______ _____ _____    ______ ____
ROOT
ATOM      1  C   UNL     1       2.745   7.104  18.430  0.00  0.00    +0.000 A 
ATOM      2  C   UNL     1       2.197   7.134  19.699  0.00  0.00    +0.000 A 
ATOM      3  C   UNL     1       1.505   8.263  20.160  0.00  0.00    +0.000 A 
ATOM      4  C   UNL     1       1.454   9.422  19.374  0.00  0.00    +0.000 A 
ATOM      5  C   UNL     1       2.176   9.362  18.182  0.00  0.00    +0.000 A 
ATOM      6  N   UNL     1       2.701   8.222  17.689  0.00  0.00    +0.000 NA
ATOM      7  C   UNL     1       2.506  10.577  17.356  0.00  0.00    +0.000 C 
ATOM      8  C   UNL     1       2.336  11.859  18.151  0.00  0.00    +0.000 C 
ATOM      9  C   UNL     1       0.930  11.857  18.732  0.00  0.00    +0.000 C 
ATOM     10  C   UNL     1       0.750  10.707  19.753  0.00  0.00    +0.000 C 
ENDROOT
BRANCH   1  16
ATOM     11  C   UNL     1       4.854   6.087  17.404  0.00  0.00    +0.000 A 
ATOM     12  C   UNL     1       5.563   4.970  16.927  0.00  0.00    +0.000 A 
ATOM     13  C   UNL     1       4.964   3.728  16.829  0.00  0.00    +0.000 A 
ATOM     14  C   UNL     1       3.630   3.574  17.172  0.00  0.00    +0.000 A 
ATOM     15  C   UNL     1       2.849   4.654  17.631  0.00  0.00    +0.000 A 
ATOM     16  C   UNL     1       3.471   5.941  17.817  0.00  0.00    +0.000 A 
BRANCH  11  18
ATOM     17  C   UNL     1       7.109   7.442  17.410  0.00  0.00    +0.000 C 
ATOM     18  C   UNL     1       5.585   7.432  17.454  0.00  0.00    +0.000 C 
ENDBRANCH  11  18
BRANCH  15  19
ATOM     19  C   UNL     1       1.393   4.365  17.982  0.00  0.00    +0.000 C 
ATOM     20  C   UNL     1       1.081   3.563  19.246  0.00  0.00    +0.000 C 
ENDBRANCH  15  19
ENDBRANCH   1  16
BRANCH   3  21
ATOM     21  O   UNL     1       0.870   8.017  21.349  0.00  0.00    +0.000 OA
ATOM     22  C   UNL     1       1.167   8.856  22.452  0.00  0.00    +0.000 C 
ENDBRANCH   3  21
BRANCH  10  23
ATOM     23  N   UNL     1      -0.688  10.455  19.915  0.00  0.00    +0.000 N 
ATOM     24  H   UNL     1      -0.876   9.687  20.551  0.00  0.00    +0.000 HD
BRANCH  23  25
ATOM     25  C   UNL     1      -1.622  10.588  18.882  0.00  0.00    +0.000 A 
ATOM     26  C   UNL     1      -1.473   9.840  17.692  0.00  0.00    +0.000 A 
ATOM     27  C   UNL     1      -2.291  10.018  16.574  0.00  0.00    +0.000 A 
ATOM     28  C   UNL     1      -3.318  10.941  16.616  0.00  0.00    +0.000 A 
ATOM     29  C   UNL     1      -3.492  11.710  17.760  0.00  0.00    +0.000 A 
ATOM     30  C   UNL     1      -2.641  11.574  18.881  0.00  0.00    +0.000 A 
BRANCH  30  31
ATOM     31  C   UNL     1      -2.856  12.617  19.928  0.00  0.00    +0.000 C 
ATOM     32  C   UNL     1      -4.181  12.763  20.624  0.00  0.00    +0.000 C 
ATOM     33  O   UNL     1      -1.946  13.417  20.181  0.00  0.00    +0.000 OA
ENDBRANCH  30  31
ENDBRANCH  23  25
ENDBRANCH  10  23
TORSDOF 7
ENDMDL
MODEL 3
REMARK VINA RESULT:      -7.7      0.949      1.141
REMARK  Name = 
REMARK  11 active torsions:
REMARK  status: ('A' for Active; 'I' for Inactive)
REMARK    1  A    between atoms: C_1  and  C_2
REMARK    2  A    between atoms: C_2  and  C_3
REMARK    3  A    between atoms: C_7  and  C_8
REMARK    4  A    between atoms: C_8  and  C_9
REMARK    5  A    between atoms: C_10  and  C_11
REMARK    6  A    between atoms: C_13  and  O_14
REMARK    7  A    between atoms: O_14  and  C_15
REMARK    8  A    between atoms: C_22  and  N_23
REMARK    9  A    between atoms: N_23  and  C_24
REMARK   10  A    between atoms: C_29  and  C_30
REMARK   11  A    between atoms: C_30  and  C_31
REMARK                            x       y       z     vdW  Elec       q    Type
REMARK                         _______ _______ _______ _____ _____    ______ ____
ROOT
ATOM      1  C   UNL     1       2.258   6.839  19.192  0.00  0.00    +0.000 A 
ATOM      2  C   UNL     1       1.685   7.115  20.420  0.00  0.00    +0.000 A 
ATOM      3  C   UNL     1       1.075   8.352  20.670  0.00  0.00    +0.000 A 
ATOM      4  C   UNL     1       1.137   9.370  19.708  0.00  0.00    +0.000 A 
ATOM      5  C   UNL     1       1.880   9.064  18.568  0.00  0.00    +0.000 A 
ATOM      6  N   UNL     1       2.323   7.823  18.283  0.00  0.00    +0.000 NA
ATOM      7  C   UNL     1       2.326  10.101  17.572  0.00  0.00    +0.000 C 
ATOM      8  C   UNL     1       2.242  11.504  18.148  0.00  0.00    +0.000 C 
ATOM      9  C   UNL     1       0.827  11.703  18.669  0.00  0.00    +0.000 C 
ATOM     10  C   UNL     1       0.530  10.750  19.853  0.00  0.00    +0.000 C 
ENDROOT
BRANCH   1  16
ATOM     11  C   UNL     1       2.401   4.291  19.338  0.00  0.00    +0.000 A 
ATOM     12  C   UNL     1       2.936   3.070  18.889  0.00  0.00    +0.000 A 
ATOM     13  C   UNL     1       3.948   3.034  17.948  0.00  0.00    +0.000 A 
ATOM     14  C   UNL     1       4.477   4.216  17.454  0.00  0.00    +0.000 A 
ATOM     15  C   UNL     1       4.010   5.476  17.879  0.00  0.00    +0.000 A 
ATOM     16  C   UNL     1       2.902   5.541  18.799  0.00  0.00    +0.000 A 
BRANCH  11  18
ATOM     17  C   UNL     1       1.231   3.036  21.333  0.00  0.00    +0.000 C 
ATOM     18  C   UNL     1       1.301   4.243  20.404  0.00  0.00    +0.000 C 
ENDBRANCH  11  18
BRANCH  15  19
ATOM     19  C   UNL     1       4.665   6.709  17.263  0.00  0.00    +0.000 C 
ATOM     20  C   UNL     1       5.189   6.631  15.830  0.00  0.00    +0.000 C 
ENDBRANCH  15  19
ENDBRANCH   1  16
BRANCH   3  21
ATOM     21  O   UNL     1       0.394   8.351  21.859  0.00  0.00    +0.000 OA
ATOM     22  C   UNL     1       0.793   9.272  22.859  0.00  0.00    +0.000 C 
ENDBRANCH   3  21
BRANCH  10  23
ATOM     23  N   UNL     1      -0.927  10.637  20.000  0.00  0.00    +0.000 N 
ATOM     24  H   UNL     1      -1.191   9.992  20.738  0.00  0.00    +0.000 HD
BRANCH  23  25
ATOM     25  C   UNL     1      -1.823  10.681  18.926  0.00  0.00    +0.000 A 
ATOM     26  C   UNL     1      -1.575   9.915  17.765  0.00  0.00    +0.000 A 
ATOM     27  C   UNL     1      -2.355  10.009  16.610  0.00  0.00    +0.000 A 
ATOM     28  C   UNL     1      -3.441  10.864  16.585  0.00  0.00    +0.000 A 
ATOM     29  C   UNL     1      -3.712  11.650  17.698  0.00  0.00    +0.000 A 
ATOM     30  C   UNL     1      -2.902  11.599  18.856  0.00  0.00    +0.000 A 
BRANCH  30  31
ATOM     31  C   UNL     1      -3.228  12.652  19.863  0.00  0.00    +0.000 C 
ATOM     32  C   UNL     1      -4.644  12.897  20.306  0.00  0.00    +0.000 C 
ATOM     33  O   UNL     1      -2.323  13.379  20.293  0.00  0.00    +0.000 OA
ENDBRANCH  30  31
ENDBRANCH  23  25
ENDBRANCH  10  23
TORSDOF 7
ENDMDL
MODEL 4
REMARK VINA RESULT:      -7.6      1.183      2.572
REMARK  Name = 
REMARK  11 active torsions:
REMARK  status: ('A' for Active; 'I' for Inactive)
REMARK    1  A    between atoms: C_1  and  C_2
REMARK    2  A    between atoms: C_2  and  C_3
REMARK    3  A    between atoms: C_7  and  C_8
REMARK    4  A    between atoms: C_8  and  C_9
REMARK    5  A    between atoms: C_10  and  C_11
REMARK    6  A    between atoms: C_13  and  O_14
REMARK    7  A    between atoms: O_14  and  C_15
REMARK    8  A    between atoms: C_22  and  N_23
REMARK    9  A    between atoms: N_23  and  C_24
REMARK   10  A    between atoms: C_29  and  C_30
REMARK   11  A    between atoms: C_30  and  C_31
REMARK                            x       y       z     vdW  Elec       q    Type
REMARK                         _______ _______ _______ _____ _____    ______ ____
ROOT
ATOM      1  C   UNL     1       2.265   6.957  19.476  0.00  0.00    +0.000 A 
ATOM      2  C   UNL     1       1.593   7.252  20.647  0.00  0.00    +0.000 A 
ATOM      3  C   UNL     1       0.905   8.464  20.800  0.00  0.00    +0.000 A 
ATOM      4  C   UNL     1       0.983   9.444  19.800  0.00  0.00    +0.000 A 
ATOM      5  C   UNL     1       1.819   9.131  18.728  0.00  0.00    +0.000 A 
ATOM      6  N   UNL     1       2.343   7.905  18.529  0.00  0.00    +0.000 NA
ATOM      7  C   UNL     1       2.282  10.149  17.719  0.00  0.00    +0.000 C 
ATOM      8  C   UNL     1       2.087  11.567  18.224  0.00  0.00    +0.000 C 
ATOM      9  C   UNL     1       0.630  11.712  18.638  0.00  0.00    +0.000 C 
ATOM     10  C   UNL     1       0.299  10.794  19.840  0.00  0.00    +0.000 C 
ENDROOT
BRANCH   1  16
ATOM     11  C   UNL     1       4.081   5.670  18.219  0.00  0.00    +0.000 A 
ATOM     12  C   UNL     1       4.836   4.499  18.025  0.00  0.00    +0.000 A 
ATOM     13  C   UNL     1       4.560   3.343  18.731  0.00  0.00    +0.000 A 
ATOM     14  C   UNL     1       3.501   3.313  19.625  0.00  0.00    +0.000 A 
ATOM     15  C   UNL     1       2.684   4.440  19.850  0.00  0.00    +0.000 A 
ATOM     16  C   UNL     1       3.000   5.680  19.186  0.00  0.00    +0.000 A 
BRANCH  11  18
ATOM     17  C   UNL     1       5.101   6.692  16.019  0.00  0.00    +0.000 C 
ATOM     18  C   UNL     1       4.435   6.899  17.375  0.00  0.00    +0.000 C 
ENDBRANCH  11  18
BRANCH  15  19
ATOM     19  C   UNL     1       1.550   4.292  20.859  0.00  0.00    +0.000 C 
ATOM     20  C   UNL     1       1.286   2.920  21.480  0.00  0.00    +0.000 C 
ENDBRANCH  15  19
ENDBRANCH   1  16
BRANCH   3  21
ATOM     21  O   UNL     1       0.142   8.475  21.938  0.00  0.00    +0.000 OA
ATOM     22  C   UNL     1       0.492   9.383  22.968  0.00  0.00    +0.000 C 
ENDBRANCH   3  21
BRANCH  10  23
ATOM     23  N   UNL     1      -1.157  10.609  19.892  0.00  0.00    +0.000 N 
ATOM     24  H   UNL     1      -1.435   9.929  20.593  0.00  0.00    +0.000 HD
BRANCH  23  25
ATOM     25  C   UNL     1      -1.987  10.647  18.766  0.00  0.00    +0.000 A 
ATOM     26  C   UNL     1      -1.634   9.928  17.602  0.00  0.00    +0.000 A 
ATOM     27  C   UNL     1      -2.345  10.023  16.404  0.00  0.00    +0.000 A 
ATOM     28  C   UNL     1      -3.465  10.830  16.334  0.00  0.00    +0.000 A 
ATOM     29  C   UNL     1      -3.840  11.568  17.450  0.00  0.00    +0.000 A 
ATOM     30  C   UNL     1      -3.101  11.518  18.654  0.00  0.00    +0.000 A 
BRANCH  30  31
ATOM     31  C   UNL     1      -3.536  12.525  19.667  0.00  0.00    +0.000 C 
ATOM     32  C   UNL     1      -4.993  12.781  19.937  0.00  0.00    +0.000 C 
ATOM     33  O   UNL     1      -2.681  13.205  20.250  0.00  0.00    +0.000 OA
ENDBRANCH  30  31
ENDBRANCH  23  25
ENDBRANCH  10  23
TORSDOF 7
ENDMDL
MODEL 5
REMARK VINA RESULT:      -7.5      2.409      3.877
REMARK  Name = 
REMARK  11 active torsions:
REMARK  status: ('A' for Active; 'I' for Inactive)
REMARK    1  A    between atoms: C_1  and  C_2
REMARK    2  A    between atoms: C_2  and  C_3
REMARK    3  A    between atoms: C_7  and  C_8
REMARK    4  A    between atoms: C_8  and  C_9
REMARK    5  A    between atoms: C_10  and  C_11
REMARK    6  A    between atoms: C_13  and  O_14
REMARK    7  A    between atoms: O_14  and  C_15
REMARK    8  A    between atoms: C_22  and  N_23
REMARK    9  A    between atoms: N_23  and  C_24
REMARK   10  A    between atoms: C_29  and  C_30
REMARK   11  A    between atoms: C_30  and  C_31
REMARK                            x       y       z     vdW  Elec       q    Type
REMARK                         _______ _______ _______ _____ _____    ______ ____
ROOT
ATOM      1  C   UNL     1       2.774   7.259  18.406  0.00  0.00    +0.000 A 
ATOM      2  C   UNL     1       2.428   8.390  17.690  0.00  0.00    +0.000 A 
ATOM      3  C   UNL     1       1.758   9.457  18.306  0.00  0.00    +0.000 A 
ATOM      4  C   UNL     1       1.332   9.341  19.637  0.00  0.00    +0.000 A 
ATOM      5  C   UNL     1       1.573   8.103  20.231  0.00  0.00    +0.000 A 
ATOM      6  N   UNL     1       2.352   7.153  19.676  0.00  0.00    +0.000 NA
ATOM      7  C   UNL     1       0.932   7.669  21.522  0.00  0.00    +0.000 C 
ATOM      8  C   UNL     1      -0.276   8.524  21.863  0.00  0.00    +0.000 C 
ATOM      9  C   UNL     1       0.170   9.979  21.841  0.00  0.00    +0.000 C 
ATOM     10  C   UNL     1       0.595  10.410  20.416  0.00  0.00    +0.000 C 
ENDROOT
BRANCH   1  16
ATOM     11  C   UNL     1       2.864   4.789  17.754  0.00  0.00    +0.000 A 
ATOM     12  C   UNL     1       3.534   3.709  17.150  0.00  0.00    +0.000 A 
ATOM     13  C   UNL     1       4.823   3.843  16.670  0.00  0.00    +0.000 A 
ATOM     14  C   UNL     1       5.492   5.049  16.808  0.00  0.00    +0.000 A 
ATOM     15  C   UNL     1       4.894   6.166  17.426  0.00  0.00    +0.000 A 
ATOM     16  C   UNL     1       3.524   6.076  17.865  0.00  0.00    +0.000 A 
BRANCH  11  18
ATOM     17  C   UNL     1       1.268   3.685  19.530  0.00  0.00    +0.000 C 
ATOM     18  C   UNL     1       1.448   4.548  18.286  0.00  0.00    +0.000 C 
ENDBRANCH  11  18
BRANCH  15  19
ATOM     19  C   UNL     1       5.726   7.442  17.519  0.00  0.00    +0.000 C 
ATOM     20  C   UNL     1       7.250   7.337  17.481  0.00  0.00    +0.000 C 
ENDBRANCH  15  19
ENDBRANCH   1  16
BRANCH   3  21
ATOM     21  O   UNL     1       1.691  10.554  17.487  0.00  0.00    +0.000 OA
ATOM     22  C   UNL     1       2.731  11.512  17.568  0.00  0.00    +0.000 C 
ENDBRANCH   3  21
BRANCH  10  23
ATOM     23  N   UNL     1       1.435  11.609  20.528  0.00  0.00    +0.000 N 
ATOM     24  H   UNL     1       2.031  11.587  21.350  0.00  0.00    +0.000 HD
BRANCH  23  25
ATOM     25  C   UNL     1       1.015  12.890  20.156  0.00  0.00    +0.000 A 
ATOM     26  C   UNL     1      -0.203  13.063  19.461  0.00  0.00    +0.000 A 
ATOM     27  C   UNL     1      -0.619  14.293  18.949  0.00  0.00    +0.000 A 
ATOM     28  C   UNL     1       0.165  15.415  19.138  0.00  0.00    +0.000 A 
ATOM     29  C   UNL     1       1.379  15.290  19.801  0.00  0.00    +0.000 A 
ATOM     30  C   UNL     1       1.835  14.041  20.284  0.00  0.00    +0.000 A 
BRANCH  30  31
ATOM     31  C   UNL     1       3.241  14.069  20.785  0.00  0.00    +0.000 C 
ATOM     32  C   UNL     1       4.334  14.747  20.007  0.00  0.00    +0.000 C 
ATOM     33  O   UNL     1       3.522  13.468  21.830  0.00  0.00    +0.000 OA
ENDBRANCH  30  31
ENDBRANCH  23  25
ENDBRANCH  10  23
TORSDOF 7
ENDMDL
MODEL 6
REMARK VINA RESULT:      -7.5      1.502      2.481
REMARK  Name = 
REMARK  11 active torsions:
REMARK  status: ('A' for Active; 'I' for Inactive)
REMARK    1  A    between atoms: C_1  and  C_2
REMARK    2  A    between atoms: C_2  and  C_3
REMARK    3  A    between atoms: C_7  and  C_8
REMARK    4  A    between atoms: C_8  and  C_9
REMARK    5  A    between atoms: C_10  and  C_11
REMARK    6  A    between atoms: C_13  and  O_14
REMARK    7  A    between atoms: O_14  and  C_15
REMARK    8  A    between atoms: C_22  and  N_23
REMARK    9  A    between atoms: N_23  and  C_24
REMARK   10  A    between atoms: C_29  and  C_30
REMARK   11  A    between atoms: C_30  and  C_31
REMARK                            x       y       z     vdW  Elec       q    Type
REMARK                         _______ _______ _______ _____ _____    ______ ____
ROOT
ATOM      1  C   UNL     1       2.296   6.723  19.093  0.00  0.00    +0.000 A 
ATOM      2  C   UNL     1       1.913   7.008  20.391  0.00  0.00    +0.000 A 
ATOM      3  C   UNL     1       1.382   8.261  20.729  0.00  0.00    +0.000 A 
ATOM      4  C   UNL     1       1.335   9.283  19.769  0.00  0.00    +0.000 A 
ATOM      5  C   UNL     1       1.897   8.962  18.533  0.00  0.00    +0.000 A 
ATOM      6  N   UNL     1       2.258   7.710  18.185  0.00  0.00    +0.000 NA
ATOM      7  C   UNL     1       2.225   9.991  17.485  0.00  0.00    +0.000 C 
ATOM      8  C   UNL     1       2.266  11.392  18.069  0.00  0.00    +0.000 C 
ATOM      9  C   UNL     1       0.947  11.629  18.789  0.00  0.00    +0.000 C 
ATOM     10  C   UNL     1       0.796  10.678  20.002  0.00  0.00    +0.000 C 
ENDROOT
BRANCH   1  16
ATOM     11  C   UNL     1       2.210   4.169  19.025  0.00  0.00    +0.000 A 
ATOM     12  C   UNL     1       2.653   2.946  18.489  0.00  0.00    +0.000 A 
ATOM     13  C   UNL     1       3.692   2.897  17.578  0.00  0.00    +0.000 A 
ATOM     14  C   UNL     1       4.341   4.064  17.203  0.00  0.00    +0.000 A 
ATOM     15  C   UNL     1       3.969   5.321  17.720  0.00  0.00    +0.000 A 
ATOM     16  C   UNL     1       2.839   5.409  18.610  0.00  0.00    +0.000 A 
BRANCH  11  18
ATOM     17  C   UNL     1       1.141   3.120  21.188  0.00  0.00    +0.000 C 
ATOM     18  C   UNL     1       1.072   4.132  20.049  0.00  0.00    +0.000 C 
ENDBRANCH  11  18
BRANCH  15  19
ATOM     19  C   UNL     1       4.752   6.537  17.232  0.00  0.00    +0.000 C 
ATOM     20  C   UNL     1       5.135   6.627  15.755  0.00  0.00    +0.000 C 
ENDBRANCH  15  19
ENDBRANCH   1  16
BRANCH   3  21
ATOM     21  O   UNL     1       0.880   8.272  22.003  0.00  0.00    +0.000 OA
ATOM     22  C   UNL     1       1.454   9.167  22.940  0.00  0.00    +0.000 C 
ENDBRANCH   3  21
BRANCH  10  23
ATOM     23  N   UNL     1      -0.628  10.606  20.357  0.00  0.00    +0.000 N 
ATOM     24  H   UNL     1      -1.178  10.130  19.649  0.00  0.00    +0.000 HD
BRANCH  23  25
ATOM     25  C   UNL     1      -1.313  11.621  21.032  0.00  0.00    +0.000 A 
ATOM     26  C   UNL     1      -1.006  11.906  22.382  0.00  0.00    +0.000 A 
ATOM     27  C   UNL     1      -1.735  12.815  23.152  0.00  0.00    +0.000 A 
ATOM     28  C   UNL     1      -2.794  13.499  22.586  0.00  0.00    +0.000 A 
ATOM     29  C   UNL     1      -3.142  13.239  21.266  0.00  0.00    +0.000 A 
ATOM     30  C   UNL     1      -2.442  12.287  20.490  0.00  0.00    +0.000 A 
BRANCH  30  31
ATOM     31  C   UNL     1      -3.083  12.001  19.171  0.00  0.00    +0.000 C 
ATOM     32  C   UNL     1      -4.577  12.032  19.007  0.00  0.00    +0.000 C 
ATOM     33  O   UNL     1      -2.372  11.670  18.213  0.00  0.00    +0.000 OA
ENDBRANCH  30  31
ENDBRANCH  23  25
ENDBRANCH  10  23
TORSDOF 7
ENDMDL
MODEL 7
REMARK VINA RESULT:      -7.4      2.400      4.567
REMARK  Name = 
REMARK  11 active torsions:
REMARK  status: ('A' for Active; 'I' for Inactive)
REMARK    1  A    between atoms: C_1  and  C_2
REMARK    2  A    between atoms: C_2  and  C_3
REMARK    3  A    between atoms: C_7  and  C_8
REMARK    4  A    between atoms: C_8  and  C_9
REMARK    5  A    between atoms: C_10  and  C_11
REMARK    6  A    between atoms: C_13  and  O_14
REMARK    7  A    between atoms: O_14  and  C_15
REMARK    8  A    between atoms: C_22  and  N_23
REMARK    9  A    between atoms: N_23  and  C_24
REMARK   10  A    between atoms: C_29  and  C_30
REMARK   11  A    between atoms: C_30  and  C_31
REMARK                            x       y       z     vdW  Elec       q    Type
REMARK                         _______ _______ _______ _____ _____    ______ ____
ROOT
ATOM      1  C   UNL     1       2.775   7.228  18.393  0.00  0.00    +0.000 A 
ATOM      2  C   UNL     1       2.423   8.359  17.680  0.00  0.00    +0.000 A 
ATOM      3  C   UNL     1       1.750   9.422  18.299  0.00  0.00    +0.000 A 
ATOM      4  C   UNL     1       1.326   9.302  19.631  0.00  0.00    +0.000 A 
ATOM      5  C   UNL     1       1.574   8.063  20.222  0.00  0.00    +0.000 A 
ATOM      6  N   UNL     1       2.356   7.117  19.663  0.00  0.00    +0.000 NA
ATOM      7  C   UNL     1       0.936   7.623  21.513  0.00  0.00    +0.000 C 
ATOM      8  C   UNL     1      -0.275   8.472  21.857  0.00  0.00    +0.000 C 
ATOM      9  C   UNL     1       0.165   9.929  21.838  0.00  0.00    +0.000 C 
ATOM     10  C   UNL     1       0.586  10.365  20.414  0.00  0.00    +0.000 C 
ENDROOT
BRANCH   1  16
ATOM     11  C   UNL     1       4.924   6.192  17.473  0.00  0.00    +0.000 A 
ATOM     12  C   UNL     1       5.657   5.064  17.062  0.00  0.00    +0.000 A 
ATOM     13  C   UNL     1       5.070   3.814  16.991  0.00  0.00    +0.000 A 
ATOM     14  C   UNL     1       3.726   3.661  17.296  0.00  0.00    +0.000 A 
ATOM     15  C   UNL     1       2.923   4.752  17.689  0.00  0.00    +0.000 A 
ATOM     16  C   UNL     1       3.529   6.049  17.847  0.00  0.00    +0.000 A 
BRANCH  11  18
ATOM     17  C   UNL     1       7.167   7.566  17.464  0.00  0.00    +0.000 C 
ATOM     18  C   UNL     1       5.643   7.544  17.497  0.00  0.00    +0.000 C 
ENDBRANCH  11  18
BRANCH  15  19
ATOM     19  C   UNL     1       1.458   4.463  18.004  0.00  0.00    +0.000 C 
ATOM     20  C   UNL     1       1.112   3.705  19.285  0.00  0.00    +0.000 C 
ENDBRANCH  15  19
ENDBRANCH   1  16
BRANCH   3  21
ATOM     21  O   UNL     1       1.677  10.520  17.484  0.00  0.00    +0.000 OA
ATOM     22  C   UNL     1       2.701  11.495  17.582  0.00  0.00    +0.000 C 
ENDBRANCH   3  21
BRANCH  10  23
ATOM     23  N   UNL     1       1.422  11.567  20.528  0.00  0.00    +0.000 N 
ATOM     24  H   UNL     1       2.018  11.546  21.349  0.00  0.00    +0.000 HD
BRANCH  23  25
ATOM     25  C   UNL     1       0.996  12.848  20.158  0.00  0.00    +0.000 A 
ATOM     26  C   UNL     1      -0.229  13.018  19.476  0.00  0.00    +0.000 A 
ATOM     27  C   UNL     1      -0.652  14.247  18.966  0.00  0.00    +0.000 A 
ATOM     28  C   UNL     1       0.133  15.370  19.145  0.00  0.00    +0.000 A 
ATOM     29  C   UNL     1       1.354  15.247  19.796  0.00  0.00    +0.000 A 
ATOM     30  C   UNL     1       1.816  14.000  20.275  0.00  0.00    +0.000 A 
BRANCH  30  31
ATOM     31  C   UNL     1       3.227  14.029  20.762  0.00  0.00    +0.000 C 
ATOM     32  C   UNL     1       4.304  14.742  19.992  0.00  0.00    +0.000 C 
ATOM     33  O   UNL     1       3.527  13.403  21.787  0.00  0.00    +0.000 OA
ENDBRANCH  30  31
ENDBRANCH  23  25
ENDBRANCH  10  23
TORSDOF 7
ENDMDL
MODEL 8
REMARK VINA RESULT:      -7.3      1.481      3.388
REMARK  Name = 
REMARK  11 active torsions:
REMARK  status: ('A' for Active; 'I' for Inactive)
REMARK    1  A    between atoms: C_1  and  C_2
REMARK    2  A    between atoms: C_2  and  C_3
REMARK    3  A    between atoms: C_7  and  C_8
REMARK    4  A    between atoms: C_8  and  C_9
REMARK    5  A    between atoms: C_10  and  C_11
REMARK    6  A    between atoms: C_13  and  O_14
REMARK    7  A    between atoms: O_14  and  C_15
REMARK    8  A    between atoms: C_22  and  N_23
REMARK    9  A    between atoms: N_23  and  C_24
REMARK   10  A    between atoms: C_29  and  C_30
REMARK   11  A    between atoms: C_30  and  C_31
REMARK                            x       y       z     vdW  Elec       q    Type
REMARK                         _______ _______ _______ _____ _____    ______ ____
ROOT
ATOM      1  C   UNL     1       2.245   6.839  19.114  0.00  0.00    +0.000 A 
ATOM      2  C   UNL     1       1.863   7.111  20.415  0.00  0.00    +0.000 A 
ATOM      3  C   UNL     1       1.328   8.360  20.765  0.00  0.00    +0.000 A 
ATOM      4  C   UNL     1       1.276   9.390  19.815  0.00  0.00    +0.000 A 
ATOM      5  C   UNL     1       1.838   9.082  18.575  0.00  0.00    +0.000 A 
ATOM      6  N   UNL     1       2.202   7.835  18.215  0.00  0.00    +0.000 NA
ATOM      7  C   UNL     1       2.162  10.122  17.536  0.00  0.00    +0.000 C 
ATOM      8  C   UNL     1       2.199  11.518  18.133  0.00  0.00    +0.000 C 
ATOM      9  C   UNL     1       0.880  11.743  18.857  0.00  0.00    +0.000 C 
ATOM     10  C   UNL     1       0.733  10.781  20.061  0.00  0.00    +0.000 C 
ENDROOT
BRANCH   1  16
ATOM     11  C   UNL     1       3.915   5.517  17.701  0.00  0.00    +0.000 A 
ATOM     12  C   UNL     1       4.491   4.292  17.319  0.00  0.00    +0.000 A 
ATOM     13  C   UNL     1       3.997   3.090  17.790  0.00  0.00    +0.000 A 
ATOM     14  C   UNL     1       2.893   3.075  18.628  0.00  0.00    +0.000 A 
ATOM     15  C   UNL     1       2.247   4.262  19.030  0.00  0.00    +0.000 A 
ATOM     16  C   UNL     1       2.790   5.531  18.618  0.00  0.00    +0.000 A 
BRANCH  11  18
ATOM     17  C   UNL     1       6.021   6.927  16.995  0.00  0.00    +0.000 C 
ATOM     18  C   UNL     1       4.505   6.802  17.112  0.00  0.00    +0.000 C 
ENDBRANCH  11  18
BRANCH  15  19
ATOM     19  C   UNL     1       1.043   4.123  19.958  0.00  0.00    +0.000 C 
ATOM     20  C   UNL     1       1.057   3.034  21.030  0.00  0.00    +0.000 C 
ENDBRANCH  15  19
ENDBRANCH   1  16
BRANCH   3  21
ATOM     21  O   UNL     1       0.827   8.357  22.040  0.00  0.00    +0.000 OA
ATOM     22  C   UNL     1       1.410   9.234  22.989  0.00  0.00    +0.000 C 
ENDBRANCH   3  21
BRANCH  10  23
ATOM     23  N   UNL     1      -0.689  10.701  20.417  0.00  0.00    +0.000 N 
ATOM     24  H   UNL     1      -1.240  10.235  19.703  0.00  0.00    +0.000 HD
BRANCH  23  25
ATOM     25  C   UNL     1      -1.375  11.705  21.109  0.00  0.00    +0.000 A 
ATOM     26  C   UNL     1      -1.059  11.978  22.459  0.00  0.00    +0.000 A 
ATOM     27  C   UNL     1      -1.787  12.873  23.245  0.00  0.00    +0.000 A 
ATOM     28  C   UNL     1      -2.854  13.557  22.695  0.00  0.00    +0.000 A 
ATOM     29  C   UNL     1      -3.211  13.309  21.376  0.00  0.00    +0.000 A 
ATOM     30  C   UNL     1      -2.513  12.370  20.583  0.00  0.00    +0.000 A 
BRANCH  30  31
ATOM     31  C   UNL     1      -3.163  12.094  19.267  0.00  0.00    +0.000 C 
ATOM     32  C   UNL     1      -4.659  12.088  19.122  0.00  0.00    +0.000 C 
ATOM     33  O   UNL     1      -2.456  11.803  18.293  0.00  0.00    +0.000 OA
ENDBRANCH  30  31
ENDBRANCH  23  25
ENDBRANCH  10  23
TORSDOF 7
ENDMDL
MODEL 9
REMARK VINA RESULT:      -7.3      3.811      7.589
REMARK  Name = 
REMARK  11 active torsions:
REMARK  status: ('A' for Active; 'I' for Inactive)
REMARK    1  A    between atoms: C_1  and  C_2
REMARK    2  A    between atoms: C_2  and  C_3
REMARK    3  A    between atoms: C_7  and  C_8
REMARK    4  A    between atoms: C_8  and  C_9
REMARK    5  A    between atoms: C_10  and  C_11
REMARK    6  A    between atoms: C_13  and  O_14
REMARK    7  A    between atoms: O_14  and  C_15
REMARK    8  A    between atoms: C_22  and  N_23
REMARK    9  A    between atoms: N_23  and  C_24
REMARK   10  A    between atoms: C_29  and  C_30
REMARK   11  A    between atoms: C_30  and  C_31
REMARK                            x       y       z     vdW  Elec       q    Type
REMARK                         _______ _______ _______ _____ _____    ______ ____
ROOT
ATOM      1  C   UNL     1      -1.747  12.040  19.936  0.00  0.00    +0.000 A 
ATOM      2  C   UNL     1      -1.392  11.466  21.143  0.00  0.00    +0.000 A 
ATOM      3  C   UNL     1      -1.091  12.259  22.260  0.00  0.00    +0.000 A 
ATOM      4  C   UNL     1      -1.040  13.655  22.134  0.00  0.00    +0.000 A 
ATOM      5  C   UNL     1      -1.245  14.141  20.842  0.00  0.00    +0.000 A 
ATOM      6  N   UNL     1      -1.684  13.376  19.823  0.00  0.00    +0.000 NA
ATOM      7  C   UNL     1      -0.930  15.556  20.435  0.00  0.00    +0.000 C 
ATOM      8  C   UNL     1      -0.011  16.235  21.434  0.00  0.00    +0.000 C 
ATOM      9  C   UNL     1      -0.649  16.106  22.808  0.00  0.00    +0.000 C 
ATOM     10  C   UNL     1      -0.722  14.624  23.252  0.00  0.00    +0.000 C 
ENDROOT
BRANCH   1  16
ATOM     11  C   UNL     1      -1.133  10.502  17.989  0.00  0.00    +0.000 A 
ATOM     12  C   UNL     1      -1.514   9.721  16.883  0.00  0.00    +0.000 A 
ATOM     13  C   UNL     1      -2.822   9.702  16.436  0.00  0.00    +0.000 A 
ATOM     14  C   UNL     1      -3.779  10.487  17.058  0.00  0.00    +0.000 A 
ATOM     15  C   UNL     1      -3.464  11.316  18.155  0.00  0.00    +0.000 A 
ATOM     16  C   UNL     1      -2.126  11.294  18.690  0.00  0.00    +0.000 A 
BRANCH  11  18
ATOM     17  C   UNL     1       1.228   9.342  17.926  0.00  0.00    +0.000 C 
ATOM     18  C   UNL     1       0.342  10.489  18.402  0.00  0.00    +0.000 C 
ENDBRANCH  11  18
BRANCH  15  19
ATOM     19  C   UNL     1      -4.601  12.133  18.762  0.00  0.00    +0.000 C 
ATOM     20  C   UNL     1      -6.019  11.566  18.733  0.00  0.00    +0.000 C 
ENDBRANCH  15  19
ENDBRANCH   1  16
BRANCH   3  21
ATOM     21  O   UNL     1      -0.968  11.507  23.398  0.00  0.00    +0.000 OA
ATOM     22  C   UNL     1      -0.780  10.109  23.259  0.00  0.00    +0.000 C 
ENDBRANCH   3  21
BRANCH  10  23
ATOM     23  N   UNL     1      -1.733  14.508  24.310  0.00  0.00    +0.000 N 
ATOM     24  H   UNL     1      -1.784  13.570  24.694  0.00  0.00    +0.000 HD
BRANCH  23  25
ATOM     25  C   UNL     1      -2.953  15.192  24.299  0.00  0.00    +0.000 A 
ATOM     26  C   UNL     1      -3.048  16.481  24.871  0.00  0.00    +0.000 A 
ATOM     27  C   UNL     1      -4.258  17.165  25.008  0.00  0.00    +0.000 A 
ATOM     28  C   UNL     1      -5.427  16.589  24.548  0.00  0.00    +0.000 A 
ATOM     29  C   UNL     1      -5.383  15.317  23.993  0.00  0.00    +0.000 A 
ATOM     30  C   UNL     1      -4.173  14.594  23.892  0.00  0.00    +0.000 A 
BRANCH  30  31
ATOM     31  C   UNL     1      -4.355  13.176  23.457  0.00  0.00    +0.000 C 
ATOM     32  C   UNL     1      -4.937  12.841  22.112  0.00  0.00    +0.000 C 
ATOM     33  O   UNL     1      -4.080  12.262  24.245  0.00  0.00    +0.000 OA
ENDBRANCH  30  31
ENDBRANCH  23  25
ENDBRANCH  10  23
TORSDOF 7
ENDMDL
