MODEL 1
REMARK VINA RESULT:      -7.3      0.000      0.000
REMARK  Name = 
REMARK  12 active torsions:
REMARK  status: ('A' for Active; 'I' for Inactive)
REMARK    1  A    between atoms: C_1  and  O_2
REMARK    2  A    between atoms: O_2  and  C_3
REMARK    3  A    between atoms: C_6  and  C_7
REMARK    4  A    between atoms: C_7  and  N_8
REMARK    5  A    between atoms: C_12  and  C_13
REMARK    6  A    between atoms: C_15  and  O_16
REMARK    7  A    between atoms: O_16  and  C_17
REMARK    8  A    between atoms: C_18  and  O_19
REMARK    9  A    between atoms: O_19  and  C_20
REMARK   10  A    between atoms: C_21  and  O_22
REMARK   11  A    between atoms: O_22  and  C_23
REMARK   12  A    between atoms: C_33  and  N_34
REMARK                            x       y       z     vdW  Elec       q    Type
REMARK                         _______ _______ _______ _____ _____    ______ ____
ROOT
ATOM      1  N   UNL     1       0.477  11.697  20.267  0.00  0.00    +0.000 N 
ATOM      2  C   UNL     1       1.703  12.330  20.386  0.00  0.00    +0.000 A 
ATOM      3  C   UNL     1       1.561  13.579  19.858  0.00  0.00    +0.000 A 
ATOM      4  C   UNL     1       0.246  13.717  19.352  0.00  0.00    +0.000 A 
ATOM      5  C   UNL     1      -0.442  12.532  19.625  0.00  0.00    +0.000 A 
ATOM      6  C   UNL     1      -0.182  14.964  18.615  0.00  0.00    +0.000 C 
ATOM      7  C   UNL     1       0.601  16.223  19.058  0.00  0.00    +0.000 C 
ATOM      8  C   UNL     1       2.036  15.933  19.346  0.00  0.00    +0.000 A 
ATOM      9  C   UNL     1       3.185  16.744  19.349  0.00  0.00    +0.000 A 
ATOM     10  N   UNL     1       4.267  16.075  19.755  0.00  0.00    +0.000 NA
ATOM     11  O   UNL     1       3.828  14.780  20.031  0.00  0.00    +0.000 OA
ATOM     12  C   UNL     1       2.505  14.705  19.763  0.00  0.00    +0.000 A 
ENDROOT
BRANCH   5  13
ATOM     13  C   UNL     1      -1.847  12.213  19.317  0.00  0.00    +0.000 A 
ATOM     14  C   UNL     1      -2.147  11.466  18.178  0.00  0.00    +0.000 A 
ATOM     15  C   UNL     1      -3.468  11.257  17.766  0.00  0.00    +0.000 A 
ATOM     16  C   UNL     1      -4.533  11.756  18.546  0.00  0.00    +0.000 A 
ATOM     17  C   UNL     1      -4.250  12.474  19.723  0.00  0.00    +0.000 A 
ATOM     18  C   UNL     1      -2.912  12.714  20.066  0.00  0.00    +0.000 A 
BRANCH  15  19
ATOM     19  O   UNL     1      -3.794  10.602  16.602  0.00  0.00    +0.000 OA
ATOM     20  C   UNL     1      -2.957  10.848  15.477  0.00  0.00    +0.000 C 
ENDBRANCH  15  19
BRANCH  16  21
ATOM     21  O   UNL     1      -5.789  11.566  18.017  0.00  0.00    +0.000 OA
ATOM     22  C   UNL     1      -6.581  10.542  18.603  0.00  0.00    +0.000 C 
ENDBRANCH  16  21
BRANCH  17  23
ATOM     23  O   UNL     1      -5.297  12.964  20.463  0.00  0.00    +0.000 OA
ATOM     24  C   UNL     1      -5.283  12.741  21.871  0.00  0.00    +0.000 C 
ENDBRANCH  17  23
ENDBRANCH   5  13
BRANCH   1  25
ATOM     25  C   UNL     1       0.257  10.333  20.748  0.00  0.00    +0.000 C 
BRANCH  25  29
ATOM     26  C   UNL     1       2.450   7.379  18.452  0.00  0.00    +0.000 A 
ATOM     27  C   UNL     1       1.945   8.533  17.848  0.00  0.00    +0.000 A 
ATOM     28  C   UNL     1       1.251   9.480  18.607  0.00  0.00    +0.000 A 
ATOM     29  C   UNL     1       1.009   9.269  19.972  0.00  0.00    +0.000 A 
ATOM     30  C   UNL     1       1.466   8.069  20.546  0.00  0.00    +0.000 A 
ATOM     31  C   UNL     1       2.223   7.147  19.818  0.00  0.00    +0.000 A 
BRANCH  31  32
ATOM     32  N   UNL     1       2.567   5.922  20.418  0.00  0.00    +0.000 N 
ATOM     33  H   UNL     1       1.881   5.188  20.280  0.00  0.00    +0.000 HD
ATOM     34  H   UNL     1       2.825   6.050  21.394  0.00  0.00    +0.000 HD
ENDBRANCH  31  32
BRANCH  26  36
ATOM     35  C   UNL     1       4.484   6.827  17.398  0.00  0.00    +0.000 C 
ATOM     36  O   UNL     1       3.173   6.421  17.780  0.00  0.00    +0.000 OA
ENDBRANCH  26  36
ENDBRANCH  25  29
ENDBRANCH   1  25
TORSDOF 8
ENDMDL
MODEL 2
REMARK VINA RESULT:      -7.3      0.383      2.265
REMARK  Name = 
REMARK  12 active torsions:
REMARK  status: ('A' for Active; 'I' for Inactive)
REMARK    1  A    between atoms: C_1  and  O_2
REMARK    2  A    between atoms: O_2  and  C_3
REMARK    3  A    between atoms: C_6  and  C_7
REMARK    4  A    between atoms: C_7  and  N_8
REMARK    5  A    between atoms: C_12  and  C_13
REMARK    6  A    between atoms: C_15  and  O_16
REMARK    7  A    between atoms: O_16  and  C_17
REMARK    8  A    between atoms: C_18  and  O_19
REMARK    9  A    between atoms: O_19  and  C_20
REMARK   10  A    between atoms: C_21  and  O_22
REMARK   11  A    between atoms: O_22  and  C_23
REMARK   12  A    between atoms: C_33  and  N_34
REMARK                            x       y       z     vdW  Elec       q    Type
REMARK                         _______ _______ _______ _____ _____    ______ ____
ROOT
ATOM      1  N   UNL     1       0.388  11.744  20.191  0.00  0.00    +0.000 N 
ATOM      2  C   UNL     1       1.622  12.338  20.392  0.00  0.00    +0.000 A 
ATOM      3  C   UNL     1       1.543  13.603  19.891  0.00  0.00    +0.000 A 
ATOM      4  C   UNL     1       0.263  13.791  19.316  0.00  0.00    +0.000 A 
ATOM      5  C   UNL     1      -0.472  12.620  19.521  0.00  0.00    +0.000 A 
ATOM      6  C   UNL     1      -0.090  15.067  18.590  0.00  0.00    +0.000 C 
ATOM      7  C   UNL     1       0.701  16.293  19.107  0.00  0.00    +0.000 C 
ATOM      8  C   UNL     1       2.110  15.955  19.466  0.00  0.00    +0.000 A 
ATOM      9  C   UNL     1       3.279  16.733  19.553  0.00  0.00    +0.000 A 
ATOM     10  N   UNL     1       4.318  16.023  20.000  0.00  0.00    +0.000 NA
ATOM     11  O   UNL     1       3.829  14.734  20.218  0.00  0.00    +0.000 OA
ATOM     12  C   UNL     1       2.521  14.704  19.876  0.00  0.00    +0.000 A 
ENDROOT
BRANCH   5  13
ATOM     13  C   UNL     1      -1.865  12.348  19.128  0.00  0.00    +0.000 A 
ATOM     14  C   UNL     1      -2.898  12.636  20.020  0.00  0.00    +0.000 A 
ATOM     15  C   UNL     1      -4.221  12.267  19.752  0.00  0.00    +0.000 A 
ATOM     16  C   UNL     1      -4.540  11.644  18.527  0.00  0.00    +0.000 A 
ATOM     17  C   UNL     1      -3.518  11.386  17.596  0.00  0.00    +0.000 A 
ATOM     18  C   UNL     1      -2.196  11.715  17.930  0.00  0.00    +0.000 A 
BRANCH  15  19
ATOM     19  O   UNL     1      -5.247  12.457  20.648  0.00  0.00    +0.000 OA
ATOM     20  C   UNL     1      -4.879  12.869  21.960  0.00  0.00    +0.000 C 
ENDBRANCH  15  19
BRANCH  16  21
ATOM     21  O   UNL     1      -5.853  11.250  18.391  0.00  0.00    +0.000 OA
ATOM     22  C   UNL     1      -6.714  12.132  17.685  0.00  0.00    +0.000 C 
ENDBRANCH  16  21
BRANCH  17  23
ATOM     23  O   UNL     1      -3.843  10.766  16.415  0.00  0.00    +0.000 OA
ATOM     24  C   UNL     1      -2.844  10.694  15.400  0.00  0.00    +0.000 C 
ENDBRANCH  17  23
ENDBRANCH   5  13
BRANCH   1  25
ATOM     25  C   UNL     1       0.105  10.375  20.623  0.00  0.00    +0.000 C 
BRANCH  25  29
ATOM     26  C   UNL     1       2.471   7.427  18.497  0.00  0.00    +0.000 A 
ATOM     27  C   UNL     1       1.938   8.538  17.837  0.00  0.00    +0.000 A 
ATOM     28  C   UNL     1       1.188   9.484  18.542  0.00  0.00    +0.000 A 
ATOM     29  C   UNL     1       0.918   9.314  19.907  0.00  0.00    +0.000 A 
ATOM     30  C   UNL     1       1.404   8.155  20.537  0.00  0.00    +0.000 A 
ATOM     31  C   UNL     1       2.216   7.237  19.865  0.00  0.00    +0.000 A 
BRANCH  31  32
ATOM     32  N   UNL     1       2.590   6.049  20.519  0.00  0.00    +0.000 N 
ATOM     33  H   UNL     1       3.555   6.036  20.832  0.00  0.00    +0.000 HD
ATOM     34  H   UNL     1       2.338   5.231  19.968  0.00  0.00    +0.000 HD
ENDBRANCH  31  32
BRANCH  26  36
ATOM     35  C   UNL     1       4.399   6.987  17.216  0.00  0.00    +0.000 C 
ATOM     36  O   UNL     1       3.248   6.474  17.880  0.00  0.00    +0.000 OA
ENDBRANCH  26  36
ENDBRANCH  25  29
ENDBRANCH   1  25
TORSDOF 8
ENDMDL
MODEL 3
REMARK VINA RESULT:      -6.8      2.590      3.413
REMARK  Name = 
REMARK  12 active torsions:
REMARK  status: ('A' for Active; 'I' for Inactive)
REMARK    1  A    between atoms: C_1  and  O_2
REMARK    2  A    between atoms: O_2  and  C_3
REMARK    3  A    between atoms: C_6  and  C_7
REMARK    4  A    between atoms: C_7  and  N_8
REMARK    5  A    between atoms: C_12  and  C_13
REMARK    6  A    between atoms: C_15  and  O_16
REMARK    7  A    between atoms: O_16  and  C_17
REMARK    8  A    between atoms: C_18  and  O_19
REMARK    9  A    between atoms: O_19  and  C_20
REMARK   10  A    between atoms: C_21  and  O_22
REMARK   11  A    between atoms: O_22  and  C_23
REMARK   12  A    between atoms: C_33  and  N_34
REMARK                            x       y       z     vdW  Elec       q    Type
REMARK                         _______ _______ _______ _____ _____    ______ ____
ROOT
ATOM      1  N   UNL     1       1.351  12.230  18.784  0.00  0.00    +0.000 N 
ATOM      2  C   UNL     1       2.518  12.666  18.181  0.00  0.00    +0.000 A 
ATOM      3  C   UNL     1       2.956  13.744  18.891  0.00  0.00    +0.000 A 
ATOM      4  C   UNL     1       2.025  14.026  19.920  0.00  0.00    +0.000 A 
ATOM      5  C   UNL     1       1.019  13.058  19.861  0.00  0.00    +0.000 A 
ATOM      6  C   UNL     1       2.188  15.231  20.815  0.00  0.00    +0.000 C 
ATOM      7  C   UNL     1       3.666  15.658  20.986  0.00  0.00    +0.000 C 
ATOM      8  C   UNL     1       4.457  15.497  19.730  0.00  0.00    +0.000 A 
ATOM      9  C   UNL     1       5.634  16.112  19.266  0.00  0.00    +0.000 A 
ATOM     10  N   UNL     1       6.041  15.595  18.104  0.00  0.00    +0.000 NA
ATOM     11  O   UNL     1       5.110  14.606  17.784  0.00  0.00    +0.000 OA
ATOM     12  C   UNL     1       4.163  14.575  18.748  0.00  0.00    +0.000 A 
ENDROOT
BRANCH   5  13
ATOM     13  C   UNL     1      -0.151  12.916  20.745  0.00  0.00    +0.000 A 
ATOM     14  C   UNL     1      -0.124  11.976  21.775  0.00  0.00    +0.000 A 
ATOM     15  C   UNL     1      -1.257  11.706  22.549  0.00  0.00    +0.000 A 
ATOM     16  C   UNL     1      -2.444  12.437  22.335  0.00  0.00    +0.000 A 
ATOM     17  C   UNL     1      -2.477  13.422  21.331  0.00  0.00    +0.000 A 
ATOM     18  C   UNL     1      -1.338  13.618  20.535  0.00  0.00    +0.000 A 
BRANCH  15  19
ATOM     19  O   UNL     1      -1.289  10.724  23.512  0.00  0.00    +0.000 OA
ATOM     20  C   UNL     1      -0.388   9.635  23.340  0.00  0.00    +0.000 C 
ENDBRANCH  15  19
BRANCH  16  21
ATOM     21  O   UNL     1      -3.523  12.044  23.093  0.00  0.00    +0.000 OA
ATOM     22  C   UNL     1      -3.842  12.853  24.218  0.00  0.00    +0.000 C 
ENDBRANCH  16  21
BRANCH  17  23
ATOM     23  O   UNL     1      -3.643  14.116  21.125  0.00  0.00    +0.000 OA
ATOM     24  C   UNL     1      -3.609  15.535  21.259  0.00  0.00    +0.000 C 
ENDBRANCH  17  23
ENDBRANCH   5  13
BRANCH   1  25
ATOM     25  C   UNL     1       0.608  11.070  18.291  0.00  0.00    +0.000 C 
BRANCH  25  29
ATOM     26  C   UNL     1       2.516   7.273  19.160  0.00  0.00    +0.000 A 
ATOM     27  C   UNL     1       2.572   7.833  17.881  0.00  0.00    +0.000 A 
ATOM     28  C   UNL     1       1.961   9.064  17.623  0.00  0.00    +0.000 A 
ATOM     29  C   UNL     1       1.244   9.734  18.625  0.00  0.00    +0.000 A 
ATOM     30  C   UNL     1       1.141   9.120  19.886  0.00  0.00    +0.000 A 
ATOM     31  C   UNL     1       1.807   7.927  20.180  0.00  0.00    +0.000 A 
BRANCH  31  32
ATOM     32  N   UNL     1       1.587   7.312  21.426  0.00  0.00    +0.000 N 
ATOM     33  H   UNL     1       1.856   6.334  21.457  0.00  0.00    +0.000 HD
ATOM     34  H   UNL     1       0.637   7.475  21.754  0.00  0.00    +0.000 HD
ENDBRANCH  31  32
BRANCH  26  36
ATOM     35  C   UNL     1       2.668   4.955  18.761  0.00  0.00    +0.000 C 
ATOM     36  O   UNL     1       3.122   6.086  19.499  0.00  0.00    +0.000 OA
ENDBRANCH  26  36
ENDBRANCH  25  29
ENDBRANCH   1  25
TORSDOF 8
ENDMDL
MODEL 4
REMARK VINA RESULT:      -6.8      1.193      2.598
REMARK  Name = 
REMARK  12 active torsions:
REMARK  status: ('A' for Active; 'I' for Inactive)
REMARK    1  A    between atoms: C_1  and  O_2
REMARK    2  A    between atoms: O_2  and  C_3
REMARK    3  A    between atoms: C_6  and  C_7
REMARK    4  A    between atoms: C_7  and  N_8
REMARK    5  A    between atoms: C_12  and  C_13
REMARK    6  A    between atoms: C_15  and  O_16
REMARK    7  A    between atoms: O_16  and  C_17
REMARK    8  A    between atoms: C_18  and  O_19
REMARK    9  A    between atoms: O_19  and  C_20
REMARK   10  A    between atoms: C_21  and  O_22
REMARK   11  A    between atoms: O_22  and  C_23
REMARK   12  A    between atoms: C_33  and  N_34
REMARK                            x       y       z     vdW  Elec       q    Type
REMARK                         _______ _______ _______ _____ _____    ______ ____
ROOT
ATOM      1  N   UNL     1       0.462  11.712  19.876  0.00  0.00    +0.000 N 
ATOM      2  C   UNL     1       1.717  12.113  19.453  0.00  0.00    +0.000 A 
ATOM      3  C   UNL     1       1.605  13.408  19.040  0.00  0.00    +0.000 A 
ATOM      4  C   UNL     1       0.253  13.811  19.152  0.00  0.00    +0.000 A 
ATOM      5  C   UNL     1      -0.466  12.742  19.695  0.00  0.00    +0.000 A 
ATOM      6  C   UNL     1      -0.202  15.169  18.674  0.00  0.00    +0.000 C 
ATOM      7  C   UNL     1       0.918  16.235  18.736  0.00  0.00    +0.000 C 
ATOM      8  C   UNL     1       2.257  15.680  18.375  0.00  0.00    +0.000 A 
ATOM      9  C   UNL     1       3.430  16.280  17.882  0.00  0.00    +0.000 A 
ATOM     10  N   UNL     1       4.432  15.404  17.779  0.00  0.00    +0.000 NA
ATOM     11  O   UNL     1       3.914  14.185  18.217  0.00  0.00    +0.000 OA
ATOM     12  C   UNL     1       2.614  14.360  18.548  0.00  0.00    +0.000 A 
ENDROOT
BRANCH   5  13
ATOM     13  C   UNL     1      -1.901  12.695  20.024  0.00  0.00    +0.000 A 
ATOM     14  C   UNL     1      -2.329  13.095  21.290  0.00  0.00    +0.000 A 
ATOM     15  C   UNL     1      -3.658  12.935  21.698  0.00  0.00    +0.000 A 
ATOM     16  C   UNL     1      -4.611  12.416  20.797  0.00  0.00    +0.000 A 
ATOM     17  C   UNL     1      -4.207  12.049  19.500  0.00  0.00    +0.000 A 
ATOM     18  C   UNL     1      -2.854  12.166  19.152  0.00  0.00    +0.000 A 
BRANCH  15  19
ATOM     19  O   UNL     1      -4.092  13.236  22.968  0.00  0.00    +0.000 OA
ATOM     20  C   UNL     1      -3.626  12.394  24.017  0.00  0.00    +0.000 C 
ENDBRANCH  15  19
BRANCH  16  21
ATOM     21  O   UNL     1      -5.871  12.225  21.317  0.00  0.00    +0.000 OA
ATOM     22  C   UNL     1      -6.846  13.212  21.007  0.00  0.00    +0.000 C 
ENDBRANCH  16  21
BRANCH  17  23
ATOM     23  O   UNL     1      -5.143  11.533  18.639  0.00  0.00    +0.000 OA
ATOM     24  C   UNL     1      -4.962  11.754  17.242  0.00  0.00    +0.000 C 
ENDBRANCH  17  23
ENDBRANCH   5  13
BRANCH   1  25
ATOM     25  C   UNL     1       0.211  10.370  20.403  0.00  0.00    +0.000 C 
BRANCH  25  29
ATOM     26  C   UNL     1       2.578   7.326  18.418  0.00  0.00    +0.000 A 
ATOM     27  C   UNL     1       2.064   8.416  17.711  0.00  0.00    +0.000 A 
ATOM     28  C   UNL     1       1.313   9.394  18.370  0.00  0.00    +0.000 A 
ATOM     29  C   UNL     1       1.024   9.277  19.737  0.00  0.00    +0.000 A 
ATOM     30  C   UNL     1       1.492   8.138  20.416  0.00  0.00    +0.000 A 
ATOM     31  C   UNL     1       2.305   7.189  19.789  0.00  0.00    +0.000 A 
BRANCH  31  32
ATOM     32  N   UNL     1       2.661   6.023  20.491  0.00  0.00    +0.000 N 
ATOM     33  H   UNL     1       2.310   5.167  20.074  0.00  0.00    +0.000 HD
ATOM     34  H   UNL     1       2.436   6.107  21.480  0.00  0.00    +0.000 HD
ENDBRANCH  31  32
BRANCH  26  36
ATOM     35  C   UNL     1       4.485   6.828  17.127  0.00  0.00    +0.000 C 
ATOM     36  O   UNL     1       3.355   6.345  17.847  0.00  0.00    +0.000 OA
ENDBRANCH  26  36
ENDBRANCH  25  29
ENDBRANCH   1  25
TORSDOF 8
ENDMDL
MODEL 5
REMARK VINA RESULT:      -6.8      0.956      1.070
REMARK  Name = 
REMARK  12 active torsions:
REMARK  status: ('A' for Active; 'I' for Inactive)
REMARK    1  A    between atoms: C_1  and  O_2
REMARK    2  A    between atoms: O_2  and  C_3
REMARK    3  A    between atoms: C_6  and  C_7
REMARK    4  A    between atoms: C_7  and  N_8
REMARK    5  A    between atoms: C_12  and  C_13
REMARK    6  A    between atoms: C_15  and  O_16
REMARK    7  A    between atoms: O_16  and  C_17
REMARK    8  A    between atoms: C_18  and  O_19
REMARK    9  A    between atoms: O_19  and  C_20
REMARK   10  A    between atoms: C_21  and  O_22
REMARK   11  A    between atoms: O_22  and  C_23
REMARK   12  A    between atoms: C_33  and  N_34
REMARK                            x       y       z     vdW  Elec       q    Type
REMARK                         _______ _______ _______ _____ _____    ______ ____
ROOT
ATOM      1  N   UNL     1       0.484  11.810  20.017  0.00  0.00    +0.000 N 
ATOM      2  C   UNL     1       1.759  12.279  19.759  0.00  0.00    +0.000 A 
ATOM      3  C   UNL     1       1.630  13.555  19.296  0.00  0.00    +0.000 A 
ATOM      4  C   UNL     1       0.254  13.875  19.209  0.00  0.00    +0.000 A 
ATOM      5  C   UNL     1      -0.469  12.776  19.680  0.00  0.00    +0.000 A 
ATOM      6  C   UNL     1      -0.209  15.192  18.632  0.00  0.00    +0.000 C 
ATOM      7  C   UNL     1       0.828  16.326  18.815  0.00  0.00    +0.000 C 
ATOM      8  C   UNL     1       2.233  15.849  18.658  0.00  0.00    +0.000 A 
ATOM      9  C   UNL     1       3.426  16.509  18.313  0.00  0.00    +0.000 A 
ATOM     10  N   UNL     1       4.483  15.695  18.375  0.00  0.00    +0.000 NA
ATOM     11  O   UNL     1       3.982  14.456  18.775  0.00  0.00    +0.000 OA
ATOM     12  C   UNL     1       2.641  14.557  18.918  0.00  0.00    +0.000 A 
ENDROOT
BRANCH   5  13
ATOM     13  C   UNL     1      -1.931  12.646  19.810  0.00  0.00    +0.000 A 
ATOM     14  C   UNL     1      -2.635  11.862  18.897  0.00  0.00    +0.000 A 
ATOM     15  C   UNL     1      -4.033  11.820  18.892  0.00  0.00    +0.000 A 
ATOM     16  C   UNL     1      -4.759  12.535  19.867  0.00  0.00    +0.000 A 
ATOM     17  C   UNL     1      -4.065  13.296  20.826  0.00  0.00    +0.000 A 
ATOM     18  C   UNL     1      -2.666  13.361  20.757  0.00  0.00    +0.000 A 
BRANCH  15  19
ATOM     19  O   UNL     1      -4.758  11.128  17.949  0.00  0.00    +0.000 OA
ATOM     20  C   UNL     1      -4.663  11.592  16.607  0.00  0.00    +0.000 C 
ENDBRANCH  15  19
BRANCH  16  21
ATOM     21  O   UNL     1      -6.128  12.493  19.731  0.00  0.00    +0.000 OA
ATOM     22  C   UNL     1      -6.832  11.627  20.611  0.00  0.00    +0.000 C 
ENDBRANCH  16  21
BRANCH  17  23
ATOM     23  O   UNL     1      -4.787  13.996  21.760  0.00  0.00    +0.000 OA
ATOM     24  C   UNL     1      -4.630  13.639  23.131  0.00  0.00    +0.000 C 
ENDBRANCH  17  23
ENDBRANCH   5  13
BRANCH   1  25
ATOM     25  C   UNL     1       0.241  10.467  20.546  0.00  0.00    +0.000 C 
BRANCH  25  29
ATOM     26  C   UNL     1       2.483   7.412  18.436  0.00  0.00    +0.000 A 
ATOM     27  C   UNL     1       1.939   8.506  17.758  0.00  0.00    +0.000 A 
ATOM     28  C   UNL     1       1.230   9.487  18.457  0.00  0.00    +0.000 A 
ATOM     29  C   UNL     1       1.012   9.370  19.837  0.00  0.00    +0.000 A 
ATOM     30  C   UNL     1       1.508   8.227  20.489  0.00  0.00    +0.000 A 
ATOM     31  C   UNL     1       2.281   7.275  19.819  0.00  0.00    +0.000 A 
BRANCH  31  32
ATOM     32  N   UNL     1       2.666   6.105  20.500  0.00  0.00    +0.000 N 
ATOM     33  H   UNL     1       3.653   5.886  20.417  0.00  0.00    +0.000 HD
ATOM     34  H   UNL     1       2.061   5.323  20.259  0.00  0.00    +0.000 HD
ENDBRANCH  31  32
BRANCH  26  36
ATOM     35  C   UNL     1       4.379   6.895  17.136  0.00  0.00    +0.000 C 
ATOM     36  O   UNL     1       3.223   6.428  17.824  0.00  0.00    +0.000 OA
ENDBRANCH  26  36
ENDBRANCH  25  29
ENDBRANCH   1  25
TORSDOF 8
ENDMDL
MODEL 6
REMARK VINA RESULT:      -6.7      2.643      3.498
REMARK  Name = 
REMARK  12 active torsions:
REMARK  status: ('A' for Active; 'I' for Inactive)
REMARK    1  A    between atoms: C_1  and  O_2
REMARK    2  A    between atoms: O_2  and  C_3
REMARK    3  A    between atoms: C_6  and  C_7
REMARK    4  A    between atoms: C_7  and  N_8
REMARK    5  A    between atoms: C_12  and  C_13
REMARK    6  A    between atoms: C_15  and  O_16
REMARK    7  A    between atoms: O_16  and  C_17
REMARK    8  A    between atoms: C_18  and  O_19
REMARK    9  A    between atoms: O_19  and  C_20
REMARK   10  A    between atoms: C_21  and  O_22
REMARK   11  A    between atoms: O_22  and  C_23
REMARK   12  A    between atoms: C_33  and  N_34
REMARK                            x       y       z     vdW  Elec       q    Type
REMARK                         _______ _______ _______ _____ _____    ______ ____
ROOT
ATOM      1  N   UNL     1       1.326  12.154  18.821  0.00  0.00    +0.000 N 
ATOM      2  C   UNL     1       2.493  12.586  18.216  0.00  0.00    +0.000 A 
ATOM      3  C   UNL     1       2.902  13.701  18.885  0.00  0.00    +0.000 A 
ATOM      4  C   UNL     1       1.952  14.008  19.890  0.00  0.00    +0.000 A 
ATOM      5  C   UNL     1       0.965  13.020  19.858  0.00  0.00    +0.000 A 
ATOM      6  C   UNL     1       2.081  15.252  20.736  0.00  0.00    +0.000 C 
ATOM      7  C   UNL     1       3.549  15.713  20.908  0.00  0.00    +0.000 C 
ATOM      8  C   UNL     1       4.360  15.515  19.670  0.00  0.00    +0.000 A 
ATOM      9  C   UNL     1       5.532  16.131  19.197  0.00  0.00    +0.000 A 
ATOM     10  N   UNL     1       5.965  15.574  18.063  0.00  0.00    +0.000 NA
ATOM     11  O   UNL     1       5.056  14.555  17.772  0.00  0.00    +0.000 OA
ATOM     12  C   UNL     1       4.096  14.547  18.724  0.00  0.00    +0.000 A 
ENDROOT
BRANCH   5  13
ATOM     13  C   UNL     1      -0.215  12.894  20.731  0.00  0.00    +0.000 A 
ATOM     14  C   UNL     1      -0.239  11.905  21.715  0.00  0.00    +0.000 A 
ATOM     15  C   UNL     1      -1.387  11.653  22.473  0.00  0.00    +0.000 A 
ATOM     16  C   UNL     1      -2.536  12.452  22.291  0.00  0.00    +0.000 A 
ATOM     17  C   UNL     1      -2.516  13.484  21.335  0.00  0.00    +0.000 A 
ATOM     18  C   UNL     1      -1.366  13.662  20.552  0.00  0.00    +0.000 A 
BRANCH  15  19
ATOM     19  O   UNL     1      -1.472  10.629  23.387  0.00  0.00    +0.000 OA
ATOM     20  C   UNL     1      -0.418   9.672  23.369  0.00  0.00    +0.000 C 
ENDBRANCH  15  19
BRANCH  16  21
ATOM     21  O   UNL     1      -3.637  12.077  23.027  0.00  0.00    +0.000 OA
ATOM     22  C   UNL     1      -3.897  12.818  24.211  0.00  0.00    +0.000 C 
ENDBRANCH  16  21
BRANCH  17  23
ATOM     23  O   UNL     1      -3.646  14.243  21.161  0.00  0.00    +0.000 OA
ATOM     24  C   UNL     1      -3.605  15.608  21.571  0.00  0.00    +0.000 C 
ENDBRANCH  17  23
ENDBRANCH   5  13
BRANCH   1  25
ATOM     25  C   UNL     1       0.611  10.961  18.367  0.00  0.00    +0.000 C 
BRANCH  25  29
ATOM     26  C   UNL     1       2.450   7.195  19.484  0.00  0.00    +0.000 A 
ATOM     27  C   UNL     1       1.646   7.901  20.383  0.00  0.00    +0.000 A 
ATOM     28  C   UNL     1       1.052   9.107  20.001  0.00  0.00    +0.000 A 
ATOM     29  C   UNL     1       1.287   9.653  18.731  0.00  0.00    +0.000 A 
ATOM     30  C   UNL     1       2.153   8.962  17.866  0.00  0.00    +0.000 A 
ATOM     31  C   UNL     1       2.697   7.719  18.205  0.00  0.00    +0.000 A 
BRANCH  31  32
ATOM     32  N   UNL     1       3.633   7.124  17.341  0.00  0.00    +0.000 N 
ATOM     33  H   UNL     1       3.962   6.216  17.651  0.00  0.00    +0.000 HD
ATOM     34  H   UNL     1       4.389   7.768  17.117  0.00  0.00    +0.000 HD
ENDBRANCH  31  32
BRANCH  26  36
ATOM     35  C   UNL     1       2.134   4.886  19.832  0.00  0.00    +0.000 C 
ATOM     36  O   UNL     1       3.037   5.986  19.775  0.00  0.00    +0.000 OA
ENDBRANCH  26  36
ENDBRANCH  25  29
ENDBRANCH   1  25
TORSDOF 8
ENDMDL
MODEL 7
REMARK VINA RESULT:      -6.7      1.014      1.342
REMARK  Name = 
REMARK  12 active torsions:
REMARK  status: ('A' for Active; 'I' for Inactive)
REMARK    1  A    between atoms: C_1  and  O_2
REMARK    2  A    between atoms: O_2  and  C_3
REMARK    3  A    between atoms: C_6  and  C_7
REMARK    4  A    between atoms: C_7  and  N_8
REMARK    5  A    between atoms: C_12  and  C_13
REMARK    6  A    between atoms: C_15  and  O_16
REMARK    7  A    between atoms: O_16  and  C_17
REMARK    8  A    between atoms: C_18  and  O_19
REMARK    9  A    between atoms: O_19  and  C_20
REMARK   10  A    between atoms: C_21  and  O_22
REMARK   11  A    between atoms: O_22  and  C_23
REMARK   12  A    between atoms: C_33  and  N_34
REMARK                            x       y       z     vdW  Elec       q    Type
REMARK                         _______ _______ _______ _____ _____    ______ ____
ROOT
ATOM      1  N   UNL     1       0.207  11.693  20.456  0.00  0.00    +0.000 N 
ATOM      2  C   UNL     1       1.455  12.276  20.588  0.00  0.00    +0.000 A 
ATOM      3  C   UNL     1       1.392  13.496  19.983  0.00  0.00    +0.000 A 
ATOM      4  C   UNL     1       0.107  13.662  19.414  0.00  0.00    +0.000 A 
ATOM      5  C   UNL     1      -0.647  12.528  19.728  0.00  0.00    +0.000 A 
ATOM      6  C   UNL     1      -0.234  14.879  18.587  0.00  0.00    +0.000 C 
ATOM      7  C   UNL     1       0.589  16.127  18.987  0.00  0.00    +0.000 C 
ATOM      8  C   UNL     1       1.997  15.792  19.353  0.00  0.00    +0.000 A 
ATOM      9  C   UNL     1       3.182  16.550  19.356  0.00  0.00    +0.000 A 
ATOM     10  N   UNL     1       4.215  15.859  19.845  0.00  0.00    +0.000 NA
ATOM     11  O   UNL     1       3.705  14.604  20.179  0.00  0.00    +0.000 OA
ATOM     12  C   UNL     1       2.391  14.572  19.860  0.00  0.00    +0.000 A 
ENDROOT
BRANCH   5  13
ATOM     13  C   UNL     1      -2.052  12.252  19.381  0.00  0.00    +0.000 A 
ATOM     14  C   UNL     1      -2.350  11.627  18.170  0.00  0.00    +0.000 A 
ATOM     15  C   UNL     1      -3.669  11.472  17.731  0.00  0.00    +0.000 A 
ATOM     16  C   UNL     1      -4.735  11.899  18.551  0.00  0.00    +0.000 A 
ATOM     17  C   UNL     1      -4.456  12.491  19.796  0.00  0.00    +0.000 A 
ATOM     18  C   UNL     1      -3.118  12.685  20.170  0.00  0.00    +0.000 A 
BRANCH  15  19
ATOM     19  O   UNL     1      -3.993  10.940  16.505  0.00  0.00    +0.000 OA
ATOM     20  C   UNL     1      -2.915  10.729  15.599  0.00  0.00    +0.000 C 
ENDBRANCH  15  19
BRANCH  16  21
ATOM     21  O   UNL     1      -5.990  11.773  17.998  0.00  0.00    +0.000 OA
ATOM     22  C   UNL     1      -6.808  10.726  18.501  0.00  0.00    +0.000 C 
ENDBRANCH  16  21
BRANCH  17  23
ATOM     23  O   UNL     1      -5.503  12.913  20.576  0.00  0.00    +0.000 OA
ATOM     24  C   UNL     1      -5.919  14.272  20.460  0.00  0.00    +0.000 C 
ENDBRANCH  17  23
ENDBRANCH   5  13
BRANCH   1  25
ATOM     25  C   UNL     1      -0.096  10.372  21.007  0.00  0.00    +0.000 C 
BRANCH  25  29
ATOM     26  C   UNL     1       2.311   7.093  19.501  0.00  0.00    +0.000 A 
ATOM     27  C   UNL     1       1.827   7.092  20.812  0.00  0.00    +0.000 A 
ATOM     28  C   UNL     1       1.043   8.152  21.276  0.00  0.00    +0.000 A 
ATOM     29  C   UNL     1       0.766   9.253  20.454  0.00  0.00    +0.000 A 
ATOM     30  C   UNL     1       1.319   9.268  19.161  0.00  0.00    +0.000 A 
ATOM     31  C   UNL     1       2.043   8.184  18.658  0.00  0.00    +0.000 A 
BRANCH  31  32
ATOM     32  N   UNL     1       2.653   8.298  17.395  0.00  0.00    +0.000 N 
ATOM     33  H   UNL     1       2.025   8.128  16.617  0.00  0.00    +0.000 HD
ATOM     34  H   UNL     1       3.507   7.745  17.348  0.00  0.00    +0.000 HD
ENDBRANCH  31  32
BRANCH  26  36
ATOM     35  C   UNL     1       2.676   4.768  19.393  0.00  0.00    +0.000 C 
ATOM     36  O   UNL     1       3.056   6.071  18.962  0.00  0.00    +0.000 OA
ENDBRANCH  26  36
ENDBRANCH  25  29
ENDBRANCH   1  25
TORSDOF 8
ENDMDL
MODEL 8
REMARK VINA RESULT:      -6.7      2.682      7.074
REMARK  Name = 
REMARK  12 active torsions:
REMARK  status: ('A' for Active; 'I' for Inactive)
REMARK    1  A    between atoms: C_1  and  O_2
REMARK    2  A    between atoms: O_2  and  C_3
REMARK    3  A    between atoms: C_6  and  C_7
REMARK    4  A    between atoms: C_7  and  N_8
REMARK    5  A    between atoms: C_12  and  C_13
REMARK    6  A    between atoms: C_15  and  O_16
REMARK    7  A    between atoms: O_16  and  C_17
REMARK    8  A    between atoms: C_18  and  O_19
REMARK    9  A    between atoms: O_19  and  C_20
REMARK   10  A    between atoms: C_21  and  O_22
REMARK   11  A    between atoms: O_22  and  C_23
REMARK   12  A    between atoms: C_33  and  N_34
REMARK                            x       y       z     vdW  Elec       q    Type
REMARK                         _______ _______ _______ _____ _____    ______ ____
ROOT
ATOM      1  N   UNL     1      -0.222  12.121  19.304  0.00  0.00    +0.000 N 
ATOM      2  C   UNL     1       0.531  11.174  18.632  0.00  0.00    +0.000 A 
ATOM      3  C   UNL     1       0.818  10.184  19.523  0.00  0.00    +0.000 A 
ATOM      4  C   UNL     1       0.286  10.536  20.787  0.00  0.00    +0.000 A 
ATOM      5  C   UNL     1      -0.385  11.753  20.643  0.00  0.00    +0.000 A 
ATOM      6  C   UNL     1       0.528   9.677  22.006  0.00  0.00    +0.000 C 
ATOM      7  C   UNL     1       0.742   8.185  21.657  0.00  0.00    +0.000 C 
ATOM      8  C   UNL     1       1.516   7.996  20.395  0.00  0.00    +0.000 A 
ATOM      9  C   UNL     1       2.301   6.933  19.913  0.00  0.00    +0.000 A 
ATOM     10  N   UNL     1       2.747   7.163  18.676  0.00  0.00    +0.000 NA
ATOM     11  O   UNL     1       2.245   8.415  18.321  0.00  0.00    +0.000 OA
ATOM     12  C   UNL     1       1.534   8.908  19.360  0.00  0.00    +0.000 A 
ENDROOT
BRANCH   5  13
ATOM     13  C   UNL     1      -1.123  12.505  21.673  0.00  0.00    +0.000 A 
ATOM     14  C   UNL     1      -0.488  13.546  22.351  0.00  0.00    +0.000 A 
ATOM     15  C   UNL     1      -1.096  14.194  23.431  0.00  0.00    +0.000 A 
ATOM     16  C   UNL     1      -2.406  13.839  23.815  0.00  0.00    +0.000 A 
ATOM     17  C   UNL     1      -3.080  12.823  23.114  0.00  0.00    +0.000 A 
ATOM     18  C   UNL     1      -2.412  12.155  22.078  0.00  0.00    +0.000 A 
BRANCH  15  19
ATOM     19  O   UNL     1      -0.462  15.162  24.175  0.00  0.00    +0.000 OA
ATOM     20  C   UNL     1      -0.038  16.327  23.476  0.00  0.00    +0.000 C 
ENDBRANCH  15  19
BRANCH  16  21
ATOM     21  O   UNL     1      -2.885  14.480  24.935  0.00  0.00    +0.000 OA
ATOM     22  C   UNL     1      -3.699  15.625  24.717  0.00  0.00    +0.000 C 
ENDBRANCH  16  21
BRANCH  17  23
ATOM     23  O   UNL     1      -4.349  12.480  23.508  0.00  0.00    +0.000 OA
ATOM     24  C   UNL     1      -5.446  12.999  22.759  0.00  0.00    +0.000 C 
ENDBRANCH  17  23
ENDBRANCH   5  13
BRANCH   1  25
ATOM     25  C   UNL     1      -0.723  13.327  18.645  0.00  0.00    +0.000 C 
BRANCH  25  29
ATOM     26  C   UNL     1       1.655  16.887  19.343  0.00  0.00    +0.000 A 
ATOM     27  C   UNL     1       0.265  16.906  19.489  0.00  0.00    +0.000 A 
ATOM     28  C   UNL     1      -0.483  15.746  19.271  0.00  0.00    +0.000 A 
ATOM     29  C   UNL     1       0.137  14.558  18.860  0.00  0.00    +0.000 A 
ATOM     30  C   UNL     1       1.528  14.577  18.652  0.00  0.00    +0.000 A 
ATOM     31  C   UNL     1       2.299  15.708  18.935  0.00  0.00    +0.000 A 
BRANCH  31  32
ATOM     32  N   UNL     1       3.669  15.698  18.615  0.00  0.00    +0.000 N 
ATOM     33  H   UNL     1       3.871  15.366  17.677  0.00  0.00    +0.000 HD
ATOM     34  H   UNL     1       4.211  15.221  19.332  0.00  0.00    +0.000 HD
ENDBRANCH  31  32
BRANCH  26  36
ATOM     35  C   UNL     1       2.576  18.348  20.946  0.00  0.00    +0.000 C 
ATOM     36  O   UNL     1       2.461  17.977  19.575  0.00  0.00    +0.000 OA
ENDBRANCH  26  36
ENDBRANCH  25  29
ENDBRANCH   1  25
TORSDOF 8
ENDMDL
MODEL 9
REMARK VINA RESULT:      -6.7      1.012      2.586
REMARK  Name = 
REMARK  12 active torsions:
REMARK  status: ('A' for Active; 'I' for Inactive)
REMARK    1  A    between atoms: C_1  and  O_2
REMARK    2  A    between atoms: O_2  and  C_3
REMARK    3  A    between atoms: C_6  and  C_7
REMARK    4  A    between atoms: C_7  and  N_8
REMARK    5  A    between atoms: C_12  and  C_13
REMARK    6  A    between atoms: C_15  and  O_16
REMARK    7  A    between atoms: O_16  and  C_17
REMARK    8  A    between atoms: C_18  and  O_19
REMARK    9  A    between atoms: O_19  and  C_20
REMARK   10  A    between atoms: C_21  and  O_22
REMARK   11  A    between atoms: O_22  and  C_23
REMARK   12  A    between atoms: C_33  and  N_34
REMARK                            x       y       z     vdW  Elec       q    Type
REMARK                         _______ _______ _______ _____ _____    ______ ____
ROOT
ATOM      1  N   UNL     1       0.195  11.611  20.349  0.00  0.00    +0.000 N 
ATOM      2  C   UNL     1       1.452  12.149  20.564  0.00  0.00    +0.000 A 
ATOM      3  C   UNL     1       1.453  13.395  20.010  0.00  0.00    +0.000 A 
ATOM      4  C   UNL     1       0.201  13.625  19.391  0.00  0.00    +0.000 A 
ATOM      5  C   UNL     1      -0.599  12.502  19.621  0.00  0.00    +0.000 A 
ATOM      6  C   UNL     1      -0.066  14.886  18.605  0.00  0.00    +0.000 C 
ATOM      7  C   UNL     1       0.773  16.090  19.096  0.00  0.00    +0.000 C 
ATOM      8  C   UNL     1       2.153  15.696  19.510  0.00  0.00    +0.000 A 
ATOM      9  C   UNL     1       3.357  16.416  19.600  0.00  0.00    +0.000 A 
ATOM     10  N   UNL     1       4.346  15.673  20.105  0.00  0.00    +0.000 NA
ATOM     11  O   UNL     1       3.785  14.422  20.360  0.00  0.00    +0.000 OA
ATOM     12  C   UNL     1       2.487  14.444  19.981  0.00  0.00    +0.000 A 
ENDROOT
BRANCH   5  13
ATOM     13  C   UNL     1      -1.994  12.285  19.198  0.00  0.00    +0.000 A 
ATOM     14  C   UNL     1      -3.034  12.639  20.057  0.00  0.00    +0.000 A 
ATOM     15  C   UNL     1      -4.365  12.324  19.762  0.00  0.00    +0.000 A 
ATOM     16  C   UNL     1      -4.683  11.690  18.543  0.00  0.00    +0.000 A 
ATOM     17  C   UNL     1      -3.651  11.366  17.643  0.00  0.00    +0.000 A 
ATOM     18  C   UNL     1      -2.324  11.641  18.005  0.00  0.00    +0.000 A 
BRANCH  15  19
ATOM     19  O   UNL     1      -5.404  12.580  20.628  0.00  0.00    +0.000 OA
ATOM     20  C   UNL     1      -5.242  13.688  21.506  0.00  0.00    +0.000 C 
ENDBRANCH  15  19
BRANCH  16  21
ATOM     21  O   UNL     1      -6.008  11.353  18.382  0.00  0.00    +0.000 OA
ATOM     22  C   UNL     1      -6.797  12.228  17.586  0.00  0.00    +0.000 C 
ENDBRANCH  16  21
BRANCH  17  23
ATOM     23  O   UNL     1      -3.975  10.736  16.468  0.00  0.00    +0.000 OA
ATOM     24  C   UNL     1      -3.055  10.831  15.382  0.00  0.00    +0.000 C 
ENDBRANCH  17  23
ENDBRANCH   5  13
BRANCH   1  25
ATOM     25  C   UNL     1      -0.171  10.278  20.828  0.00  0.00    +0.000 C 
BRANCH  25  29
ATOM     26  C   UNL     1       2.373   7.025  19.502  0.00  0.00    +0.000 A 
ATOM     27  C   UNL     1       1.807   7.024  20.779  0.00  0.00    +0.000 A 
ATOM     28  C   UNL     1       0.980   8.076  21.185  0.00  0.00    +0.000 A 
ATOM     29  C   UNL     1       0.740   9.168  20.339  0.00  0.00    +0.000 A 
ATOM     30  C   UNL     1       1.374   9.183  19.084  0.00  0.00    +0.000 A 
ATOM     31  C   UNL     1       2.144   8.106  18.635  0.00  0.00    +0.000 A 
BRANCH  31  32
ATOM     32  N   UNL     1       2.832   8.221  17.413  0.00  0.00    +0.000 N 
ATOM     33  H   UNL     1       3.431   7.430  17.202  0.00  0.00    +0.000 HD
ATOM     34  H   UNL     1       3.312   9.116  17.344  0.00  0.00    +0.000 HD
ENDBRANCH  31  32
BRANCH  26  36
ATOM     35  C   UNL     1       2.467   4.810  18.703  0.00  0.00    +0.000 C 
ATOM     36  O   UNL     1       3.166   6.010  19.019  0.00  0.00    +0.000 OA
ENDBRANCH  26  36
ENDBRANCH  25  29
ENDBRANCH   1  25
TORSDOF 8
ENDMDL
