MODEL 1
REMARK VINA RESULT:      -8.8      0.000      0.000
REMARK  Name = 
REMARK  3 active torsions:
REMARK  status: ('A' for Active; 'I' for Inactive)
REMARK    1  A    between atoms: N_3  and  C_4
REMARK    2  A    between atoms: N_13  and  C_14
REMARK    3  A    between atoms: C_23  and  N_24
REMARK                            x       y       z     vdW  Elec       q    Type
REMARK                         _______ _______ _______ _____ _____    ______ ____
ROOT
ATOM      1  O   UNL     1       2.148   9.616  17.316  0.00  0.00    +0.000 OA
ATOM      2  C   UNL     1       1.598   9.029  18.236  0.00  0.00    +0.000 C 
ATOM      3  N   UNL     1       1.841   7.732  18.649  0.00  0.00    +0.000 N 
ATOM      4  N   UNL     1       0.600   9.622  18.966  0.00  0.00    +0.000 N 
ATOM      5  H   UNL     1       1.163   7.318  19.272  0.00  0.00    +0.000 HD
ATOM      6  H   UNL     1       0.177   9.128  19.737  0.00  0.00    +0.000 HD
ENDROOT
BRANCH   3   7
ATOM      7  C   UNL     1       2.817   6.854  18.114  0.00  0.00    +0.000 A 
ATOM      8  C   UNL     1       4.103   7.293  17.738  0.00  0.00    +0.000 A 
ATOM      9  C   UNL     1       5.049   6.423  17.178  0.00  0.00    +0.000 A 
ATOM     10  C   UNL     1       4.758   5.075  16.981  0.00  0.00    +0.000 A 
ATOM     11  C   UNL     1       3.488   4.638  17.377  0.00  0.00    +0.000 A 
ATOM     12  N   UNL     1       2.910   3.400  17.311  0.00  0.00    +0.000 N 
ATOM     13  N   UNL     1       1.654   3.360  17.787  0.00  0.00    +0.000 NA
ATOM     14  C   UNL     1       1.427   4.620  18.162  0.00  0.00    +0.000 A 
ATOM     15  C   UNL     1       2.528   5.482  17.931  0.00  0.00    +0.000 A 
ATOM     16  H   UNL     1       3.315   2.544  16.947  0.00  0.00    +0.000 HD
ENDBRANCH   3   7
BRANCH   4  17
ATOM     17  C   UNL     1       0.101  10.971  18.680  0.00  0.00    +0.000 C 
ATOM     18  C   UNL     1       0.204  11.860  19.921  0.00  0.00    +0.000 C 
ATOM     19  C   UNL     1      -0.756  13.022  19.775  0.00  0.00    +0.000 C 
ATOM     20  O   UNL     1      -2.099  12.539  19.736  0.00  0.00    +0.000 OA
ATOM     21  C   UNL     1      -2.357  11.636  18.729  0.00  0.00    +0.000 A 
ATOM     22  C   UNL     1      -1.319  10.870  18.168  0.00  0.00    +0.000 A 
ATOM     23  C   UNL     1      -1.611   9.971  17.131  0.00  0.00    +0.000 A 
ATOM     24  C   UNL     1      -2.923   9.755  16.738  0.00  0.00    +0.000 A 
ATOM     25  C   UNL     1      -3.952  10.461  17.359  0.00  0.00    +0.000 A 
ATOM     26  C   UNL     1      -3.707  11.432  18.349  0.00  0.00    +0.000 A 
BRANCH  26  27
ATOM     27  N   UNL     1      -4.783  12.138  18.864  0.00  0.00    +0.000 N 
ATOM     28  C   UNL     1      -5.194  12.063  20.271  0.00  0.00    +0.000 C 
ATOM     29  C   UNL     1      -6.596  11.450  20.399  0.00  0.00    +0.000 C 
ATOM     30  O   UNL     1      -7.555  12.140  19.574  0.00  0.00    +0.000 OA
ATOM     31  C   UNL     1      -7.154  12.070  18.195  0.00  0.00    +0.000 C 
ATOM     32  C   UNL     1      -5.788  12.737  17.970  0.00  0.00    +0.000 C 
ENDBRANCH  26  27
ENDBRANCH   4  17
TORSDOF 3
ENDMDL
MODEL 2
REMARK VINA RESULT:      -8.6      0.979      1.146
REMARK  Name = 
REMARK  3 active torsions:
REMARK  status: ('A' for Active; 'I' for Inactive)
REMARK    1  A    between atoms: N_3  and  C_4
REMARK    2  A    between atoms: N_13  and  C_14
REMARK    3  A    between atoms: C_23  and  N_24
REMARK                            x       y       z     vdW  Elec       q    Type
REMARK                         _______ _______ _______ _____ _____    ______ ____
ROOT
ATOM      1  O   UNL     1       2.474   9.067  17.162  0.00  0.00    +0.000 OA
ATOM      2  C   UNL     1       2.002   8.598  18.187  0.00  0.00    +0.000 C 
ATOM      3  N   UNL     1       2.174   7.309  18.660  0.00  0.00    +0.000 N 
ATOM      4  N   UNL     1       1.177   9.336  18.996  0.00  0.00    +0.000 N 
ATOM      5  H   UNL     1       1.551   7.008  19.396  0.00  0.00    +0.000 HD
ATOM      6  H   UNL     1       0.818   8.937  19.850  0.00  0.00    +0.000 HD
ENDROOT
BRANCH   3   7
ATOM      7  C   UNL     1       2.976   6.302  18.068  0.00  0.00    +0.000 A 
ATOM      8  C   UNL     1       4.257   6.570  17.542  0.00  0.00    +0.000 A 
ATOM      9  C   UNL     1       5.029   5.573  16.928  0.00  0.00    +0.000 A 
ATOM     10  C   UNL     1       4.563   4.264  16.824  0.00  0.00    +0.000 A 
ATOM     11  C   UNL     1       3.300   3.998  17.367  0.00  0.00    +0.000 A 
ATOM     12  N   UNL     1       2.577   2.838  17.418  0.00  0.00    +0.000 N 
ATOM     13  N   UNL     1       1.384   2.967  18.021  0.00  0.00    +0.000 NA
ATOM     14  C   UNL     1       1.348   4.257  18.360  0.00  0.00    +0.000 A 
ATOM     15  C   UNL     1       2.510   4.970  17.978  0.00  0.00    +0.000 A 
ATOM     16  H   UNL     1       2.838   1.928  17.053  0.00  0.00    +0.000 HD
ENDBRANCH   3   7
BRANCH   4  17
ATOM     17  C   UNL     1       0.776  10.710  18.679  0.00  0.00    +0.000 C 
ATOM     18  C   UNL     1       1.137  11.658  19.825  0.00  0.00    +0.000 C 
ATOM     19  C   UNL     1       0.283  12.904  19.722  0.00  0.00    +0.000 C 
ATOM     20  O   UNL     1      -1.092  12.565  19.898  0.00  0.00    +0.000 OA
ATOM     21  C   UNL     1      -1.575  11.635  19.004  0.00  0.00    +0.000 A 
ATOM     22  C   UNL     1      -0.704  10.730  18.369  0.00  0.00    +0.000 A 
ATOM     23  C   UNL     1      -1.224   9.806  17.450  0.00  0.00    +0.000 A 
ATOM     24  C   UNL     1      -2.594   9.707  17.252  0.00  0.00    +0.000 A 
ATOM     25  C   UNL     1      -3.452  10.556  17.949  0.00  0.00    +0.000 A 
ATOM     26  C   UNL     1      -2.978  11.553  18.823  0.00  0.00    +0.000 A 
BRANCH  26  27
ATOM     27  N   UNL     1      -3.898  12.400  19.422  0.00  0.00    +0.000 N 
ATOM     28  C   UNL     1      -3.620  13.143  20.657  0.00  0.00    +0.000 C 
ATOM     29  C   UNL     1      -4.546  12.682  21.792  0.00  0.00    +0.000 C 
ATOM     30  O   UNL     1      -5.933  12.742  21.404  0.00  0.00    +0.000 OA
ATOM     31  C   UNL     1      -6.159  11.897  20.264  0.00  0.00    +0.000 C 
ATOM     32  C   UNL     1      -5.322  12.345  19.055  0.00  0.00    +0.000 C 
ENDBRANCH  26  27
ENDBRANCH   4  17
TORSDOF 3
ENDMDL
MODEL 3
REMARK VINA RESULT:      -8.5      1.075      1.076
REMARK  Name = 
REMARK  3 active torsions:
REMARK  status: ('A' for Active; 'I' for Inactive)
REMARK    1  A    between atoms: N_3  and  C_4
REMARK    2  A    between atoms: N_13  and  C_14
REMARK    3  A    between atoms: C_23  and  N_24
REMARK                            x       y       z     vdW  Elec       q    Type
REMARK                         _______ _______ _______ _____ _____    ______ ____
ROOT
ATOM      1  O   UNL     1       1.762   9.760  17.523  0.00  0.00    +0.000 OA
ATOM      2  C   UNL     1       1.403   9.391  18.631  0.00  0.00    +0.000 C 
ATOM      3  N   UNL     1       1.760   8.215  19.266  0.00  0.00    +0.000 N 
ATOM      4  N   UNL     1       0.528  10.134  19.382  0.00  0.00    +0.000 N 
ATOM      5  H   UNL     1       1.216   7.951  20.075  0.00  0.00    +0.000 HD
ATOM      6  H   UNL     1       0.264   9.823  20.304  0.00  0.00    +0.000 HD
ENDROOT
BRANCH   3   7
ATOM      7  C   UNL     1       2.657   7.237  18.769  0.00  0.00    +0.000 A 
ATOM      8  C   UNL     1       3.489   7.472  17.654  0.00  0.00    +0.000 A 
ATOM      9  C   UNL     1       4.348   6.486  17.149  0.00  0.00    +0.000 A 
ATOM     10  C   UNL     1       4.425   5.227  17.742  0.00  0.00    +0.000 A 
ATOM     11  C   UNL     1       3.614   5.005  18.861  0.00  0.00    +0.000 A 
ATOM     12  N   UNL     1       3.460   3.895  19.646  0.00  0.00    +0.000 N 
ATOM     13  N   UNL     1       2.574   4.052  20.643  0.00  0.00    +0.000 NA
ATOM     14  C   UNL     1       2.147   5.306  20.481  0.00  0.00    +0.000 A 
ATOM     15  C   UNL     1       2.748   5.966  19.380  0.00  0.00    +0.000 A 
ATOM     16  H   UNL     1       3.925   2.999  19.550  0.00  0.00    +0.000 HD
ENDBRANCH   3   7
BRANCH   4  17
ATOM     17  C   UNL     1      -0.060  11.389  18.903  0.00  0.00    +0.000 C 
ATOM     18  C   UNL     1       0.010  12.467  19.987  0.00  0.00    +0.000 C 
ATOM     19  C   UNL     1      -1.024  13.533  19.690  0.00  0.00    +0.000 C 
ATOM     20  O   UNL     1      -2.334  12.971  19.767  0.00  0.00    +0.000 OA
ATOM     21  C   UNL     1      -2.554  11.907  18.920  0.00  0.00    +0.000 A 
ATOM     22  C   UNL     1      -1.481  11.126  18.456  0.00  0.00    +0.000 A 
ATOM     23  C   UNL     1      -1.736  10.058  17.581  0.00  0.00    +0.000 A 
ATOM     24  C   UNL     1      -3.040   9.706  17.265  0.00  0.00    +0.000 A 
ATOM     25  C   UNL     1      -4.099  10.439  17.797  0.00  0.00    +0.000 A 
ATOM     26  C   UNL     1      -3.896  11.566  18.617  0.00  0.00    +0.000 A 
BRANCH  26  27
ATOM     27  N   UNL     1      -5.004  12.280  19.047  0.00  0.00    +0.000 N 
ATOM     28  C   UNL     1      -5.575  12.143  20.392  0.00  0.00    +0.000 C 
ATOM     29  C   UNL     1      -6.999  11.572  20.325  0.00  0.00    +0.000 C 
ATOM     30  O   UNL     1      -7.838  12.337  19.438  0.00  0.00    +0.000 OA
ATOM     31  C   UNL     1      -7.284  12.328  18.112  0.00  0.00    +0.000 C 
ATOM     32  C   UNL     1      -5.883  12.959  18.081  0.00  0.00    +0.000 C 
ENDBRANCH  26  27
ENDBRANCH   4  17
TORSDOF 3
ENDMDL
MODEL 4
REMARK VINA RESULT:      -8.4      4.104      9.976
REMARK  Name = 
REMARK  3 active torsions:
REMARK  status: ('A' for Active; 'I' for Inactive)
REMARK    1  A    between atoms: N_3  and  C_4
REMARK    2  A    between atoms: N_13  and  C_14
REMARK    3  A    between atoms: C_23  and  N_24
REMARK                            x       y       z     vdW  Elec       q    Type
REMARK                         _______ _______ _______ _____ _____    ______ ____
ROOT
ATOM      1  O   UNL     1      -0.484   8.410  20.517  0.00  0.00    +0.000 OA
ATOM      2  C   UNL     1       0.529   8.554  21.183  0.00  0.00    +0.000 C 
ATOM      3  N   UNL     1       0.850   9.643  21.975  0.00  0.00    +0.000 N 
ATOM      4  N   UNL     1       1.526   7.612  21.181  0.00  0.00    +0.000 N 
ATOM      5  H   UNL     1       1.808   9.713  22.285  0.00  0.00    +0.000 HD
ATOM      6  H   UNL     1       2.343   7.739  21.757  0.00  0.00    +0.000 HD
ENDROOT
BRANCH   3   7
ATOM      7  C   UNL     1       0.032  10.778  22.203  0.00  0.00    +0.000 A 
ATOM      8  C   UNL     1      -1.059  10.755  23.096  0.00  0.00    +0.000 A 
ATOM      9  C   UNL     1      -1.882  11.873  23.290  0.00  0.00    +0.000 A 
ATOM     10  C   UNL     1      -1.645  13.067  22.611  0.00  0.00    +0.000 A 
ATOM     11  C   UNL     1      -0.548  13.092  21.742  0.00  0.00    +0.000 A 
ATOM     12  N   UNL     1      -0.065  14.092  20.943  0.00  0.00    +0.000 N 
ATOM     13  N   UNL     1       1.020  13.744  20.231  0.00  0.00    +0.000 NA
ATOM     14  C   UNL     1       1.229  12.476  20.589  0.00  0.00    +0.000 A 
ATOM     15  C   UNL     1       0.283  11.994  21.527  0.00  0.00    +0.000 A 
ATOM     16  H   UNL     1      -0.434  15.031  20.833  0.00  0.00    +0.000 HD
ENDBRANCH   3   7
BRANCH   4  17
ATOM     17  C   UNL     1       1.465   6.396  20.364  0.00  0.00    +0.000 C 
ATOM     18  C   UNL     1       1.770   5.158  21.211  0.00  0.00    +0.000 C 
ATOM     19  C   UNL     1       2.210   4.032  20.299  0.00  0.00    +0.000 C 
ATOM     20  O   UNL     1       3.431   4.385  19.648  0.00  0.00    +0.000 OA
ATOM     21  C   UNL     1       3.373   5.545  18.907  0.00  0.00    +0.000 A 
ATOM     22  C   UNL     1       2.422   6.538  19.201  0.00  0.00    +0.000 A 
ATOM     23  C   UNL     1       2.378   7.701  18.417  0.00  0.00    +0.000 A 
ATOM     24  C   UNL     1       3.333   7.922  17.434  0.00  0.00    +0.000 A 
ATOM     25  C   UNL     1       4.321   6.965  17.208  0.00  0.00    +0.000 A 
ATOM     26  C   UNL     1       4.363   5.746  17.913  0.00  0.00    +0.000 A 
BRANCH  26  27
ATOM     27  N   UNL     1       5.339   4.820  17.576  0.00  0.00    +0.000 N 
ATOM     28  C   UNL     1       6.474   4.497  18.448  0.00  0.00    +0.000 C 
ATOM     29  C   UNL     1       7.801   4.901  17.788  0.00  0.00    +0.000 C 
ATOM     30  O   UNL     1       7.932   4.339  16.469  0.00  0.00    +0.000 OA
ATOM     31  C   UNL     1       6.854   4.794  15.633  0.00  0.00    +0.000 C 
ATOM     32  C   UNL     1       5.489   4.357  16.187  0.00  0.00    +0.000 C 
ENDBRANCH  26  27
ENDBRANCH   4  17
TORSDOF 3
ENDMDL
MODEL 5
REMARK VINA RESULT:      -8.1      2.883      3.976
REMARK  Name = 
REMARK  3 active torsions:
REMARK  status: ('A' for Active; 'I' for Inactive)
REMARK    1  A    between atoms: N_3  and  C_4
REMARK    2  A    between atoms: N_13  and  C_14
REMARK    3  A    between atoms: C_23  and  N_24
REMARK                            x       y       z     vdW  Elec       q    Type
REMARK                         _______ _______ _______ _____ _____    ______ ____
ROOT
ATOM      1  O   UNL     1       1.613   6.770  17.670  0.00  0.00    +0.000 OA
ATOM      2  C   UNL     1       2.360   7.710  17.897  0.00  0.00    +0.000 C 
ATOM      3  N   UNL     1       3.735   7.728  17.741  0.00  0.00    +0.000 N 
ATOM      4  N   UNL     1       1.885   8.896  18.395  0.00  0.00    +0.000 N 
ATOM      5  H   UNL     1       4.232   8.494  18.173  0.00  0.00    +0.000 HD
ATOM      6  H   UNL     1       2.516   9.667  18.552  0.00  0.00    +0.000 HD
ENDROOT
BRANCH   3   7
ATOM      7  C   UNL     1       4.532   6.671  17.235  0.00  0.00    +0.000 A 
ATOM      8  C   UNL     1       5.016   6.657  15.912  0.00  0.00    +0.000 A 
ATOM      9  C   UNL     1       5.776   5.590  15.411  0.00  0.00    +0.000 A 
ATOM     10  C   UNL     1       6.096   4.497  16.213  0.00  0.00    +0.000 A 
ATOM     11  C   UNL     1       5.632   4.525  17.534  0.00  0.00    +0.000 A 
ATOM     12  N   UNL     1       5.772   3.617  18.548  0.00  0.00    +0.000 N 
ATOM     13  N   UNL     1       5.175   3.987  19.694  0.00  0.00    +0.000 NA
ATOM     14  C   UNL     1       4.634   5.168  19.393  0.00  0.00    +0.000 A 
ATOM     15  C   UNL     1       4.871   5.570  18.055  0.00  0.00    +0.000 A 
ATOM     16  H   UNL     1       6.255   2.726  18.521  0.00  0.00    +0.000 HD
ENDBRANCH   3   7
BRANCH   4  17
ATOM     17  C   UNL     1       0.471   9.110  18.720  0.00  0.00    +0.000 C 
ATOM     18  C   UNL     1      -0.116  10.236  17.865  0.00  0.00    +0.000 C 
ATOM     19  C   UNL     1      -1.353  10.779  18.548  0.00  0.00    +0.000 C 
ATOM     20  O   UNL     1      -0.998  11.367  19.800  0.00  0.00    +0.000 OA
ATOM     21  C   UNL     1      -0.358  10.516  20.674  0.00  0.00    +0.000 A 
ATOM     22  C   UNL     1       0.346   9.396  20.200  0.00  0.00    +0.000 A 
ATOM     23  C   UNL     1       0.972   8.538  21.118  0.00  0.00    +0.000 A 
ATOM     24  C   UNL     1       0.994   8.851  22.469  0.00  0.00    +0.000 A 
ATOM     25  C   UNL     1       0.360  10.010  22.916  0.00  0.00    +0.000 A 
ATOM     26  C   UNL     1      -0.349  10.862  22.049  0.00  0.00    +0.000 A 
BRANCH  26  27
ATOM     27  N   UNL     1      -1.009  11.956  22.589  0.00  0.00    +0.000 N 
ATOM     28  C   UNL     1      -2.399  11.903  23.058  0.00  0.00    +0.000 C 
ATOM     29  C   UNL     1      -3.294  12.823  22.215  0.00  0.00    +0.000 C 
ATOM     30  O   UNL     1      -2.773  14.166  22.158  0.00  0.00    +0.000 OA
ATOM     31  C   UNL     1      -1.459  14.157  21.577  0.00  0.00    +0.000 C 
ATOM     32  C   UNL     1      -0.479  13.317  22.411  0.00  0.00    +0.000 C 
ENDBRANCH  26  27
ENDBRANCH   4  17
TORSDOF 3
ENDMDL
MODEL 6
REMARK VINA RESULT:      -8.0      4.103      5.365
REMARK  Name = 
REMARK  3 active torsions:
REMARK  status: ('A' for Active; 'I' for Inactive)
REMARK    1  A    between atoms: N_3  and  C_4
REMARK    2  A    between atoms: N_13  and  C_14
REMARK    3  A    between atoms: C_23  and  N_24
REMARK                            x       y       z     vdW  Elec       q    Type
REMARK                         _______ _______ _______ _____ _____    ______ ____
ROOT
ATOM      1  O   UNL     1       1.885   7.114  18.172  0.00  0.00    +0.000 OA
ATOM      2  C   UNL     1       1.963   7.301  19.376  0.00  0.00    +0.000 C 
ATOM      3  N   UNL     1       2.291   6.362  20.338  0.00  0.00    +0.000 N 
ATOM      4  N   UNL     1       1.680   8.523  19.929  0.00  0.00    +0.000 N 
ATOM      5  H   UNL     1       2.103   6.610  21.299  0.00  0.00    +0.000 HD
ATOM      6  H   UNL     1       1.775   8.663  20.923  0.00  0.00    +0.000 HD
ENDROOT
BRANCH   3   7
ATOM      7  C   UNL     1       2.651   5.012  20.099  0.00  0.00    +0.000 A 
ATOM      8  C   UNL     1       1.758   3.943  20.316  0.00  0.00    +0.000 A 
ATOM      9  C   UNL     1       2.135   2.608  20.108  0.00  0.00    +0.000 A 
ATOM     10  C   UNL     1       3.415   2.283  19.663  0.00  0.00    +0.000 A 
ATOM     11  C   UNL     1       4.291   3.350  19.427  0.00  0.00    +0.000 A 
ATOM     12  N   UNL     1       5.591   3.359  18.999  0.00  0.00    +0.000 N 
ATOM     13  N   UNL     1       6.120   4.589  18.894  0.00  0.00    +0.000 NA
ATOM     14  C   UNL     1       5.121   5.387  19.274  0.00  0.00    +0.000 A 
ATOM     15  C   UNL     1       3.944   4.684  19.630  0.00  0.00    +0.000 A 
ATOM     16  H   UNL     1       6.173   2.561  18.769  0.00  0.00    +0.000 HD
ENDBRANCH   3   7
BRANCH   4  17
ATOM     17  C   UNL     1       1.234   9.670  19.131  0.00  0.00    +0.000 C 
ATOM     18  C   UNL     1       2.393  10.241  18.310  0.00  0.00    +0.000 C 
ATOM     19  C   UNL     1       2.069  11.670  17.929  0.00  0.00    +0.000 C 
ATOM     20  O   UNL     1       1.973  12.476  19.103  0.00  0.00    +0.000 OA
ATOM     21  C   UNL     1       1.036  12.049  20.019  0.00  0.00    +0.000 A 
ATOM     22  C   UNL     1       0.628  10.704  20.054  0.00  0.00    +0.000 A 
ATOM     23  C   UNL     1      -0.341  10.304  20.987  0.00  0.00    +0.000 A 
ATOM     24  C   UNL     1      -0.811  11.198  21.939  0.00  0.00    +0.000 A 
ATOM     25  C   UNL     1      -0.337  12.509  21.943  0.00  0.00    +0.000 A 
ATOM     26  C   UNL     1       0.576  12.983  20.981  0.00  0.00    +0.000 A 
BRANCH  26  27
ATOM     27  N   UNL     1       0.941  14.320  21.017  0.00  0.00    +0.000 N 
ATOM     28  C   UNL     1       0.365  15.333  20.125  0.00  0.00    +0.000 C 
ATOM     29  C   UNL     1       1.440  15.918  19.197  0.00  0.00    +0.000 C 
ATOM     30  O   UNL     1       2.574  16.407  19.940  0.00  0.00    +0.000 OA
ATOM     31  C   UNL     1       3.163  15.335  20.695  0.00  0.00    +0.000 C 
ATOM     32  C   UNL     1       2.168  14.746  21.708  0.00  0.00    +0.000 C 
ENDBRANCH  26  27
ENDBRANCH   4  17
TORSDOF 3
ENDMDL
MODEL 7
REMARK VINA RESULT:      -7.9      1.284      1.552
REMARK  Name = 
REMARK  3 active torsions:
REMARK  status: ('A' for Active; 'I' for Inactive)
REMARK    1  A    between atoms: N_3  and  C_4
REMARK    2  A    between atoms: N_13  and  C_14
REMARK    3  A    between atoms: C_23  and  N_24
REMARK                            x       y       z     vdW  Elec       q    Type
REMARK                         _______ _______ _______ _____ _____    ______ ____
ROOT
ATOM      1  O   UNL     1       1.564   9.972  17.832  0.00  0.00    +0.000 OA
ATOM      2  C   UNL     1       1.067   9.368  18.770  0.00  0.00    +0.000 C 
ATOM      3  N   UNL     1       1.447   8.126  19.247  0.00  0.00    +0.000 N 
ATOM      4  N   UNL     1      -0.006   9.875  19.458  0.00  0.00    +0.000 N 
ATOM      5  H   UNL     1       0.807   7.666  19.879  0.00  0.00    +0.000 HD
ATOM      6  H   UNL     1      -0.385   9.371  20.245  0.00  0.00    +0.000 HD
ENDROOT
BRANCH   3   7
ATOM      7  C   UNL     1       2.525   7.342  18.767  0.00  0.00    +0.000 A 
ATOM      8  C   UNL     1       3.367   7.774  17.722  0.00  0.00    +0.000 A 
ATOM      9  C   UNL     1       4.411   6.976  17.231  0.00  0.00    +0.000 A 
ATOM     10  C   UNL     1       4.668   5.717  17.771  0.00  0.00    +0.000 A 
ATOM     11  C   UNL     1       3.844   5.301  18.824  0.00  0.00    +0.000 A 
ATOM     12  N   UNL     1       3.838   4.140  19.547  0.00  0.00    +0.000 N 
ATOM     13  N   UNL     1       2.882   4.090  20.489  0.00  0.00    +0.000 NA
ATOM     14  C   UNL     1       2.256   5.261  20.355  0.00  0.00    +0.000 A 
ATOM     15  C   UNL     1       2.797   6.072  19.327  0.00  0.00    +0.000 A 
ATOM     16  H   UNL     1       4.454   3.341  19.442  0.00  0.00    +0.000 HD
ENDBRANCH   3   7
BRANCH   4  17
ATOM     17  C   UNL     1      -0.648  11.144  19.103  0.00  0.00    +0.000 C 
ATOM     18  C   UNL     1      -1.084  11.901  20.359  0.00  0.00    +0.000 C 
ATOM     19  C   UNL     1      -2.164  12.894  19.986  0.00  0.00    +0.000 C 
ATOM     20  O   UNL     1      -3.319  12.201  19.513  0.00  0.00    +0.000 OA
ATOM     21  C   UNL     1      -3.093  11.380  18.430  0.00  0.00    +0.000 A 
ATOM     22  C   UNL     1      -1.810  10.863  18.176  0.00  0.00    +0.000 A 
ATOM     23  C   UNL     1      -1.609  10.044  17.055  0.00  0.00    +0.000 A 
ATOM     24  C   UNL     1      -2.683   9.654  16.268  0.00  0.00    +0.000 A 
ATOM     25  C   UNL     1      -3.964  10.109  16.579  0.00  0.00    +0.000 A 
ATOM     26  C   UNL     1      -4.209  10.995  17.645  0.00  0.00    +0.000 A 
BRANCH  26  27
ATOM     27  N   UNL     1      -5.503  11.453  17.841  0.00  0.00    +0.000 N 
ATOM     28  C   UNL     1      -5.950  12.792  17.440  0.00  0.00    +0.000 C 
ATOM     29  C   UNL     1      -6.353  13.623  18.667  0.00  0.00    +0.000 C 
ATOM     30  O   UNL     1      -7.318  12.933  19.483  0.00  0.00    +0.000 OA
ATOM     31  C   UNL     1      -6.770  11.686  19.942  0.00  0.00    +0.000 C 
ATOM     32  C   UNL     1      -6.414  10.761  18.767  0.00  0.00    +0.000 C 
ENDBRANCH  26  27
ENDBRANCH   4  17
TORSDOF 3
ENDMDL
MODEL 8
REMARK VINA RESULT:      -7.9      2.774      3.612
REMARK  Name = 
REMARK  3 active torsions:
REMARK  status: ('A' for Active; 'I' for Inactive)
REMARK    1  A    between atoms: N_3  and  C_4
REMARK    2  A    between atoms: N_13  and  C_14
REMARK    3  A    between atoms: C_23  and  N_24
REMARK                            x       y       z     vdW  Elec       q    Type
REMARK                         _______ _______ _______ _____ _____    ______ ____
ROOT
ATOM      1  O   UNL     1       2.046   6.830  20.850  0.00  0.00    +0.000 OA
ATOM      2  C   UNL     1       1.904   7.352  19.755  0.00  0.00    +0.000 C 
ATOM      3  N   UNL     1       2.154   6.770  18.524  0.00  0.00    +0.000 N 
ATOM      4  N   UNL     1       1.495   8.655  19.632  0.00  0.00    +0.000 N 
ATOM      5  H   UNL     1       2.200   7.390  17.729  0.00  0.00    +0.000 HD
ATOM      6  H   UNL     1       1.360   9.058  18.717  0.00  0.00    +0.000 HD
ENDROOT
BRANCH   3   7
ATOM      7  C   UNL     1       2.574   5.435  18.302  0.00  0.00    +0.000 A 
ATOM      8  C   UNL     1       1.714   4.450  17.777  0.00  0.00    +0.000 A 
ATOM      9  C   UNL     1       2.129   3.123  17.593  0.00  0.00    +0.000 A 
ATOM     10  C   UNL     1       3.426   2.725  17.913  0.00  0.00    +0.000 A 
ATOM     11  C   UNL     1       4.284   3.712  18.413  0.00  0.00    +0.000 A 
ATOM     12  N   UNL     1       5.590   3.638  18.816  0.00  0.00    +0.000 N 
ATOM     13  N   UNL     1       6.091   4.805  19.251  0.00  0.00    +0.000 NA
ATOM     14  C   UNL     1       5.065   5.648  19.123  0.00  0.00    +0.000 A 
ATOM     15  C   UNL     1       3.895   5.035  18.610  0.00  0.00    +0.000 A 
ATOM     16  H   UNL     1       6.190   2.820  18.827  0.00  0.00    +0.000 HD
ENDBRANCH   3   7
BRANCH   4  17
ATOM     17  C   UNL     1       1.235   9.517  20.789  0.00  0.00    +0.000 C 
ATOM     18  C   UNL     1       0.189   8.885  21.711  0.00  0.00    +0.000 C 
ATOM     19  C   UNL     1      -0.430   9.968  22.568  0.00  0.00    +0.000 C 
ATOM     20  O   UNL     1      -1.131  10.899  21.743  0.00  0.00    +0.000 OA
ATOM     21  C   UNL     1      -0.360  11.503  20.774  0.00  0.00    +0.000 A 
ATOM     22  C   UNL     1       0.809  10.882  20.298  0.00  0.00    +0.000 A 
ATOM     23  C   UNL     1       1.582  11.531  19.322  0.00  0.00    +0.000 A 
ATOM     24  C   UNL     1       1.142  12.717  18.752  0.00  0.00    +0.000 A 
ATOM     25  C   UNL     1      -0.060  13.279  19.176  0.00  0.00    +0.000 A 
ATOM     26  C   UNL     1      -0.834  12.711  20.206  0.00  0.00    +0.000 A 
BRANCH  26  27
ATOM     27  N   UNL     1      -1.982  13.375  20.614  0.00  0.00    +0.000 N 
ATOM     28  C   UNL     1      -2.021  14.268  21.778  0.00  0.00    +0.000 C 
ATOM     29  C   UNL     1      -2.953  13.710  22.863  0.00  0.00    +0.000 C 
ATOM     30  O   UNL     1      -4.263  13.416  22.340  0.00  0.00    +0.000 OA
ATOM     31  C   UNL     1      -4.162  12.444  21.286  0.00  0.00    +0.000 C 
ATOM     32  C   UNL     1      -3.305  12.963  20.120  0.00  0.00    +0.000 C 
ENDBRANCH  26  27
ENDBRANCH   4  17
TORSDOF 3
ENDMDL
MODEL 9
REMARK VINA RESULT:      -7.9      1.580      2.201
REMARK  Name = 
REMARK  3 active torsions:
REMARK  status: ('A' for Active; 'I' for Inactive)
REMARK    1  A    between atoms: N_3  and  C_4
REMARK    2  A    between atoms: N_13  and  C_14
REMARK    3  A    between atoms: C_23  and  N_24
REMARK                            x       y       z     vdW  Elec       q    Type
REMARK                         _______ _______ _______ _____ _____    ______ ____
ROOT
ATOM      1  O   UNL     1       2.192   8.925  17.126  0.00  0.00    +0.000 OA
ATOM      2  C   UNL     1       1.950   8.570  18.269  0.00  0.00    +0.000 C 
ATOM      3  N   UNL     1       2.168   7.315  18.808  0.00  0.00    +0.000 N 
ATOM      4  N   UNL     1       1.370   9.422  19.174  0.00  0.00    +0.000 N 
ATOM      5  H   UNL     1       1.720   7.114  19.691  0.00  0.00    +0.000 HD
ATOM      6  H   UNL     1       1.201   9.117  20.120  0.00  0.00    +0.000 HD
ENDROOT
BRANCH   3   7
ATOM      7  C   UNL     1       2.765   6.214  18.145  0.00  0.00    +0.000 A 
ATOM      8  C   UNL     1       2.113   4.972  18.006  0.00  0.00    +0.000 A 
ATOM      9  C   UNL     1       2.725   3.878  17.377  0.00  0.00    +0.000 A 
ATOM     10  C   UNL     1       4.010   3.980  16.848  0.00  0.00    +0.000 A 
ATOM     11  C   UNL     1       4.646   5.222  16.969  0.00  0.00    +0.000 A 
ATOM     12  N   UNL     1       5.888   5.632  16.565  0.00  0.00    +0.000 N 
ATOM     13  N   UNL     1       6.161   6.913  16.862  0.00  0.00    +0.000 NA
ATOM     14  C   UNL     1       5.055   7.328  17.482  0.00  0.00    +0.000 A 
ATOM     15  C   UNL     1       4.062   6.323  17.593  0.00  0.00    +0.000 A 
ATOM     16  H   UNL     1       6.597   5.085  16.088  0.00  0.00    +0.000 HD
ENDBRANCH   3   7
BRANCH   4  17
ATOM     17  C   UNL     1       0.969  10.791  18.830  0.00  0.00    +0.000 C 
ATOM     18  C   UNL     1       1.338  11.761  19.955  0.00  0.00    +0.000 C 
ATOM     19  C   UNL     1       0.485  13.006  19.830  0.00  0.00    +0.000 C 
ATOM     20  O   UNL     1      -0.890  12.673  20.022  0.00  0.00    +0.000 OA
ATOM     21  C   UNL     1      -1.379  11.725  19.150  0.00  0.00    +0.000 A 
ATOM     22  C   UNL     1      -0.513  10.807  18.529  0.00  0.00    +0.000 A 
ATOM     23  C   UNL     1      -1.040   9.864  17.633  0.00  0.00    +0.000 A 
ATOM     24  C   UNL     1      -2.411   9.763  17.445  0.00  0.00    +0.000 A 
ATOM     25  C   UNL     1      -3.264  10.627  18.129  0.00  0.00    +0.000 A 
ATOM     26  C   UNL     1      -2.784  11.641  18.979  0.00  0.00    +0.000 A 
BRANCH  26  27
ATOM     27  N   UNL     1      -3.699  12.502  19.566  0.00  0.00    +0.000 N 
ATOM     28  C   UNL     1      -3.446  13.202  20.831  0.00  0.00    +0.000 C 
ATOM     29  C   UNL     1      -4.430  12.742  21.916  0.00  0.00    +0.000 C 
ATOM     30  O   UNL     1      -5.797  12.858  21.477  0.00  0.00    +0.000 OA
ATOM     31  C   UNL     1      -6.006  12.051  20.306  0.00  0.00    +0.000 C 
ATOM     32  C   UNL     1      -5.108  12.504  19.143  0.00  0.00    +0.000 C 
ENDBRANCH  26  27
ENDBRANCH   4  17
TORSDOF 3
ENDMDL
