MODEL 1
REMARK VINA RESULT:      -6.2      0.000      0.000
REMARK  Name = 
REMARK  9 active torsions:
REMARK  status: ('A' for Active; 'I' for Inactive)
REMARK    1  A    between atoms: N_5  and  C_6
REMARK    2  A    between atoms: C_6  and  C_7
REMARK    3  A    between atoms: C_7  and  C_8
REMARK    4  A    between atoms: C_7  and  O_10
REMARK    5  A    between atoms: C_8  and  O_9
REMARK    6  A    between atoms: O_10  and  C_11
REMARK    7  A    between atoms: C_11  and  P_12
REMARK    8  A    between atoms: P_12  and  O_14
REMARK    9  A    between atoms: P_12  and  O_15
REMARK                            x       y       z     vdW  Elec       q    Type
REMARK                         _______ _______ _______ _____ _____    ______ ____
ROOT
ATOM      1  C   UNL     1       5.584   6.244  18.042  0.00  0.00    +0.000 C 
ENDROOT
BRANCH   1   2
ATOM      2  C   UNL     1       4.090   5.990  17.764  0.00  0.00    +0.000 C 
BRANCH   2   7
ATOM      3  N   UNL     1       0.633   2.986  20.745  0.00  0.00    +0.000 N 
ATOM      4  C   UNL     1       1.607   3.712  20.120  0.00  0.00    +0.000 A 
ATOM      5  C   UNL     1       1.881   5.096  20.550  0.00  0.00    +0.000 A 
ATOM      6  C   UNL     1       2.752   5.770  19.802  0.00  0.00    +0.000 A 
ATOM      7  N   UNL     1       3.368   5.171  18.725  0.00  0.00    +0.000 N 
ATOM      8  C   UNL     1       3.163   3.823  18.416  0.00  0.00    +0.000 A 
ATOM      9  O   UNL     1       3.773   3.286  17.494  0.00  0.00    +0.000 OA
ATOM     10  N   UNL     1       2.233   3.125  19.148  0.00  0.00    +0.000 NA
ATOM     11  H   UNL     1       0.468   3.159  21.727  0.00  0.00    +0.000 HD
ATOM     12  H   UNL     1       0.667   2.001  20.499  0.00  0.00    +0.000 HD
ENDBRANCH   2   7
ENDBRANCH   1   2
BRANCH   1  13
ATOM     13  C   UNL     1       6.133   5.294  19.116  0.00  0.00    +0.000 C 
BRANCH  13  14
ATOM     14  O   UNL     1       6.631   4.100  18.507  0.00  0.00    +0.000 OA
ATOM     15  H   UNL     1       6.314   3.363  19.062  0.00  0.00    +0.000 HD
ENDBRANCH  13  14
ENDBRANCH   1  13
BRANCH   1  16
ATOM     16  O   UNL     1       6.363   6.032  16.828  0.00  0.00    +0.000 OA
BRANCH  16  17
ATOM     17  C   UNL     1       5.510   5.881  15.681  0.00  0.00    +0.000 C 
BRANCH  17  18
ATOM     18  P   UNL     1       6.013   4.530  14.552  0.00  0.00    +0.000 P 
ATOM     19  O   UNL     1       7.420   5.115  14.404  0.00  0.00    +0.000 OA
BRANCH  18  20
ATOM     20  O   UNL     1       6.113   3.478  15.804  0.00  0.00    +0.000 OA
ATOM     21  H   UNL     1       6.000   3.965  16.646  0.00  0.00    +0.000 HD
ENDBRANCH  18  20
BRANCH  18  22
ATOM     22  O   UNL     1       6.487   3.254  13.486  0.00  0.00    +0.000 OA
ATOM     23  H   UNL     1       6.778   3.713  12.671  0.00  0.00    +0.000 HD
ENDBRANCH  18  22
ENDBRANCH  17  18
ENDBRANCH  16  17
ENDBRANCH   1  16
TORSDOF 9
ENDMDL
MODEL 2
REMARK VINA RESULT:      -6.2      1.454      1.736
REMARK  Name = 
REMARK  9 active torsions:
REMARK  status: ('A' for Active; 'I' for Inactive)
REMARK    1  A    between atoms: N_5  and  C_6
REMARK    2  A    between atoms: C_6  and  C_7
REMARK    3  A    between atoms: C_7  and  C_8
REMARK    4  A    between atoms: C_7  and  O_10
REMARK    5  A    between atoms: C_8  and  O_9
REMARK    6  A    between atoms: O_10  and  C_11
REMARK    7  A    between atoms: C_11  and  P_12
REMARK    8  A    between atoms: P_12  and  O_14
REMARK    9  A    between atoms: P_12  and  O_15
REMARK                            x       y       z     vdW  Elec       q    Type
REMARK                         _______ _______ _______ _____ _____    ______ ____
ROOT
ATOM      1  C   UNL     1       4.630   5.435  17.968  0.00  0.00    +0.000 C 
ENDROOT
BRANCH   1   2
ATOM      2  C   UNL     1       3.983   4.051  18.164  0.00  0.00    +0.000 C 
BRANCH   2   7
ATOM      3  N   UNL     1       0.959   2.395  22.403  0.00  0.00    +0.000 N 
ATOM      4  C   UNL     1       1.757   2.938  21.437  0.00  0.00    +0.000 A 
ATOM      5  C   UNL     1       1.255   4.055  20.613  0.00  0.00    +0.000 A 
ATOM      6  C   UNL     1       2.047   4.433  19.612  0.00  0.00    +0.000 A 
ATOM      7  N   UNL     1       3.266   3.825  19.409  0.00  0.00    +0.000 N 
ATOM      8  C   UNL     1       3.753   2.844  20.279  0.00  0.00    +0.000 A 
ATOM      9  O   UNL     1       4.873   2.361  20.123  0.00  0.00    +0.000 OA
ATOM     10  N   UNL     1       2.931   2.408  21.289  0.00  0.00    +0.000 NA
ATOM     11  H   UNL     1       0.305   3.003  22.878  0.00  0.00    +0.000 HD
ATOM     12  H   UNL     1       1.472   1.776  23.024  0.00  0.00    +0.000 HD
ENDBRANCH   2   7
ENDBRANCH   1   2
BRANCH   1  13
ATOM     13  C   UNL     1       6.041   5.495  18.569  0.00  0.00    +0.000 C 
BRANCH  13  14
ATOM     14  O   UNL     1       6.611   4.185  18.616  0.00  0.00    +0.000 OA
ATOM     15  H   UNL     1       6.273   3.717  17.829  0.00  0.00    +0.000 HD
ENDBRANCH  13  14
ENDBRANCH   1  13
BRANCH   1  16
ATOM     16  O   UNL     1       4.743   5.740  16.547  0.00  0.00    +0.000 OA
BRANCH  16  17
ATOM     17  C   UNL     1       5.213   4.601  15.806  0.00  0.00    +0.000 C 
BRANCH  17  18
ATOM     18  P   UNL     1       6.629   4.962  14.703  0.00  0.00    +0.000 P 
ATOM     19  O   UNL     1       7.632   4.689  15.827  0.00  0.00    +0.000 OA
BRANCH  18  20
ATOM     20  O   UNL     1       6.439   3.527  13.937  0.00  0.00    +0.000 OA
ATOM     21  H   UNL     1       5.644   3.566  13.368  0.00  0.00    +0.000 HD
ENDBRANCH  18  20
BRANCH  18  22
ATOM     22  O   UNL     1       7.967   5.303  13.662  0.00  0.00    +0.000 OA
ATOM     23  H   UNL     1       7.596   5.235  12.759  0.00  0.00    +0.000 HD
ENDBRANCH  18  22
ENDBRANCH  17  18
ENDBRANCH  16  17
ENDBRANCH   1  16
TORSDOF 9
ENDMDL
MODEL 3
REMARK VINA RESULT:      -6.1      1.322      1.453
REMARK  Name = 
REMARK  9 active torsions:
REMARK  status: ('A' for Active; 'I' for Inactive)
REMARK    1  A    between atoms: N_5  and  C_6
REMARK    2  A    between atoms: C_6  and  C_7
REMARK    3  A    between atoms: C_7  and  C_8
REMARK    4  A    between atoms: C_7  and  O_10
REMARK    5  A    between atoms: C_8  and  O_9
REMARK    6  A    between atoms: O_10  and  C_11
REMARK    7  A    between atoms: C_11  and  P_12
REMARK    8  A    between atoms: P_12  and  O_14
REMARK    9  A    between atoms: P_12  and  O_15
REMARK                            x       y       z     vdW  Elec       q    Type
REMARK                         _______ _______ _______ _____ _____    ______ ____
ROOT
ATOM      1  C   UNL     1       6.474   5.806  18.339  0.00  0.00    +0.000 C 
ENDROOT
BRANCH   1   2
ATOM      2  C   UNL     1       5.879   4.423  18.667  0.00  0.00    +0.000 C 
BRANCH   2   7
ATOM      3  N   UNL     1       0.740   3.930  20.458  0.00  0.00    +0.000 N 
ATOM      4  C   UNL     1       2.058   4.120  20.157  0.00  0.00    +0.000 A 
ATOM      5  C   UNL     1       2.535   5.458  19.757  0.00  0.00    +0.000 A 
ATOM      6  C   UNL     1       3.803   5.522  19.355  0.00  0.00    +0.000 A 
ATOM      7  N   UNL     1       4.601   4.400  19.362  0.00  0.00    +0.000 N 
ATOM      8  C   UNL     1       4.143   3.173  19.853  0.00  0.00    +0.000 A 
ATOM      9  O   UNL     1       4.890   2.199  19.915  0.00  0.00    +0.000 OA
ATOM     10  N   UNL     1       2.825   3.077  20.226  0.00  0.00    +0.000 NA
ATOM     11  H   UNL     1       0.233   4.698  20.878  0.00  0.00    +0.000 HD
ATOM     12  H   UNL     1       0.570   3.032  20.900  0.00  0.00    +0.000 HD
ENDBRANCH   2   7
ENDBRANCH   1   2
BRANCH   1  13
ATOM     13  C   UNL     1       7.801   6.043  19.073  0.00  0.00    +0.000 C 
BRANCH  13  14
ATOM     14  O   UNL     1       7.757   5.448  20.372  0.00  0.00    +0.000 OA
ATOM     15  H   UNL     1       7.984   4.508  20.245  0.00  0.00    +0.000 HD
ENDBRANCH  13  14
ENDBRANCH   1  13
BRANCH   1  16
ATOM     16  O   UNL     1       6.736   5.913  16.909  0.00  0.00    +0.000 OA
BRANCH  16  17
ATOM     17  C   UNL     1       5.603   5.482  16.137  0.00  0.00    +0.000 C 
BRANCH  17  18
ATOM     18  P   UNL     1       6.039   4.480  14.669  0.00  0.00    +0.000 P 
ATOM     19  O   UNL     1       7.436   5.105  14.601  0.00  0.00    +0.000 OA
BRANCH  18  20
ATOM     20  O   UNL     1       6.211   3.140  15.596  0.00  0.00    +0.000 OA
ATOM     21  H   UNL     1       7.020   2.660  15.323  0.00  0.00    +0.000 HD
ENDBRANCH  18  20
BRANCH  18  22
ATOM     22  O   UNL     1       6.452   3.534  13.282  0.00  0.00    +0.000 OA
ATOM     23  H   UNL     1       5.853   3.858  12.579  0.00  0.00    +0.000 HD
ENDBRANCH  18  22
ENDBRANCH  17  18
ENDBRANCH  16  17
ENDBRANCH   1  16
TORSDOF 9
ENDMDL
MODEL 4
REMARK VINA RESULT:      -6.0      2.098      3.403
REMARK  Name = 
REMARK  9 active torsions:
REMARK  status: ('A' for Active; 'I' for Inactive)
REMARK    1  A    between atoms: N_5  and  C_6
REMARK    2  A    between atoms: C_6  and  C_7
REMARK    3  A    between atoms: C_7  and  C_8
REMARK    4  A    between atoms: C_7  and  O_10
REMARK    5  A    between atoms: C_8  and  O_9
REMARK    6  A    between atoms: O_10  and  C_11
REMARK    7  A    between atoms: C_11  and  P_12
REMARK    8  A    between atoms: P_12  and  O_14
REMARK    9  A    between atoms: P_12  and  O_15
REMARK                            x       y       z     vdW  Elec       q    Type
REMARK                         _______ _______ _______ _____ _____    ______ ____
ROOT
ATOM      1  C   UNL     1       5.152   4.634  16.659  0.00  0.00    +0.000 C 
ENDROOT
BRANCH   1   2
ATOM      2  C   UNL     1       3.677   4.204  16.770  0.00  0.00    +0.000 C 
BRANCH   2   7
ATOM      3  N   UNL     1       2.103   2.669  21.773  0.00  0.00    +0.000 N 
ATOM      4  C   UNL     1       2.497   2.892  20.485  0.00  0.00    +0.000 A 
ATOM      5  C   UNL     1       3.908   2.693  20.103  0.00  0.00    +0.000 A 
ATOM      6  C   UNL     1       4.227   3.060  18.863  0.00  0.00    +0.000 A 
ATOM      7  N   UNL     1       3.269   3.554  18.006  0.00  0.00    +0.000 N 
ATOM      8  C   UNL     1       1.921   3.625  18.371  0.00  0.00    +0.000 A 
ATOM      9  O   UNL     1       1.069   4.004  17.570  0.00  0.00    +0.000 OA
ATOM     10  N   UNL     1       1.581   3.296  19.661  0.00  0.00    +0.000 NA
ATOM     11  H   UNL     1       2.580   1.948  22.298  0.00  0.00    +0.000 HD
ATOM     12  H   UNL     1       1.092   2.650  21.871  0.00  0.00    +0.000 HD
ENDBRANCH   2   7
ENDBRANCH   1   2
BRANCH   1  13
ATOM     13  C   UNL     1       5.628   4.663  15.199  0.00  0.00    +0.000 C 
BRANCH  13  14
ATOM     14  O   UNL     1       6.257   3.425  14.863  0.00  0.00    +0.000 OA
ATOM     15  H   UNL     1       6.547   3.514  13.936  0.00  0.00    +0.000 HD
ENDBRANCH  13  14
ENDBRANCH   1  13
BRANCH   1  16
ATOM     16  O   UNL     1       5.328   5.974  17.206  0.00  0.00    +0.000 OA
BRANCH  16  17
ATOM     17  C   UNL     1       6.720   6.288  17.379  0.00  0.00    +0.000 C 
BRANCH  17  18
ATOM     18  P   UNL     1       7.395   5.807  19.011  0.00  0.00    +0.000 P 
ATOM     19  O   UNL     1       8.126   4.605  18.405  0.00  0.00    +0.000 OA
BRANCH  18  20
ATOM     20  O   UNL     1       8.475   7.037  18.962  0.00  0.00    +0.000 OA
ATOM     21  H   UNL     1       7.997   7.884  18.844  0.00  0.00    +0.000 HD
ENDBRANCH  18  20
BRANCH  18  22
ATOM     22  O   UNL     1       8.032   5.352  20.553  0.00  0.00    +0.000 OA
ATOM     23  H   UNL     1       8.789   5.957  20.692  0.00  0.00    +0.000 HD
ENDBRANCH  18  22
ENDBRANCH  17  18
ENDBRANCH  16  17
ENDBRANCH   1  16
TORSDOF 9
ENDMDL
MODEL 5
REMARK VINA RESULT:      -5.8      2.053      3.587
REMARK  Name = 
REMARK  9 active torsions:
REMARK  status: ('A' for Active; 'I' for Inactive)
REMARK    1  A    between atoms: N_5  and  C_6
REMARK    2  A    between atoms: C_6  and  C_7
REMARK    3  A    between atoms: C_7  and  C_8
REMARK    4  A    between atoms: C_7  and  O_10
REMARK    5  A    between atoms: C_8  and  O_9
REMARK    6  A    between atoms: O_10  and  C_11
REMARK    7  A    between atoms: C_11  and  P_12
REMARK    8  A    between atoms: P_12  and  O_14
REMARK    9  A    between atoms: P_12  and  O_15
REMARK                            x       y       z     vdW  Elec       q    Type
REMARK                         _______ _______ _______ _____ _____    ______ ____
ROOT
ATOM      1  C   UNL     1       5.862   4.545  16.057  0.00  0.00    +0.000 C 
ENDROOT
BRANCH   1   2
ATOM      2  C   UNL     1       4.658   5.265  16.694  0.00  0.00    +0.000 C 
BRANCH   2   7
ATOM      3  N   UNL     1       1.569   2.428  20.196  0.00  0.00    +0.000 N 
ATOM      4  C   UNL     1       2.241   3.080  19.203  0.00  0.00    +0.000 A 
ATOM      5  C   UNL     1       3.195   2.341  18.353  0.00  0.00    +0.000 A 
ATOM      6  C   UNL     1       3.900   3.081  17.500  0.00  0.00    +0.000 A 
ATOM      7  N   UNL     1       3.700   4.442  17.415  0.00  0.00    +0.000 N 
ATOM      8  C   UNL     1       2.709   5.088  18.161  0.00  0.00    +0.000 A 
ATOM      9  O   UNL     1       2.498   6.291  18.022  0.00  0.00    +0.000 OA
ATOM     10  N   UNL     1       2.005   4.349  19.080  0.00  0.00    +0.000 NA
ATOM     11  H   UNL     1       1.333   1.455  20.051  0.00  0.00    +0.000 HD
ATOM     12  H   UNL     1       0.811   2.984  20.580  0.00  0.00    +0.000 HD
ENDBRANCH   2   7
ENDBRANCH   1   2
BRANCH   1  13
ATOM     13  C   UNL     1       5.805   4.588  14.523  0.00  0.00    +0.000 C 
BRANCH  13  14
ATOM     14  O   UNL     1       6.383   3.400  13.977  0.00  0.00    +0.000 OA
ATOM     15  H   UNL     1       5.652   2.920  13.545  0.00  0.00    +0.000 HD
ENDBRANCH  13  14
ENDBRANCH   1  13
BRANCH   1  16
ATOM     16  O   UNL     1       7.105   5.184  16.470  0.00  0.00    +0.000 OA
BRANCH  16  17
ATOM     17  C   UNL     1       6.873   6.155  17.504  0.00  0.00    +0.000 C 
BRANCH  17  18
ATOM     18  P   UNL     1       7.625   5.721  19.116  0.00  0.00    +0.000 P 
ATOM     19  O   UNL     1       6.276   5.260  19.673  0.00  0.00    +0.000 OA
BRANCH  18  20
ATOM     20  O   UNL     1       8.307   4.379  18.472  0.00  0.00    +0.000 OA
ATOM     21  H   UNL     1       8.213   3.634  19.101  0.00  0.00    +0.000 HD
ENDBRANCH  18  20
BRANCH  18  22
ATOM     22  O   UNL     1       8.335   5.312  20.638  0.00  0.00    +0.000 OA
ATOM     23  H   UNL     1       7.986   5.983  21.259  0.00  0.00    +0.000 HD
ENDBRANCH  18  22
ENDBRANCH  17  18
ENDBRANCH  16  17
ENDBRANCH   1  16
TORSDOF 9
ENDMDL
MODEL 6
REMARK VINA RESULT:      -5.8      3.411      5.882
REMARK  Name = 
REMARK  9 active torsions:
REMARK  status: ('A' for Active; 'I' for Inactive)
REMARK    1  A    between atoms: N_5  and  C_6
REMARK    2  A    between atoms: C_6  and  C_7
REMARK    3  A    between atoms: C_7  and  C_8
REMARK    4  A    between atoms: C_7  and  O_10
REMARK    5  A    between atoms: C_8  and  O_9
REMARK    6  A    between atoms: O_10  and  C_11
REMARK    7  A    between atoms: C_11  and  P_12
REMARK    8  A    between atoms: P_12  and  O_14
REMARK    9  A    between atoms: P_12  and  O_15
REMARK                            x       y       z     vdW  Elec       q    Type
REMARK                         _______ _______ _______ _____ _____    ______ ____
ROOT
ATOM      1  C   UNL     1       4.440   5.295  19.011  0.00  0.00    +0.000 C 
ENDROOT
BRANCH   1   2
ATOM      2  C   UNL     1       4.928   3.998  18.338  0.00  0.00    +0.000 C 
BRANCH   2   7
ATOM      3  N   UNL     1       7.654   5.480  13.839  0.00  0.00    +0.000 N 
ATOM      4  C   UNL     1       7.000   4.954  14.916  0.00  0.00    +0.000 A 
ATOM      5  C   UNL     1       5.617   4.460  14.767  0.00  0.00    +0.000 A 
ATOM      6  C   UNL     1       5.013   4.088  15.893  0.00  0.00    +0.000 A 
ATOM      7  N   UNL     1       5.678   4.137  17.098  0.00  0.00    +0.000 N 
ATOM      8  C   UNL     1       7.023   4.507  17.183  0.00  0.00    +0.000 A 
ATOM      9  O   UNL     1       7.620   4.480  18.257  0.00  0.00    +0.000 OA
ATOM     10  N   UNL     1       7.649   4.940  16.039  0.00  0.00    +0.000 NA
ATOM     11  H   UNL     1       7.441   5.106  12.924  0.00  0.00    +0.000 HD
ATOM     12  H   UNL     1       8.647   5.604  14.014  0.00  0.00    +0.000 HD
ENDBRANCH   2   7
ENDBRANCH   1   2
BRANCH   1  13
ATOM     13  C   UNL     1       3.935   6.315  17.981  0.00  0.00    +0.000 C 
BRANCH  13  14
ATOM     14  O   UNL     1       2.552   6.598  18.208  0.00  0.00    +0.000 OA
ATOM     15  H   UNL     1       2.509   7.535  18.472  0.00  0.00    +0.000 HD
ENDBRANCH  13  14
ENDBRANCH   1  13
BRANCH   1  16
ATOM     16  O   UNL     1       3.338   5.004  19.920  0.00  0.00    +0.000 OA
BRANCH  16  17
ATOM     17  C   UNL     1       3.161   3.587  20.088  0.00  0.00    +0.000 C 
BRANCH  17  18
ATOM     18  P   UNL     1       1.457   3.006  19.756  0.00  0.00    +0.000 P 
ATOM     19  O   UNL     1       1.281   4.024  18.626  0.00  0.00    +0.000 OA
BRANCH  18  20
ATOM     20  O   UNL     1       2.026   1.652  19.032  0.00  0.00    +0.000 OA
ATOM     21  H   UNL     1       2.930   1.820  18.694  0.00  0.00    +0.000 HD
ENDBRANCH  18  20
BRANCH  18  22
ATOM     22  O   UNL     1      -0.152   2.457  19.443  0.00  0.00    +0.000 OA
ATOM     23  H   UNL     1      -0.265   2.572  18.478  0.00  0.00    +0.000 HD
ENDBRANCH  18  22
ENDBRANCH  17  18
ENDBRANCH  16  17
ENDBRANCH   1  16
TORSDOF 9
ENDMDL
MODEL 7
REMARK VINA RESULT:      -5.8      1.345      1.678
REMARK  Name = 
REMARK  9 active torsions:
REMARK  status: ('A' for Active; 'I' for Inactive)
REMARK    1  A    between atoms: N_5  and  C_6
REMARK    2  A    between atoms: C_6  and  C_7
REMARK    3  A    between atoms: C_7  and  C_8
REMARK    4  A    between atoms: C_7  and  O_10
REMARK    5  A    between atoms: C_8  and  O_9
REMARK    6  A    between atoms: O_10  and  C_11
REMARK    7  A    between atoms: C_11  and  P_12
REMARK    8  A    between atoms: P_12  and  O_14
REMARK    9  A    between atoms: P_12  and  O_15
REMARK                            x       y       z     vdW  Elec       q    Type
REMARK                         _______ _______ _______ _____ _____    ______ ____
ROOT
ATOM      1  C   UNL     1       5.171   5.795  18.244  0.00  0.00    +0.000 C 
ENDROOT
BRANCH   1   2
ATOM      2  C   UNL     1       3.735   5.397  17.853  0.00  0.00    +0.000 C 
BRANCH   2   7
ATOM      3  N   UNL     1       1.656   2.627  22.081  0.00  0.00    +0.000 N 
ATOM      4  C   UNL     1       2.033   3.290  20.948  0.00  0.00    +0.000 A 
ATOM      5  C   UNL     1       2.495   2.529  19.771  0.00  0.00    +0.000 A 
ATOM      6  C   UNL     1       2.966   3.257  18.761  0.00  0.00    +0.000 A 
ATOM      7  N   UNL     1       2.971   4.633  18.828  0.00  0.00    +0.000 N 
ATOM      8  C   UNL     1       2.423   5.320  19.916  0.00  0.00    +0.000 A 
ATOM      9  O   UNL     1       2.374   6.548  19.929  0.00  0.00    +0.000 OA
ATOM     10  N   UNL     1       1.977   4.584  20.987  0.00  0.00    +0.000 NA
ATOM     11  H   UNL     1       1.231   1.716  21.979  0.00  0.00    +0.000 HD
ATOM     12  H   UNL     1       1.181   3.233  22.743  0.00  0.00    +0.000 HD
ENDBRANCH   2   7
ENDBRANCH   1   2
BRANCH   1  13
ATOM     13  C   UNL     1       5.845   4.719  19.107  0.00  0.00    +0.000 C 
BRANCH  13  14
ATOM     14  O   UNL     1       6.982   4.184  18.426  0.00  0.00    +0.000 OA
ATOM     15  H   UNL     1       7.659   4.887  18.441  0.00  0.00    +0.000 HD
ENDBRANCH  13  14
ENDBRANCH   1  13
BRANCH   1  16
ATOM     16  O   UNL     1       5.985   5.973  17.048  0.00  0.00    +0.000 OA
BRANCH  16  17
ATOM     17  C   UNL     1       5.209   5.773  15.855  0.00  0.00    +0.000 C 
BRANCH  17  18
ATOM     18  P   UNL     1       5.932   4.558  14.692  0.00  0.00    +0.000 P 
ATOM     19  O   UNL     1       7.310   5.220  14.785  0.00  0.00    +0.000 OA
BRANCH  18  20
ATOM     20  O   UNL     1       5.931   3.401  15.850  0.00  0.00    +0.000 OA
ATOM     21  H   UNL     1       6.786   2.924  15.833  0.00  0.00    +0.000 HD
ENDBRANCH  18  20
BRANCH  18  22
ATOM     22  O   UNL     1       6.615   3.411  13.593  0.00  0.00    +0.000 OA
ATOM     23  H   UNL     1       7.582   3.527  13.689  0.00  0.00    +0.000 HD
ENDBRANCH  18  22
ENDBRANCH  17  18
ENDBRANCH  16  17
ENDBRANCH   1  16
TORSDOF 9
ENDMDL
MODEL 8
REMARK VINA RESULT:      -5.8      3.668      6.415
REMARK  Name = 
REMARK  9 active torsions:
REMARK  status: ('A' for Active; 'I' for Inactive)
REMARK    1  A    between atoms: N_5  and  C_6
REMARK    2  A    between atoms: C_6  and  C_7
REMARK    3  A    between atoms: C_7  and  C_8
REMARK    4  A    between atoms: C_7  and  O_10
REMARK    5  A    between atoms: C_8  and  O_9
REMARK    6  A    between atoms: O_10  and  C_11
REMARK    7  A    between atoms: C_11  and  P_12
REMARK    8  A    between atoms: P_12  and  O_14
REMARK    9  A    between atoms: P_12  and  O_15
REMARK                            x       y       z     vdW  Elec       q    Type
REMARK                         _______ _______ _______ _____ _____    ______ ____
ROOT
ATOM      1  C   UNL     1       3.381   3.695  17.770  0.00  0.00    +0.000 C 
ENDROOT
BRANCH   1   2
ATOM      2  C   UNL     1       4.692   4.453  18.051  0.00  0.00    +0.000 C 
BRANCH   2   7
ATOM      3  N   UNL     1       7.860   5.500  13.723  0.00  0.00    +0.000 N 
ATOM      4  C   UNL     1       7.164   5.107  14.830  0.00  0.00    +0.000 A 
ATOM      5  C   UNL     1       6.175   4.016  14.727  0.00  0.00    +0.000 A 
ATOM      6  C   UNL     1       5.451   3.788  15.820  0.00  0.00    +0.000 A 
ATOM      7  N   UNL     1       5.664   4.517  16.970  0.00  0.00    +0.000 N 
ATOM      8  C   UNL     1       6.684   5.468  17.060  0.00  0.00    +0.000 A 
ATOM      9  O   UNL     1       6.904   6.061  18.115  0.00  0.00    +0.000 OA
ATOM     10  N   UNL     1       7.410   5.750  15.928  0.00  0.00    +0.000 NA
ATOM     11  H   UNL     1       8.081   4.801  13.027  0.00  0.00    +0.000 HD
ATOM     12  H   UNL     1       8.636   6.114  13.953  0.00  0.00    +0.000 HD
ENDBRANCH   2   7
ENDBRANCH   1   2
BRANCH   1  13
ATOM     13  C   UNL     1       3.547   2.181  17.961  0.00  0.00    +0.000 C 
BRANCH  13  14
ATOM     14  O   UNL     1       2.267   1.544  17.971  0.00  0.00    +0.000 OA
ATOM     15  H   UNL     1       2.424   0.630  18.274  0.00  0.00    +0.000 HD
ENDBRANCH  13  14
ENDBRANCH   1  13
BRANCH   1  16
ATOM     16  O   UNL     1       2.337   4.142  18.685  0.00  0.00    +0.000 OA
BRANCH  16  17
ATOM     17  C   UNL     1       2.860   4.361  20.006  0.00  0.00    +0.000 C 
BRANCH  17  18
ATOM     18  P   UNL     1       2.012   3.399  21.312  0.00  0.00    +0.000 P 
ATOM     19  O   UNL     1       1.090   2.733  20.287  0.00  0.00    +0.000 OA
BRANCH  18  20
ATOM     20  O   UNL     1       3.298   2.395  21.452  0.00  0.00    +0.000 OA
ATOM     21  H   UNL     1       3.873   2.493  20.666  0.00  0.00    +0.000 HD
ENDBRANCH  18  20
BRANCH  18  22
ATOM     22  O   UNL     1       1.210   2.491  22.546  0.00  0.00    +0.000 OA
ATOM     23  H   UNL     1       1.861   1.810  22.809  0.00  0.00    +0.000 HD
ENDBRANCH  18  22
ENDBRANCH  17  18
ENDBRANCH  16  17
ENDBRANCH   1  16
TORSDOF 9
ENDMDL
MODEL 9
REMARK VINA RESULT:      -5.8      1.519      1.794
REMARK  Name = 
REMARK  9 active torsions:
REMARK  status: ('A' for Active; 'I' for Inactive)
REMARK    1  A    between atoms: N_5  and  C_6
REMARK    2  A    between atoms: C_6  and  C_7
REMARK    3  A    between atoms: C_7  and  C_8
REMARK    4  A    between atoms: C_7  and  O_10
REMARK    5  A    between atoms: C_8  and  O_9
REMARK    6  A    between atoms: O_10  and  C_11
REMARK    7  A    between atoms: C_11  and  P_12
REMARK    8  A    between atoms: P_12  and  O_14
REMARK    9  A    between atoms: P_12  and  O_15
REMARK                            x       y       z     vdW  Elec       q    Type
REMARK                         _______ _______ _______ _____ _____    ______ ____
ROOT
ATOM      1  C   UNL     1       6.484   5.805  18.295  0.00  0.00    +0.000 C 
ENDROOT
BRANCH   1   2
ATOM      2  C   UNL     1       5.932   4.432  18.721  0.00  0.00    +0.000 C 
BRANCH   2   7
ATOM      3  N   UNL     1       0.730   3.964  20.330  0.00  0.00    +0.000 N 
ATOM      4  C   UNL     1       2.060   4.147  20.076  0.00  0.00    +0.000 A 
ATOM      5  C   UNL     1       2.558   5.483  19.695  0.00  0.00    +0.000 A 
ATOM      6  C   UNL     1       3.839   5.541  19.339  0.00  0.00    +0.000 A 
ATOM      7  N   UNL     1       4.630   4.414  19.371  0.00  0.00    +0.000 N 
ATOM      8  C   UNL     1       4.149   3.189  19.842  0.00  0.00    +0.000 A 
ATOM      9  O   UNL     1       4.888   2.210  19.929  0.00  0.00    +0.000 OA
ATOM     10  N   UNL     1       2.817   3.099  20.169  0.00  0.00    +0.000 NA
ATOM     11  H   UNL     1       0.213   4.733  20.733  0.00  0.00    +0.000 HD
ATOM     12  H   UNL     1       0.540   3.065  20.763  0.00  0.00    +0.000 HD
ENDBRANCH   2   7
ENDBRANCH   1   2
BRANCH   1  13
ATOM     13  C   UNL     1       7.770   6.162  19.053  0.00  0.00    +0.000 C 
BRANCH  13  14
ATOM     14  O   UNL     1       7.798   5.490  20.315  0.00  0.00    +0.000 OA
ATOM     15  H   UNL     1       8.665   5.045  20.363  0.00  0.00    +0.000 HD
ENDBRANCH  13  14
ENDBRANCH   1  13
BRANCH   1  16
ATOM     16  O   UNL     1       6.800   5.799  16.872  0.00  0.00    +0.000 OA
BRANCH  16  17
ATOM     17  C   UNL     1       6.984   4.460  16.384  0.00  0.00    +0.000 C 
BRANCH  17  18
ATOM     18  P   UNL     1       6.666   4.269  14.591  0.00  0.00    +0.000 P 
ATOM     19  O   UNL     1       5.297   4.944  14.716  0.00  0.00    +0.000 OA
BRANCH  18  20
ATOM     20  O   UNL     1       7.713   5.480  14.244  0.00  0.00    +0.000 OA
ATOM     21  H   UNL     1       8.627   5.130  14.252  0.00  0.00    +0.000 HD
ENDBRANCH  18  20
BRANCH  18  22
ATOM     22  O   UNL     1       6.364   4.089  12.898  0.00  0.00    +0.000 OA
ATOM     23  H   UNL     1       5.742   4.813  12.683  0.00  0.00    +0.000 HD
ENDBRANCH  18  22
ENDBRANCH  17  18
ENDBRANCH  16  17
ENDBRANCH   1  16
TORSDOF 9
ENDMDL
