MODEL 1
REMARK VINA RESULT:      -8.5      0.000      0.000
REMARK  Name = 
REMARK  7 active torsions:
REMARK  status: ('A' for Active; 'I' for Inactive)
REMARK    1  A    between atoms: C_1  and  C_2
REMARK    2  A    between atoms: C_2  and  C_3
REMARK    3  A    between atoms: C_5  and  N_6
REMARK    4  A    between atoms: N_6  and  C_7
REMARK    5  A    between atoms: C_7  and  N_9
REMARK    6  A    between atoms: N_9  and  C_10
REMARK    7  A    between atoms: C_13  and  C_14
REMARK                            x       y       z     vdW  Elec       q    Type
REMARK                         _______ _______ _______ _____ _____    ______ ____
ROOT
ATOM      1  N   UNL     1       4.253   4.163  16.555  0.00  0.00    +0.000 N 
ATOM      2  H   UNL     1       4.085   5.144  16.394  0.00  0.00    +0.000 HD
ENDROOT
BRANCH   1   7
ATOM      3  C   UNL     1       7.721   6.664  17.996  0.00  0.00    +0.000 C 
ATOM      4  C   UNL     1       6.835   5.995  16.934  0.00  0.00    +0.000 C 
ATOM      5  C   UNL     1       5.611   6.906  16.725  0.00  0.00    +0.000 C 
ATOM      6  C   UNL     1       6.539   4.566  17.408  0.00  0.00    +0.000 C 
ATOM      7  C   UNL     1       5.662   3.797  16.417  0.00  0.00    +0.000 C 
ATOM      8  C   UNL     1       6.163   4.072  15.011  0.00  0.00    +0.000 A 
ATOM      9  C   UNL     1       5.707   3.300  13.930  0.00  0.00    +0.000 A 
ATOM     10  C   UNL     1       6.224   3.511  12.653  0.00  0.00    +0.000 A 
ATOM     11  F   UNL     1       5.789   2.760  11.633  0.00  0.00    +0.000 F 
ATOM     12  C   UNL     1       7.190   4.481  12.418  0.00  0.00    +0.000 A 
ATOM     13  C   UNL     1       7.631   5.272  13.475  0.00  0.00    +0.000 A 
ATOM     14  C   UNL     1       7.107   5.085  14.758  0.00  0.00    +0.000 A 
ATOM     15  O   UNL     1       7.591   5.944  15.713  0.00  0.00    +0.000 OA
ENDBRANCH   1   7
BRANCH   1  16
ATOM     16  C   UNL     1       3.303   3.524  17.329  0.00  0.00    +0.000 C 
ATOM     17  S   UNL     1       3.447   2.013  18.021  0.00  0.00    +0.000 S 
BRANCH  16  18
ATOM     18  N   UNL     1       2.209   4.303  17.654  0.00  0.00    +0.000 N 
ATOM     19  H   UNL     1       1.332   3.981  17.258  0.00  0.00    +0.000 HD
BRANCH  18  20
ATOM     20  C   UNL     1       2.176   5.320  18.621  0.00  0.00    +0.000 A 
ATOM     21  C   UNL     1       1.855   5.015  19.947  0.00  0.00    +0.000 A 
ATOM     22  C   UNL     1       1.620   6.031  20.864  0.00  0.00    +0.000 A 
ATOM     23  C   UNL     1       1.742   7.361  20.461  0.00  0.00    +0.000 A 
ATOM     24  C   UNL     1       2.175   7.670  19.168  0.00  0.00    +0.000 A 
ATOM     25  C   UNL     1       2.412   6.643  18.246  0.00  0.00    +0.000 A 
BRANCH  23  26
ATOM     26  C   UNL     1       1.384   8.409  21.369  0.00  0.00    +0.000 C 
ATOM     27  N   UNL     1       1.063   9.220  22.134  0.00  0.00    +0.000 NA
ENDBRANCH  23  26
ENDBRANCH  18  20
ENDBRANCH  16  18
ENDBRANCH   1  16
TORSDOF 5
ENDMDL
MODEL 2
REMARK VINA RESULT:      -8.0      1.141      1.576
REMARK  Name = 
REMARK  7 active torsions:
REMARK  status: ('A' for Active; 'I' for Inactive)
REMARK    1  A    between atoms: C_1  and  C_2
REMARK    2  A    between atoms: C_2  and  C_3
REMARK    3  A    between atoms: C_5  and  N_6
REMARK    4  A    between atoms: N_6  and  C_7
REMARK    5  A    between atoms: C_7  and  N_9
REMARK    6  A    between atoms: N_9  and  C_10
REMARK    7  A    between atoms: C_13  and  C_14
REMARK                            x       y       z     vdW  Elec       q    Type
REMARK                         _______ _______ _______ _____ _____    ______ ____
ROOT
ATOM      1  N   UNL     1       4.034   4.618  16.780  0.00  0.00    +0.000 N 
ATOM      2  H   UNL     1       3.919   5.448  16.220  0.00  0.00    +0.000 HD
ENDROOT
BRANCH   1   7
ATOM      3  C   UNL     1       7.803   6.591  18.288  0.00  0.00    +0.000 C 
ATOM      4  C   UNL     1       6.852   6.050  17.209  0.00  0.00    +0.000 C 
ATOM      5  C   UNL     1       5.781   7.131  16.965  0.00  0.00    +0.000 C 
ATOM      6  C   UNL     1       6.335   4.686  17.685  0.00  0.00    +0.000 C 
ATOM      7  C   UNL     1       5.377   4.046  16.679  0.00  0.00    +0.000 C 
ATOM      8  C   UNL     1       5.944   4.229  15.283  0.00  0.00    +0.000 A 
ATOM      9  C   UNL     1       5.403   3.523  14.197  0.00  0.00    +0.000 A 
ATOM     10  C   UNL     1       5.975   3.641  12.931  0.00  0.00    +0.000 A 
ATOM     11  F   UNL     1       5.456   2.953  11.906  0.00  0.00    +0.000 F 
ATOM     12  C   UNL     1       7.079   4.455  12.713  0.00  0.00    +0.000 A 
ATOM     13  C   UNL     1       7.609   5.182  13.776  0.00  0.00    +0.000 A 
ATOM     14  C   UNL     1       7.034   5.088  15.047  0.00  0.00    +0.000 A 
ATOM     15  O   UNL     1       7.618   5.876  16.007  0.00  0.00    +0.000 OA
ENDBRANCH   1   7
BRANCH   1  16
ATOM     16  C   UNL     1       3.164   4.505  17.847  0.00  0.00    +0.000 C 
ATOM     17  S   UNL     1       2.057   3.281  18.092  0.00  0.00    +0.000 S 
BRANCH  16  18
ATOM     18  N   UNL     1       3.362   5.433  18.851  0.00  0.00    +0.000 N 
ATOM     19  H   UNL     1       4.245   5.339  19.342  0.00  0.00    +0.000 HD
BRANCH  18  20
ATOM     20  C   UNL     1       2.581   6.575  19.086  0.00  0.00    +0.000 A 
ATOM     21  C   UNL     1       2.395   7.518  18.069  0.00  0.00    +0.000 A 
ATOM     22  C   UNL     1       1.801   8.742  18.347  0.00  0.00    +0.000 A 
ATOM     23  C   UNL     1       1.357   9.012  19.642  0.00  0.00    +0.000 A 
ATOM     24  C   UNL     1       1.436   8.030  20.634  0.00  0.00    +0.000 A 
ATOM     25  C   UNL     1       2.035   6.796  20.351  0.00  0.00    +0.000 A 
BRANCH  23  26
ATOM     26  C   UNL     1       0.856  10.316  19.958  0.00  0.00    +0.000 C 
ATOM     27  N   UNL     1       0.492  11.378  20.250  0.00  0.00    +0.000 NA
ENDBRANCH  23  26
ENDBRANCH  18  20
ENDBRANCH  16  18
ENDBRANCH   1  16
TORSDOF 5
ENDMDL
MODEL 3
REMARK VINA RESULT:      -8.0      1.508      1.733
REMARK  Name = 
REMARK  7 active torsions:
REMARK  status: ('A' for Active; 'I' for Inactive)
REMARK    1  A    between atoms: C_1  and  C_2
REMARK    2  A    between atoms: C_2  and  C_3
REMARK    3  A    between atoms: C_5  and  N_6
REMARK    4  A    between atoms: N_6  and  C_7
REMARK    5  A    between atoms: C_7  and  N_9
REMARK    6  A    between atoms: N_9  and  C_10
REMARK    7  A    between atoms: C_13  and  C_14
REMARK                            x       y       z     vdW  Elec       q    Type
REMARK                         _______ _______ _______ _____ _____    ______ ____
ROOT
ATOM      1  N   UNL     1       3.892   4.931  16.944  0.00  0.00    +0.000 N 
ATOM      2  H   UNL     1       3.910   5.793  16.421  0.00  0.00    +0.000 HD
ENDROOT
BRANCH   1   7
ATOM      3  C   UNL     1       7.844   6.437  18.516  0.00  0.00    +0.000 C 
ATOM      4  C   UNL     1       6.855   6.010  17.421  0.00  0.00    +0.000 C 
ATOM      5  C   UNL     1       5.930   7.211  17.150  0.00  0.00    +0.000 C 
ATOM      6  C   UNL     1       6.166   4.722  17.894  0.00  0.00    +0.000 C 
ATOM      7  C   UNL     1       5.155   4.197  16.873  0.00  0.00    +0.000 C 
ATOM      8  C   UNL     1       5.768   4.298  15.487  0.00  0.00    +0.000 A 
ATOM      9  C   UNL     1       5.165   3.655  14.394  0.00  0.00    +0.000 A 
ATOM     10  C   UNL     1       5.771   3.694  13.139  0.00  0.00    +0.000 A 
ATOM     11  F   UNL     1       5.191   3.066  12.108  0.00  0.00    +0.000 F 
ATOM     12  C   UNL     1       6.971   4.363  12.939  0.00  0.00    +0.000 A 
ATOM     13  C   UNL     1       7.566   5.028  14.008  0.00  0.00    +0.000 A 
ATOM     14  C   UNL     1       6.959   5.015  15.268  0.00  0.00    +0.000 A 
ATOM     15  O   UNL     1       7.617   5.733  16.236  0.00  0.00    +0.000 OA
ENDBRANCH   1   7
BRANCH   1  16
ATOM     16  C   UNL     1       2.962   4.881  17.964  0.00  0.00    +0.000 C 
ATOM     17  S   UNL     1       1.776   3.726  18.164  0.00  0.00    +0.000 S 
BRANCH  16  18
ATOM     18  N   UNL     1       3.160   5.811  18.967  0.00  0.00    +0.000 N 
ATOM     19  H   UNL     1       3.934   5.599  19.589  0.00  0.00    +0.000 HD
BRANCH  18  20
ATOM     20  C   UNL     1       2.553   7.073  19.057  0.00  0.00    +0.000 A 
ATOM     21  C   UNL     1       1.976   7.487  20.263  0.00  0.00    +0.000 A 
ATOM     22  C   UNL     1       1.199   8.637  20.310  0.00  0.00    +0.000 A 
ATOM     23  C   UNL     1       1.025   9.396  19.153  0.00  0.00    +0.000 A 
ATOM     24  C   UNL     1       1.692   9.049  17.974  0.00  0.00    +0.000 A 
ATOM     25  C   UNL     1       2.476   7.890  17.929  0.00  0.00    +0.000 A 
BRANCH  23  26
ATOM     26  C   UNL     1       0.128  10.512  19.169  0.00  0.00    +0.000 C 
ATOM     27  N   UNL     1      -0.640  11.382  19.165  0.00  0.00    +0.000 NA
ENDBRANCH  23  26
ENDBRANCH  18  20
ENDBRANCH  16  18
ENDBRANCH   1  16
TORSDOF 5
ENDMDL
MODEL 4
REMARK VINA RESULT:      -7.7      0.424      1.055
REMARK  Name = 
REMARK  7 active torsions:
REMARK  status: ('A' for Active; 'I' for Inactive)
REMARK    1  A    between atoms: C_1  and  C_2
REMARK    2  A    between atoms: C_2  and  C_3
REMARK    3  A    between atoms: C_5  and  N_6
REMARK    4  A    between atoms: N_6  and  C_7
REMARK    5  A    between atoms: C_7  and  N_9
REMARK    6  A    between atoms: N_9  and  C_10
REMARK    7  A    between atoms: C_13  and  C_14
REMARK                            x       y       z     vdW  Elec       q    Type
REMARK                         _______ _______ _______ _____ _____    ______ ____
ROOT
ATOM      1  N   UNL     1       4.496   4.084  16.807  0.00  0.00    +0.000 N 
ATOM      2  H   UNL     1       4.172   4.917  16.342  0.00  0.00    +0.000 HD
ENDROOT
BRANCH   1   7
ATOM      3  C   UNL     1       7.832   6.874  18.011  0.00  0.00    +0.000 C 
ATOM      4  C   UNL     1       6.942   6.122  17.010  0.00  0.00    +0.000 C 
ATOM      5  C   UNL     1       5.638   6.929  16.867  0.00  0.00    +0.000 C 
ATOM      6  C   UNL     1       6.790   4.680  17.517  0.00  0.00    +0.000 C 
ATOM      7  C   UNL     1       5.920   3.830  16.589  0.00  0.00    +0.000 C 
ATOM      8  C   UNL     1       6.312   4.122  15.152  0.00  0.00    +0.000 A 
ATOM      9  C   UNL     1       5.857   3.300  14.109  0.00  0.00    +0.000 A 
ATOM     10  C   UNL     1       6.278   3.532  12.800  0.00  0.00    +0.000 A 
ATOM     11  F   UNL     1       5.845   2.733  11.817  0.00  0.00    +0.000 F 
ATOM     12  C   UNL     1       7.148   4.572  12.497  0.00  0.00    +0.000 A 
ATOM     13  C   UNL     1       7.586   5.412  13.518  0.00  0.00    +0.000 A 
ATOM     14  C   UNL     1       7.156   5.203  14.832  0.00  0.00    +0.000 A 
ATOM     15  O   UNL     1       7.625   6.112  15.747  0.00  0.00    +0.000 OA
ENDBRANCH   1   7
BRANCH   1  16
ATOM     16  C   UNL     1       3.741   3.686  17.893  0.00  0.00    +0.000 C 
ATOM     17  S   UNL     1       4.269   2.759  19.176  0.00  0.00    +0.000 S 
BRANCH  16  18
ATOM     18  N   UNL     1       2.481   4.249  17.953  0.00  0.00    +0.000 N 
ATOM     19  H   UNL     1       1.761   3.718  17.474  0.00  0.00    +0.000 HD
BRANCH  18  20
ATOM     20  C   UNL     1       2.093   5.321  18.771  0.00  0.00    +0.000 A 
ATOM     21  C   UNL     1       2.321   6.637  18.354  0.00  0.00    +0.000 A 
ATOM     22  C   UNL     1       2.131   7.695  19.234  0.00  0.00    +0.000 A 
ATOM     23  C   UNL     1       1.675   7.439  20.527  0.00  0.00    +0.000 A 
ATOM     24  C   UNL     1       1.337   6.138  20.912  0.00  0.00    +0.000 A 
ATOM     25  C   UNL     1       1.528   5.073  20.023  0.00  0.00    +0.000 A 
BRANCH  23  26
ATOM     26  C   UNL     1       1.595   8.512  21.472  0.00  0.00    +0.000 C 
ATOM     27  N   UNL     1       1.477   9.367  22.247  0.00  0.00    +0.000 NA
ENDBRANCH  23  26
ENDBRANCH  18  20
ENDBRANCH  16  18
ENDBRANCH   1  16
TORSDOF 5
ENDMDL
MODEL 5
REMARK VINA RESULT:      -7.5      2.971      4.509
REMARK  Name = 
REMARK  7 active torsions:
REMARK  status: ('A' for Active; 'I' for Inactive)
REMARK    1  A    between atoms: C_1  and  C_2
REMARK    2  A    between atoms: C_2  and  C_3
REMARK    3  A    between atoms: C_5  and  N_6
REMARK    4  A    between atoms: N_6  and  C_7
REMARK    5  A    between atoms: C_7  and  N_9
REMARK    6  A    between atoms: N_9  and  C_10
REMARK    7  A    between atoms: C_13  and  C_14
REMARK                            x       y       z     vdW  Elec       q    Type
REMARK                         _______ _______ _______ _____ _____    ______ ____
ROOT
ATOM      1  N   UNL     1       3.435   6.006  19.491  0.00  0.00    +0.000 N 
ATOM      2  H   UNL     1       4.232   5.613  19.966  0.00  0.00    +0.000 HD
ENDROOT
BRANCH   1   7
ATOM      3  C   UNL     1       2.629   2.074  17.428  0.00  0.00    +0.000 C 
ATOM      4  C   UNL     1       3.502   3.257  17.874  0.00  0.00    +0.000 C 
ATOM      5  C   UNL     1       3.927   2.984  19.329  0.00  0.00    +0.000 C 
ATOM      6  C   UNL     1       2.698   4.543  17.637  0.00  0.00    +0.000 C 
ATOM      7  C   UNL     1       3.476   5.796  18.044  0.00  0.00    +0.000 C 
ATOM      8  C   UNL     1       4.906   5.660  17.553  0.00  0.00    +0.000 A 
ATOM      9  C   UNL     1       5.771   6.766  17.564  0.00  0.00    +0.000 A 
ATOM     10  C   UNL     1       7.060   6.652  17.045  0.00  0.00    +0.000 A 
ATOM     11  F   UNL     1       7.869   7.719  17.051  0.00  0.00    +0.000 F 
ATOM     12  C   UNL     1       7.519   5.453  16.514  0.00  0.00    +0.000 A 
ATOM     13  C   UNL     1       6.682   4.340  16.522  0.00  0.00    +0.000 A 
ATOM     14  C   UNL     1       5.393   4.436  17.056  0.00  0.00    +0.000 A 
ATOM     15  O   UNL     1       4.672   3.268  17.042  0.00  0.00    +0.000 OA
ENDBRANCH   1   7
BRANCH   1  16
ATOM     16  C   UNL     1       2.308   6.170  20.272  0.00  0.00    +0.000 C 
ATOM     17  S   UNL     1       1.273   4.963  20.778  0.00  0.00    +0.000 S 
BRANCH  16  18
ATOM     18  N   UNL     1       2.140   7.444  20.778  0.00  0.00    +0.000 N 
ATOM     19  H   UNL     1       2.738   7.665  21.568  0.00  0.00    +0.000 HD
BRANCH  18  20
ATOM     20  C   UNL     1       1.408   8.482  20.179  0.00  0.00    +0.000 A 
ATOM     21  C   UNL     1       0.401   9.134  20.899  0.00  0.00    +0.000 A 
ATOM     22  C   UNL     1      -0.461  10.015  20.259  0.00  0.00    +0.000 A 
ATOM     23  C   UNL     1      -0.292  10.273  18.898  0.00  0.00    +0.000 A 
ATOM     24  C   UNL     1       0.782   9.713  18.201  0.00  0.00    +0.000 A 
ATOM     25  C   UNL     1       1.651   8.826  18.849  0.00  0.00    +0.000 A 
BRANCH  23  26
ATOM     26  C   UNL     1      -1.251  11.085  18.211  0.00  0.00    +0.000 C 
ATOM     27  N   UNL     1      -2.025  11.780  17.696  0.00  0.00    +0.000 NA
ENDBRANCH  23  26
ENDBRANCH  18  20
ENDBRANCH  16  18
ENDBRANCH   1  16
TORSDOF 5
ENDMDL
MODEL 6
REMARK VINA RESULT:      -7.3      2.923      4.550
REMARK  Name = 
REMARK  7 active torsions:
REMARK  status: ('A' for Active; 'I' for Inactive)
REMARK    1  A    between atoms: C_1  and  C_2
REMARK    2  A    between atoms: C_2  and  C_3
REMARK    3  A    between atoms: C_5  and  N_6
REMARK    4  A    between atoms: N_6  and  C_7
REMARK    5  A    between atoms: C_7  and  N_9
REMARK    6  A    between atoms: N_9  and  C_10
REMARK    7  A    between atoms: C_13  and  C_14
REMARK                            x       y       z     vdW  Elec       q    Type
REMARK                         _______ _______ _______ _____ _____    ______ ____
ROOT
ATOM      1  N   UNL     1       3.439   5.987  19.506  0.00  0.00    +0.000 N 
ATOM      2  H   UNL     1       4.249   5.609  19.972  0.00  0.00    +0.000 HD
ENDROOT
BRANCH   1   7
ATOM      3  C   UNL     1       2.636   2.072  17.412  0.00  0.00    +0.000 C 
ATOM      4  C   UNL     1       3.507   3.254  17.865  0.00  0.00    +0.000 C 
ATOM      5  C   UNL     1       3.940   2.969  19.315  0.00  0.00    +0.000 C 
ATOM      6  C   UNL     1       2.698   4.539  17.643  0.00  0.00    +0.000 C 
ATOM      7  C   UNL     1       3.474   5.790  18.057  0.00  0.00    +0.000 C 
ATOM      8  C   UNL     1       4.902   5.664  17.558  0.00  0.00    +0.000 A 
ATOM      9  C   UNL     1       5.763   6.773  17.574  0.00  0.00    +0.000 A 
ATOM     10  C   UNL     1       7.050   6.667  17.049  0.00  0.00    +0.000 A 
ATOM     11  F   UNL     1       7.856   7.737  17.061  0.00  0.00    +0.000 F 
ATOM     12  C   UNL     1       7.510   5.475  16.505  0.00  0.00    +0.000 A 
ATOM     13  C   UNL     1       6.677   4.360  16.507  0.00  0.00    +0.000 A 
ATOM     14  C   UNL     1       5.390   4.446  17.048  0.00  0.00    +0.000 A 
ATOM     15  O   UNL     1       4.673   3.275  17.027  0.00  0.00    +0.000 OA
ENDBRANCH   1   7
BRANCH   1  16
ATOM     16  C   UNL     1       2.314   6.119  20.297  0.00  0.00    +0.000 C 
ATOM     17  S   UNL     1       1.314   4.884  20.804  0.00  0.00    +0.000 S 
BRANCH  16  18
ATOM     18  N   UNL     1       2.119   7.386  20.811  0.00  0.00    +0.000 N 
ATOM     19  H   UNL     1       2.709   7.613  21.605  0.00  0.00    +0.000 HD
BRANCH  18  20
ATOM     20  C   UNL     1       1.369   8.413  20.217  0.00  0.00    +0.000 A 
ATOM     21  C   UNL     1       1.638   8.805  18.902  0.00  0.00    +0.000 A 
ATOM     22  C   UNL     1       1.047   9.946  18.375  0.00  0.00    +0.000 A 
ATOM     23  C   UNL     1       0.155  10.681  19.156  0.00  0.00    +0.000 A 
ATOM     24  C   UNL     1      -0.205  10.230  20.430  0.00  0.00    +0.000 A 
ATOM     25  C   UNL     1       0.391   9.078  20.958  0.00  0.00    +0.000 A 
BRANCH  23  26
ATOM     26  C   UNL     1      -0.360  11.922  18.660  0.00  0.00    +0.000 C 
ATOM     27  N   UNL     1      -0.818  12.923  18.296  0.00  0.00    +0.000 NA
ENDBRANCH  23  26
ENDBRANCH  18  20
ENDBRANCH  16  18
ENDBRANCH   1  16
TORSDOF 5
ENDMDL
MODEL 7
REMARK VINA RESULT:      -7.3      3.414      6.577
REMARK  Name = 
REMARK  7 active torsions:
REMARK  status: ('A' for Active; 'I' for Inactive)
REMARK    1  A    between atoms: C_1  and  C_2
REMARK    2  A    between atoms: C_2  and  C_3
REMARK    3  A    between atoms: C_5  and  N_6
REMARK    4  A    between atoms: N_6  and  C_7
REMARK    5  A    between atoms: C_7  and  N_9
REMARK    6  A    between atoms: N_9  and  C_10
REMARK    7  A    between atoms: C_13  and  C_14
REMARK                            x       y       z     vdW  Elec       q    Type
REMARK                         _______ _______ _______ _____ _____    ______ ____
ROOT
ATOM      1  N   UNL     1       3.357   4.337  17.984  0.00  0.00    +0.000 N 
ATOM      2  H   UNL     1       2.384   4.396  17.728  0.00  0.00    +0.000 HD
ENDROOT
BRANCH   1   7
ATOM      3  C   UNL     1       1.900   3.171  22.092  0.00  0.00    +0.000 C 
ATOM      4  C   UNL     1       1.982   4.070  20.849  0.00  0.00    +0.000 C 
ATOM      5  C   UNL     1       1.038   3.469  19.791  0.00  0.00    +0.000 C 
ATOM      6  C   UNL     1       3.460   4.177  20.450  0.00  0.00    +0.000 C 
ATOM      7  C   UNL     1       3.665   5.060  19.218  0.00  0.00    +0.000 C 
ATOM      8  C   UNL     1       2.796   6.297  19.356  0.00  0.00    +0.000 A 
ATOM      9  C   UNL     1       2.976   7.393  18.498  0.00  0.00    +0.000 A 
ATOM     10  C   UNL     1       2.223   8.552  18.676  0.00  0.00    +0.000 A 
ATOM     11  F   UNL     1       2.413   9.594  17.857  0.00  0.00    +0.000 F 
ATOM     12  C   UNL     1       1.284   8.651  19.695  0.00  0.00    +0.000 A 
ATOM     13  C   UNL     1       1.076   7.562  20.537  0.00  0.00    +0.000 A 
ATOM     14  C   UNL     1       1.810   6.386  20.357  0.00  0.00    +0.000 A 
ATOM     15  O   UNL     1       1.495   5.368  21.223  0.00  0.00    +0.000 OA
ENDBRANCH   1   7
BRANCH   1  16
ATOM     16  C   UNL     1       4.034   3.247  17.472  0.00  0.00    +0.000 C 
ATOM     17  S   UNL     1       3.543   1.655  17.548  0.00  0.00    +0.000 S 
BRANCH  16  18
ATOM     18  N   UNL     1       5.142   3.565  16.710  0.00  0.00    +0.000 N 
ATOM     19  H   UNL     1       5.251   3.003  15.872  0.00  0.00    +0.000 HD
BRANCH  18  20
ATOM     20  C   UNL     1       5.963   4.692  16.874  0.00  0.00    +0.000 A 
ATOM     21  C   UNL     1       6.965   4.691  17.850  0.00  0.00    +0.000 A 
ATOM     22  C   UNL     1       7.644   5.863  18.159  0.00  0.00    +0.000 A 
ATOM     23  C   UNL     1       7.344   7.034  17.464  0.00  0.00    +0.000 A 
ATOM     24  C   UNL     1       6.425   7.014  16.410  0.00  0.00    +0.000 A 
ATOM     25  C   UNL     1       5.743   5.832  16.100  0.00  0.00    +0.000 A 
BRANCH  23  26
ATOM     26  C   UNL     1       7.954   8.267  17.863  0.00  0.00    +0.000 C 
ATOM     27  N   UNL     1       8.466   9.240  18.233  0.00  0.00    +0.000 NA
ENDBRANCH  23  26
ENDBRANCH  18  20
ENDBRANCH  16  18
ENDBRANCH   1  16
TORSDOF 5
ENDMDL
MODEL 8
REMARK VINA RESULT:      -7.2      3.766      5.380
REMARK  Name = 
REMARK  7 active torsions:
REMARK  status: ('A' for Active; 'I' for Inactive)
REMARK    1  A    between atoms: C_1  and  C_2
REMARK    2  A    between atoms: C_2  and  C_3
REMARK    3  A    between atoms: C_5  and  N_6
REMARK    4  A    between atoms: N_6  and  C_7
REMARK    5  A    between atoms: C_7  and  N_9
REMARK    6  A    between atoms: N_9  and  C_10
REMARK    7  A    between atoms: C_13  and  C_14
REMARK                            x       y       z     vdW  Elec       q    Type
REMARK                         _______ _______ _______ _____ _____    ______ ____
ROOT
ATOM      1  N   UNL     1       3.154   6.882  18.521  0.00  0.00    +0.000 N 
ATOM      2  H   UNL     1       3.722   7.254  17.776  0.00  0.00    +0.000 HD
ENDROOT
BRANCH   1   7
ATOM      3  C   UNL     1       7.113   5.045  17.372  0.00  0.00    +0.000 C 
ATOM      4  C   UNL     1       5.588   5.058  17.558  0.00  0.00    +0.000 C 
ATOM      5  C   UNL     1       4.987   5.768  16.330  0.00  0.00    +0.000 C 
ATOM      6  C   UNL     1       5.292   5.702  18.920  0.00  0.00    +0.000 C 
ATOM      7  C   UNL     1       3.792   5.764  19.217  0.00  0.00    +0.000 C 
ATOM      8  C   UNL     1       3.162   4.442  18.818  0.00  0.00    +0.000 A 
ATOM      9  C   UNL     1       1.852   4.130  19.214  0.00  0.00    +0.000 A 
ATOM     10  C   UNL     1       1.305   2.885  18.904  0.00  0.00    +0.000 A 
ATOM     11  F   UNL     1       0.058   2.597  19.298  0.00  0.00    +0.000 F 
ATOM     12  C   UNL     1       2.034   1.933  18.202  0.00  0.00    +0.000 A 
ATOM     13  C   UNL     1       3.325   2.239  17.780  0.00  0.00    +0.000 A 
ATOM     14  C   UNL     1       3.878   3.491  18.066  0.00  0.00    +0.000 A 
ATOM     15  O   UNL     1       5.143   3.693  17.571  0.00  0.00    +0.000 OA
ENDBRANCH   1   7
BRANCH   1  16
ATOM     16  C   UNL     1       2.221   7.757  19.041  0.00  0.00    +0.000 C 
ATOM     17  S   UNL     1       1.605   7.737  20.592  0.00  0.00    +0.000 S 
BRANCH  16  18
ATOM     18  N   UNL     1       1.902   8.816  18.213  0.00  0.00    +0.000 N 
ATOM     19  H   UNL     1       2.345   8.783  17.301  0.00  0.00    +0.000 HD
BRANCH  18  20
ATOM     20  C   UNL     1       0.894   9.767  18.437  0.00  0.00    +0.000 A 
ATOM     21  C   UNL     1       1.135  10.857  19.280  0.00  0.00    +0.000 A 
ATOM     22  C   UNL     1       0.092  11.687  19.670  0.00  0.00    +0.000 A 
ATOM     23  C   UNL     1      -1.194  11.446  19.185  0.00  0.00    +0.000 A 
ATOM     24  C   UNL     1      -1.418  10.429  18.253  0.00  0.00    +0.000 A 
ATOM     25  C   UNL     1      -0.365   9.594  17.861  0.00  0.00    +0.000 A 
BRANCH  23  26
ATOM     26  C   UNL     1      -2.290  12.224  19.679  0.00  0.00    +0.000 C 
ATOM     27  N   UNL     1      -3.213  12.815  20.060  0.00  0.00    +0.000 NA
ENDBRANCH  23  26
ENDBRANCH  18  20
ENDBRANCH  16  18
ENDBRANCH   1  16
TORSDOF 5
ENDMDL
MODEL 9
REMARK VINA RESULT:      -7.1      3.414      5.125
REMARK  Name = 
REMARK  7 active torsions:
REMARK  status: ('A' for Active; 'I' for Inactive)
REMARK    1  A    between atoms: C_1  and  C_2
REMARK    2  A    between atoms: C_2  and  C_3
REMARK    3  A    between atoms: C_5  and  N_6
REMARK    4  A    between atoms: N_6  and  C_7
REMARK    5  A    between atoms: C_7  and  N_9
REMARK    6  A    between atoms: N_9  and  C_10
REMARK    7  A    between atoms: C_13  and  C_14
REMARK                            x       y       z     vdW  Elec       q    Type
REMARK                         _______ _______ _______ _____ _____    ______ ____
ROOT
ATOM      1  N   UNL     1       3.062   6.772  18.300  0.00  0.00    +0.000 N 
ATOM      2  H   UNL     1       3.514   6.876  17.405  0.00  0.00    +0.000 HD
ENDROOT
BRANCH   1   7
ATOM      3  C   UNL     1       7.138   4.970  17.590  0.00  0.00    +0.000 C 
ATOM      4  C   UNL     1       5.603   4.952  17.664  0.00  0.00    +0.000 C 
ATOM      5  C   UNL     1       5.078   5.545  16.343  0.00  0.00    +0.000 C 
ATOM      6  C   UNL     1       5.192   5.692  18.945  0.00  0.00    +0.000 C 
ATOM      7  C   UNL     1       3.673   5.732  19.128  0.00  0.00    +0.000 C 
ATOM      8  C   UNL     1       3.107   4.364  18.792  0.00  0.00    +0.000 A 
ATOM      9  C   UNL     1       1.779   4.045  19.116  0.00  0.00    +0.000 A 
ATOM     10  C   UNL     1       1.287   2.764  18.870  0.00  0.00    +0.000 A 
ATOM     11  F   UNL     1       0.022   2.470  19.195  0.00  0.00    +0.000 F 
ATOM     12  C   UNL     1       2.088   1.782  18.301  0.00  0.00    +0.000 A 
ATOM     13  C   UNL     1       3.399   2.093  17.949  0.00  0.00    +0.000 A 
ATOM     14  C   UNL     1       3.900   3.379  18.173  0.00  0.00    +0.000 A 
ATOM     15  O   UNL     1       5.192   3.579  17.755  0.00  0.00    +0.000 OA
ENDBRANCH   1   7
BRANCH   1  16
ATOM     16  C   UNL     1       2.373   7.884  18.743  0.00  0.00    +0.000 C 
ATOM     17  S   UNL     1       1.997   9.236  17.841  0.00  0.00    +0.000 S 
BRANCH  16  18
ATOM     18  N   UNL     1       1.839   7.761  20.011  0.00  0.00    +0.000 N 
ATOM     19  H   UNL     1       2.130   6.928  20.511  0.00  0.00    +0.000 HD
BRANCH  18  20
ATOM     20  C   UNL     1       1.141   8.756  20.714  0.00  0.00    +0.000 A 
ATOM     21  C   UNL     1       1.193   8.793  22.112  0.00  0.00    +0.000 A 
ATOM     22  C   UNL     1       0.351   9.638  22.823  0.00  0.00    +0.000 A 
ATOM     23  C   UNL     1      -0.524  10.476  22.132  0.00  0.00    +0.000 A 
ATOM     24  C   UNL     1      -0.499  10.526  20.735  0.00  0.00    +0.000 A 
ATOM     25  C   UNL     1       0.352   9.674  20.020  0.00  0.00    +0.000 A 
BRANCH  23  26
ATOM     26  C   UNL     1      -1.476  11.258  22.863  0.00  0.00    +0.000 C 
ATOM     27  N   UNL     1      -2.206  11.904  23.491  0.00  0.00    +0.000 NA
ENDBRANCH  23  26
ENDBRANCH  18  20
ENDBRANCH  16  18
ENDBRANCH   1  16
TORSDOF 5
ENDMDL
