MODEL 1
REMARK VINA RESULT:      -9.2      0.000      0.000
REMARK  Name = 
REMARK  4 active torsions:
REMARK  status: ('A' for Active; 'I' for Inactive)
REMARK    1  A    between atoms: C_1  and  C_2
REMARK    2  A    between atoms: C_9  and  N_10
REMARK    3  A    between atoms: C_11  and  C_13
REMARK    4  A    between atoms: C_14  and  C_15
REMARK                            x       y       z     vdW  Elec       q    Type
REMARK                         _______ _______ _______ _____ _____    ______ ____
ROOT
ATOM      1  N   UNL     1       6.379   7.590  17.466  0.00  0.00    +0.000 N 
ATOM      2  C   UNL     1       7.669   7.693  17.956  0.00  0.00    +0.000 C 
ATOM      3  O   UNL     1       8.229   6.903  18.709  0.00  0.00    +0.000 OA
ATOM      4  H   UNL     1       6.039   8.313  16.846  0.00  0.00    +0.000 HD
ENDROOT
BRANCH   1  13
ATOM      5  C   UNL     1       1.305   3.314  18.328  0.00  0.00    +0.000 C 
ATOM      6  C   UNL     1       2.742   3.340  18.756  0.00  0.00    +0.000 A 
ATOM      7  C   UNL     1       3.255   2.346  19.494  0.00  0.00    +0.000 A 
ATOM      8  C   UNL     1       4.649   2.303  19.956  0.00  0.00    +0.000 A 
ATOM      9  O   UNL     1       5.065   1.364  20.623  0.00  0.00    +0.000 OA
ATOM     10  O   UNL     1       5.445   3.367  19.599  0.00  0.00    +0.000 OA
ATOM     11  C   UNL     1       4.934   4.425  18.823  0.00  0.00    +0.000 A 
ATOM     12  C   UNL     1       5.848   5.434  18.534  0.00  0.00    +0.000 A 
ATOM     13  C   UNL     1       5.477   6.539  17.774  0.00  0.00    +0.000 A 
ATOM     14  C   UNL     1       4.157   6.596  17.308  0.00  0.00    +0.000 A 
ATOM     15  C   UNL     1       3.236   5.565  17.608  0.00  0.00    +0.000 A 
ATOM     16  C   UNL     1       3.618   4.458  18.379  0.00  0.00    +0.000 A 
ENDBRANCH   1  13
BRANCH   2  17
ATOM     17  C   UNL     1       8.411   8.895  17.497  0.00  0.00    +0.000 C 
ATOM     18  C   UNL     1       8.671   9.842  18.417  0.00  0.00    +0.000 C 
BRANCH  18  19
ATOM     19  C   UNL     1       9.385  11.097  18.173  0.00  0.00    +0.000 A 
ATOM     20  C   UNL     1      10.779  11.064  17.991  0.00  0.00    +0.000 A 
ATOM     21  C   UNL     1      11.490  12.239  17.735  0.00  0.00    +0.000 A 
ATOM     22  C   UNL     1      10.805  13.445  17.645  0.00  0.00    +0.000 A 
ATOM     23  F   UNL     1      11.486  14.572  17.406  0.00  0.00    +0.000 F 
ATOM     24  C   UNL     1       9.425  13.480  17.796  0.00  0.00    +0.000 A 
ATOM     25  F   UNL     1       8.762  14.640  17.694  0.00  0.00    +0.000 F 
ATOM     26  C   UNL     1       8.710  12.315  18.052  0.00  0.00    +0.000 A 
ENDBRANCH  18  19
ENDBRANCH   2  17
TORSDOF 3
ENDMDL
MODEL 2
REMARK VINA RESULT:      -9.2      1.504      1.891
REMARK  Name = 
REMARK  4 active torsions:
REMARK  status: ('A' for Active; 'I' for Inactive)
REMARK    1  A    between atoms: C_1  and  C_2
REMARK    2  A    between atoms: C_9  and  N_10
REMARK    3  A    between atoms: C_11  and  C_13
REMARK    4  A    between atoms: C_14  and  C_15
REMARK                            x       y       z     vdW  Elec       q    Type
REMARK                         _______ _______ _______ _____ _____    ______ ____
ROOT
ATOM      1  N   UNL     1       6.172   7.320  17.571  0.00  0.00    +0.000 N 
ATOM      2  C   UNL     1       7.484   7.428  17.997  0.00  0.00    +0.000 C 
ATOM      3  O   UNL     1       8.122   6.584  18.618  0.00  0.00    +0.000 OA
ATOM      4  H   UNL     1       5.765   8.093  17.061  0.00  0.00    +0.000 HD
ENDROOT
BRANCH   1  13
ATOM      5  C   UNL     1       2.395   1.797  17.465  0.00  0.00    +0.000 C 
ATOM      6  C   UNL     1       2.757   2.804  18.517  0.00  0.00    +0.000 A 
ATOM      7  C   UNL     1       2.273   2.697  19.762  0.00  0.00    +0.000 A 
ATOM      8  C   UNL     1       2.576   3.645  20.844  0.00  0.00    +0.000 A 
ATOM      9  O   UNL     1       2.111   3.493  21.966  0.00  0.00    +0.000 OA
ATOM     10  O   UNL     1       3.403   4.697  20.521  0.00  0.00    +0.000 OA
ATOM     11  C   UNL     1       3.927   4.833  19.222  0.00  0.00    +0.000 A 
ATOM     12  C   UNL     1       4.749   5.941  19.036  0.00  0.00    +0.000 A 
ATOM     13  C   UNL     1       5.335   6.197  17.800  0.00  0.00    +0.000 A 
ATOM     14  C   UNL     1       5.075   5.299  16.756  0.00  0.00    +0.000 A 
ATOM     15  C   UNL     1       4.238   4.177  16.956  0.00  0.00    +0.000 A 
ATOM     16  C   UNL     1       3.647   3.930  18.204  0.00  0.00    +0.000 A 
ENDBRANCH   1  13
BRANCH   2  17
ATOM     17  C   UNL     1       8.145   8.711  17.644  0.00  0.00    +0.000 C 
ATOM     18  C   UNL     1       8.630   9.448  18.660  0.00  0.00    +0.000 C 
BRANCH  18  19
ATOM     19  C   UNL     1       9.313  10.737  18.530  0.00  0.00    +0.000 A 
ATOM     20  C   UNL     1       8.723  11.745  17.746  0.00  0.00    +0.000 A 
ATOM     21  C   UNL     1       9.335  12.994  17.616  0.00  0.00    +0.000 A 
ATOM     22  C   UNL     1      10.529  13.241  18.283  0.00  0.00    +0.000 A 
ATOM     23  F   UNL     1      11.120  14.435  18.154  0.00  0.00    +0.000 F 
ATOM     24  C   UNL     1      11.102  12.259  19.081  0.00  0.00    +0.000 A 
ATOM     25  F   UNL     1      12.246  12.502  19.736  0.00  0.00    +0.000 F 
ATOM     26  C   UNL     1      10.500  11.013  19.214  0.00  0.00    +0.000 A 
ENDBRANCH  18  19
ENDBRANCH   2  17
TORSDOF 3
ENDMDL
MODEL 3
REMARK VINA RESULT:      -9.0      0.960      1.160
REMARK  Name = 
REMARK  4 active torsions:
REMARK  status: ('A' for Active; 'I' for Inactive)
REMARK    1  A    between atoms: C_1  and  C_2
REMARK    2  A    between atoms: C_9  and  N_10
REMARK    3  A    between atoms: C_11  and  C_13
REMARK    4  A    between atoms: C_14  and  C_15
REMARK                            x       y       z     vdW  Elec       q    Type
REMARK                         _______ _______ _______ _____ _____    ______ ____
ROOT
ATOM      1  N   UNL     1       6.454   7.693  17.718  0.00  0.00    +0.000 N 
ATOM      2  C   UNL     1       7.763   7.722  18.168  0.00  0.00    +0.000 C 
ATOM      3  O   UNL     1       8.346   6.830  18.775  0.00  0.00    +0.000 OA
ATOM      4  H   UNL     1       6.095   8.499  17.224  0.00  0.00    +0.000 HD
ENDROOT
BRANCH   1  13
ATOM      5  C   UNL     1       1.451   3.255  17.939  0.00  0.00    +0.000 C 
ATOM      6  C   UNL     1       2.838   3.305  18.509  0.00  0.00    +0.000 A 
ATOM      7  C   UNL     1       3.305   2.301  19.264  0.00  0.00    +0.000 A 
ATOM      8  C   UNL     1       4.648   2.280  19.861  0.00  0.00    +0.000 A 
ATOM      9  O   UNL     1       5.024   1.331  20.536  0.00  0.00    +0.000 OA
ATOM     10  O   UNL     1       5.442   3.377  19.617  0.00  0.00    +0.000 OA
ATOM     11  C   UNL     1       4.979   4.446  18.827  0.00  0.00    +0.000 A 
ATOM     12  C   UNL     1       5.886   5.488  18.662  0.00  0.00    +0.000 A 
ATOM     13  C   UNL     1       5.558   6.608  17.902  0.00  0.00    +0.000 A 
ATOM     14  C   UNL     1       4.290   6.645  17.309  0.00  0.00    +0.000 A 
ATOM     15  C   UNL     1       3.375   5.580  17.484  0.00  0.00    +0.000 A 
ATOM     16  C   UNL     1       3.713   4.459  18.255  0.00  0.00    +0.000 A 
ENDBRANCH   1  13
BRANCH   2  17
ATOM     17  C   UNL     1       8.494   8.979  17.863  0.00  0.00    +0.000 C 
ATOM     18  C   UNL     1       9.001   9.660  18.906  0.00  0.00    +0.000 C 
BRANCH  18  19
ATOM     19  C   UNL     1       9.751  10.915  18.823  0.00  0.00    +0.000 A 
ATOM     20  C   UNL     1      10.043  11.615  20.007  0.00  0.00    +0.000 A 
ATOM     21  C   UNL     1      10.774  12.805  19.968  0.00  0.00    +0.000 A 
ATOM     22  C   UNL     1      11.227  13.287  18.745  0.00  0.00    +0.000 A 
ATOM     23  F   UNL     1      11.923  14.430  18.705  0.00  0.00    +0.000 F 
ATOM     24  C   UNL     1      10.966  12.585  17.575  0.00  0.00    +0.000 A 
ATOM     25  F   UNL     1      11.416  13.041  16.398  0.00  0.00    +0.000 F 
ATOM     26  C   UNL     1      10.238  11.401  17.606  0.00  0.00    +0.000 A 
ENDBRANCH  18  19
ENDBRANCH   2  17
TORSDOF 3
ENDMDL
MODEL 4
REMARK VINA RESULT:      -9.0      1.305      1.407
REMARK  Name = 
REMARK  4 active torsions:
REMARK  status: ('A' for Active; 'I' for Inactive)
REMARK    1  A    between atoms: C_1  and  C_2
REMARK    2  A    between atoms: C_9  and  N_10
REMARK    3  A    between atoms: C_11  and  C_13
REMARK    4  A    between atoms: C_14  and  C_15
REMARK                            x       y       z     vdW  Elec       q    Type
REMARK                         _______ _______ _______ _____ _____    ______ ____
ROOT
ATOM      1  N   UNL     1       6.310   7.529  17.259  0.00  0.00    +0.000 N 
ATOM      2  C   UNL     1       7.551   7.740  17.836  0.00  0.00    +0.000 C 
ATOM      3  O   UNL     1       8.119   7.002  18.634  0.00  0.00    +0.000 OA
ATOM      4  H   UNL     1       5.958   8.219  16.608  0.00  0.00    +0.000 HD
ENDROOT
BRANCH   1  13
ATOM      5  C   UNL     1       2.636   1.937  17.309  0.00  0.00    +0.000 C 
ATOM      6  C   UNL     1       2.908   3.026  18.306  0.00  0.00    +0.000 A 
ATOM      7  C   UNL     1       2.341   3.001  19.519  0.00  0.00    +0.000 A 
ATOM      8  C   UNL     1       2.554   4.031  20.545  0.00  0.00    +0.000 A 
ATOM      9  O   UNL     1       2.014   3.953  21.641  0.00  0.00    +0.000 OA
ATOM     10  O   UNL     1       3.385   5.073  20.202  0.00  0.00    +0.000 OA
ATOM     11  C   UNL     1       3.996   5.125  18.934  0.00  0.00    +0.000 A 
ATOM     12  C   UNL     1       4.811   6.233  18.723  0.00  0.00    +0.000 A 
ATOM     13  C   UNL     1       5.478   6.409  17.514  0.00  0.00    +0.000 A 
ATOM     14  C   UNL     1       5.304   5.432  16.525  0.00  0.00    +0.000 A 
ATOM     15  C   UNL     1       4.473   4.310  16.751  0.00  0.00    +0.000 A 
ATOM     16  C   UNL     1       3.801   4.144  17.970  0.00  0.00    +0.000 A 
ENDBRANCH   1  13
BRANCH   2  17
ATOM     17  C   UNL     1       8.223   8.996  17.417  0.00  0.00    +0.000 C 
ATOM     18  C   UNL     1       8.717   9.780  18.393  0.00  0.00    +0.000 C 
BRANCH  18  19
ATOM     19  C   UNL     1       9.411  11.054  18.196  0.00  0.00    +0.000 A 
ATOM     20  C   UNL     1      10.815  11.062  18.126  0.00  0.00    +0.000 A 
ATOM     21  C   UNL     1      11.510  12.256  17.917  0.00  0.00    +0.000 A 
ATOM     22  C   UNL     1      10.799  13.441  17.762  0.00  0.00    +0.000 A 
ATOM     23  F   UNL     1      11.463  14.586  17.568  0.00  0.00    +0.000 F 
ATOM     24  C   UNL     1       9.410  13.435  17.802  0.00  0.00    +0.000 A 
ATOM     25  F   UNL     1       8.724  14.574  17.637  0.00  0.00    +0.000 F 
ATOM     26  C   UNL     1       8.712  12.251  18.010  0.00  0.00    +0.000 A 
ENDBRANCH  18  19
ENDBRANCH   2  17
TORSDOF 3
ENDMDL
MODEL 5
REMARK VINA RESULT:      -9.0      1.775      2.070
REMARK  Name = 
REMARK  4 active torsions:
REMARK  status: ('A' for Active; 'I' for Inactive)
REMARK    1  A    between atoms: C_1  and  C_2
REMARK    2  A    between atoms: C_9  and  N_10
REMARK    3  A    between atoms: C_11  and  C_13
REMARK    4  A    between atoms: C_14  and  C_15
REMARK                            x       y       z     vdW  Elec       q    Type
REMARK                         _______ _______ _______ _____ _____    ______ ____
ROOT
ATOM      1  N   UNL     1       6.490   7.638  17.353  0.00  0.00    +0.000 N 
ATOM      2  C   UNL     1       7.705   7.698  18.014  0.00  0.00    +0.000 C 
ATOM      3  O   UNL     1       8.171   6.847  18.765  0.00  0.00    +0.000 OA
ATOM      4  H   UNL     1       6.227   8.411  16.756  0.00  0.00    +0.000 HD
ENDROOT
BRANCH   1  13
ATOM      5  C   UNL     1       2.706   2.145  16.831  0.00  0.00    +0.000 C 
ATOM      6  C   UNL     1       2.720   3.328  17.753  0.00  0.00    +0.000 A 
ATOM      7  C   UNL     1       1.815   3.442  18.734  0.00  0.00    +0.000 A 
ATOM      8  C   UNL     1       1.761   4.572  19.672  0.00  0.00    +0.000 A 
ATOM      9  O   UNL     1       0.915   4.620  20.556  0.00  0.00    +0.000 OA
ATOM     10  O   UNL     1       2.705   5.558  19.497  0.00  0.00    +0.000 OA
ATOM     11  C   UNL     1       3.669   5.464  18.475  0.00  0.00    +0.000 A 
ATOM     12  C   UNL     1       4.562   6.530  18.414  0.00  0.00    +0.000 A 
ATOM     13  C   UNL     1       5.567   6.565  17.452  0.00  0.00    +0.000 A 
ATOM     14  C   UNL     1       5.651   5.491  16.556  0.00  0.00    +0.000 A 
ATOM     15  C   UNL     1       4.737   4.414  16.627  0.00  0.00    +0.000 A 
ATOM     16  C   UNL     1       3.725   4.390  17.596  0.00  0.00    +0.000 A 
ENDBRANCH   1  13
BRANCH   2  17
ATOM     17  C   UNL     1       8.488   8.934  17.758  0.00  0.00    +0.000 C 
ATOM     18  C   UNL     1       8.918   9.620  18.833  0.00  0.00    +0.000 C 
BRANCH  18  19
ATOM     19  C   UNL     1       9.700  10.857  18.800  0.00  0.00    +0.000 A 
ATOM     20  C   UNL     1      10.233  11.360  20.001  0.00  0.00    +0.000 A 
ATOM     21  C   UNL     1      11.001  12.527  20.004  0.00  0.00    +0.000 A 
ATOM     22  C   UNL     1      11.251  13.182  18.804  0.00  0.00    +0.000 A 
ATOM     23  F   UNL     1      11.982  14.303  18.806  0.00  0.00    +0.000 F 
ATOM     24  C   UNL     1      10.750  12.675  17.611  0.00  0.00    +0.000 A 
ATOM     25  F   UNL     1      11.004  13.299  16.452  0.00  0.00    +0.000 F 
ATOM     26  C   UNL     1       9.984  11.515  17.600  0.00  0.00    +0.000 A 
ENDBRANCH  18  19
ENDBRANCH   2  17
TORSDOF 3
ENDMDL
MODEL 6
REMARK VINA RESULT:      -8.9      1.410      1.477
REMARK  Name = 
REMARK  4 active torsions:
REMARK  status: ('A' for Active; 'I' for Inactive)
REMARK    1  A    between atoms: C_1  and  C_2
REMARK    2  A    between atoms: C_9  and  N_10
REMARK    3  A    between atoms: C_11  and  C_13
REMARK    4  A    between atoms: C_14  and  C_15
REMARK                            x       y       z     vdW  Elec       q    Type
REMARK                         _______ _______ _______ _____ _____    ______ ____
ROOT
ATOM      1  N   UNL     1       6.246   7.648  18.114  0.00  0.00    +0.000 N 
ATOM      2  C   UNL     1       7.405   7.679  17.357  0.00  0.00    +0.000 C 
ATOM      3  O   UNL     1       7.849   6.769  16.664  0.00  0.00    +0.000 OA
ATOM      4  H   UNL     1       5.991   8.473  18.638  0.00  0.00    +0.000 HD
ENDROOT
BRANCH   1  13
ATOM      5  C   UNL     1       1.350   3.088  18.023  0.00  0.00    +0.000 C 
ATOM      6  C   UNL     1       2.739   3.128  18.588  0.00  0.00    +0.000 A 
ATOM      7  C   UNL     1       3.235   2.081  19.261  0.00  0.00    +0.000 A 
ATOM      8  C   UNL     1       4.583   2.046  19.847  0.00  0.00    +0.000 A 
ATOM      9  O   UNL     1       4.986   1.058  20.446  0.00  0.00    +0.000 OA
ATOM     10  O   UNL     1       5.350   3.177  19.683  0.00  0.00    +0.000 OA
ATOM     11  C   UNL     1       4.855   4.292  18.979  0.00  0.00    +0.000 A 
ATOM     12  C   UNL     1       5.737   5.365  18.889  0.00  0.00    +0.000 A 
ATOM     13  C   UNL     1       5.377   6.531  18.220  0.00  0.00    +0.000 A 
ATOM     14  C   UNL     1       4.104   6.583  17.638  0.00  0.00    +0.000 A 
ATOM     15  C   UNL     1       3.216   5.486  17.736  0.00  0.00    +0.000 A 
ATOM     16  C   UNL     1       3.585   4.318  18.417  0.00  0.00    +0.000 A 
ENDBRANCH   1  13
BRANCH   2  17
ATOM     17  C   UNL     1       8.151   8.962  17.420  0.00  0.00    +0.000 C 
ATOM     18  C   UNL     1       8.657   9.316  18.615  0.00  0.00    +0.000 C 
BRANCH  18  19
ATOM     19  C   UNL     1       9.420  10.535  18.892  0.00  0.00    +0.000 A 
ATOM     20  C   UNL     1      10.009  11.229  17.820  0.00  0.00    +0.000 A 
ATOM     21  C   UNL     1      10.727  12.406  18.043  0.00  0.00    +0.000 A 
ATOM     22  C   UNL     1      10.841  12.900  19.338  0.00  0.00    +0.000 A 
ATOM     23  F   UNL     1      11.533  14.025  19.554  0.00  0.00    +0.000 F 
ATOM     24  C   UNL     1      10.238  12.234  20.397  0.00  0.00    +0.000 A 
ATOM     25  F   UNL     1      10.335  12.718  21.643  0.00  0.00    +0.000 F 
ATOM     26  C   UNL     1       9.523  11.061  20.183  0.00  0.00    +0.000 A 
ENDBRANCH  18  19
ENDBRANCH   2  17
TORSDOF 3
ENDMDL
MODEL 7
REMARK VINA RESULT:      -8.8      4.772     10.434
REMARK  Name = 
REMARK  4 active torsions:
REMARK  status: ('A' for Active; 'I' for Inactive)
REMARK    1  A    between atoms: C_1  and  C_2
REMARK    2  A    between atoms: C_9  and  N_10
REMARK    3  A    between atoms: C_11  and  C_13
REMARK    4  A    between atoms: C_14  and  C_15
REMARK                            x       y       z     vdW  Elec       q    Type
REMARK                         _______ _______ _______ _____ _____    ______ ____
ROOT
ATOM      1  N   UNL     1       8.943  11.064  17.920  0.00  0.00    +0.000 N 
ATOM      2  C   UNL     1       9.138  10.254  19.027  0.00  0.00    +0.000 C 
ATOM      3  O   UNL     1       9.615  10.594  20.104  0.00  0.00    +0.000 OA
ATOM      4  H   UNL     1       8.534  10.656  17.091  0.00  0.00    +0.000 HD
ENDROOT
BRANCH   1  13
ATOM      5  C   UNL     1      11.654  17.150  17.309  0.00  0.00    +0.000 C 
ATOM      6  C   UNL     1      10.298  16.637  17.693  0.00  0.00    +0.000 A 
ATOM      7  C   UNL     1       9.314  17.484  18.025  0.00  0.00    +0.000 A 
ATOM      8  C   UNL     1       7.963  17.058  18.417  0.00  0.00    +0.000 A 
ATOM      9  O   UNL     1       7.100  17.878  18.703  0.00  0.00    +0.000 OA
ATOM     10  O   UNL     1       7.733  15.702  18.443  0.00  0.00    +0.000 OA
ATOM     11  C   UNL     1       8.748  14.788  18.099  0.00  0.00    +0.000 A 
ATOM     12  C   UNL     1       8.377  13.449  18.169  0.00  0.00    +0.000 A 
ATOM     13  C   UNL     1       9.283  12.440  17.854  0.00  0.00    +0.000 A 
ATOM     14  C   UNL     1      10.572  12.820  17.461  0.00  0.00    +0.000 A 
ATOM     15  C   UNL     1      10.938  14.184  17.395  0.00  0.00    +0.000 A 
ATOM     16  C   UNL     1      10.021  15.194  17.719  0.00  0.00    +0.000 A 
ENDBRANCH   1  13
BRANCH   2  17
ATOM     17  C   UNL     1       8.713   8.843  18.843  0.00  0.00    +0.000 C 
ATOM     18  C   UNL     1       7.869   8.586  17.827  0.00  0.00    +0.000 C 
BRANCH  18  19
ATOM     19  C   UNL     1       7.331   7.270  17.477  0.00  0.00    +0.000 A 
ATOM     20  C   UNL     1       7.760   6.143  18.200  0.00  0.00    +0.000 A 
ATOM     21  C   UNL     1       7.253   4.875  17.907  0.00  0.00    +0.000 A 
ATOM     22  C   UNL     1       6.303   4.735  16.902  0.00  0.00    +0.000 A 
ATOM     23  F   UNL     1       5.820   3.520  16.617  0.00  0.00    +0.000 F 
ATOM     24  C   UNL     1       5.855   5.849  16.203  0.00  0.00    +0.000 A 
ATOM     25  F   UNL     1       4.928   5.717  15.244  0.00  0.00    +0.000 F 
ATOM     26  C   UNL     1       6.356   7.114  16.488  0.00  0.00    +0.000 A 
ENDBRANCH  18  19
ENDBRANCH   2  17
TORSDOF 3
ENDMDL
MODEL 8
REMARK VINA RESULT:      -8.8      1.618      1.785
REMARK  Name = 
REMARK  4 active torsions:
REMARK  status: ('A' for Active; 'I' for Inactive)
REMARK    1  A    between atoms: C_1  and  C_2
REMARK    2  A    between atoms: C_9  and  N_10
REMARK    3  A    between atoms: C_11  and  C_13
REMARK    4  A    between atoms: C_14  and  C_15
REMARK                            x       y       z     vdW  Elec       q    Type
REMARK                         _______ _______ _______ _____ _____    ______ ____
ROOT
ATOM      1  N   UNL     1       6.049   7.246  17.919  0.00  0.00    +0.000 N 
ATOM      2  C   UNL     1       7.431   7.175  17.865  0.00  0.00    +0.000 C 
ATOM      3  O   UNL     1       8.112   6.157  17.932  0.00  0.00    +0.000 OA
ATOM      4  H   UNL     1       5.610   8.155  17.847  0.00  0.00    +0.000 HD
ENDROOT
BRANCH   1  13
ATOM      5  C   UNL     1       2.107   1.860  17.454  0.00  0.00    +0.000 C 
ATOM      6  C   UNL     1       2.525   2.763  18.577  0.00  0.00    +0.000 A 
ATOM      7  C   UNL     1       2.069   2.565  19.822  0.00  0.00    +0.000 A 
ATOM      8  C   UNL     1       2.428   3.409  20.970  0.00  0.00    +0.000 A 
ATOM      9  O   UNL     1       1.986   3.176  22.088  0.00  0.00    +0.000 OA
ATOM     10  O   UNL     1       3.278   4.461  20.714  0.00  0.00    +0.000 OA
ATOM     11  C   UNL     1       3.773   4.693  19.417  0.00  0.00    +0.000 A 
ATOM     12  C   UNL     1       4.623   5.789  19.303  0.00  0.00    +0.000 A 
ATOM     13  C   UNL     1       5.186   6.132  18.076  0.00  0.00    +0.000 A 
ATOM     14  C   UNL     1       4.872   5.333  16.969  0.00  0.00    +0.000 A 
ATOM     15  C   UNL     1       4.007   4.222  17.097  0.00  0.00    +0.000 A 
ATOM     16  C   UNL     1       3.441   3.887  18.335  0.00  0.00    +0.000 A 
ENDBRANCH   1  13
BRANCH   2  17
ATOM     17  C   UNL     1       8.113   8.485  17.709  0.00  0.00    +0.000 C 
ATOM     18  C   UNL     1       8.599   9.057  18.826  0.00  0.00    +0.000 C 
BRANCH  18  19
ATOM     19  C   UNL     1       9.300  10.341  18.890  0.00  0.00    +0.000 A 
ATOM     20  C   UNL     1       9.725  10.824  20.141  0.00  0.00    +0.000 A 
ATOM     21  C   UNL     1      10.416  12.035  20.239  0.00  0.00    +0.000 A 
ATOM     22  C   UNL     1      10.696  12.755  19.083  0.00  0.00    +0.000 A 
ATOM     23  F   UNL     1      11.352  13.918  19.176  0.00  0.00    +0.000 F 
ATOM     24  C   UNL     1      10.303  12.270  17.843  0.00  0.00    +0.000 A 
ATOM     25  F   UNL     1      10.587  12.956  16.727  0.00  0.00    +0.000 F 
ATOM     26  C   UNL     1       9.615  11.066  17.738  0.00  0.00    +0.000 A 
ENDBRANCH  18  19
ENDBRANCH   2  17
TORSDOF 3
ENDMDL
MODEL 9
REMARK VINA RESULT:      -8.6      7.565      9.541
REMARK  Name = 
REMARK  4 active torsions:
REMARK  status: ('A' for Active; 'I' for Inactive)
REMARK    1  A    between atoms: C_1  and  C_2
REMARK    2  A    between atoms: C_9  and  N_10
REMARK    3  A    between atoms: C_11  and  C_13
REMARK    4  A    between atoms: C_14  and  C_15
REMARK                            x       y       z     vdW  Elec       q    Type
REMARK                         _______ _______ _______ _____ _____    ______ ____
ROOT
ATOM      1  N   UNL     1       0.755   9.781  17.794  0.00  0.00    +0.000 N 
ATOM      2  C   UNL     1       1.550   8.927  18.538  0.00  0.00    +0.000 C 
ATOM      3  O   UNL     1       1.418   8.657  19.728  0.00  0.00    +0.000 OA
ATOM      4  H   UNL     1       0.972   9.912  16.815  0.00  0.00    +0.000 HD
ENDROOT
BRANCH   1  13
ATOM      5  C   UNL     1      -3.654  13.731  20.913  0.00  0.00    +0.000 C 
ATOM      6  C   UNL     1      -3.757  12.666  19.862  0.00  0.00    +0.000 A 
ATOM      7  C   UNL     1      -4.946  12.320  19.351  0.00  0.00    +0.000 A 
ATOM      8  C   UNL     1      -5.128  11.284  18.325  0.00  0.00    +0.000 A 
ATOM      9  O   UNL     1      -6.239  11.014  17.889  0.00  0.00    +0.000 OA
ATOM     10  O   UNL     1      -3.988  10.646  17.892  0.00  0.00    +0.000 OA
ATOM     11  C   UNL     1      -2.724  10.989  18.409  0.00  0.00    +0.000 A 
ATOM     12  C   UNL     1      -1.660  10.265  17.881  0.00  0.00    +0.000 A 
ATOM     13  C   UNL     1      -0.355  10.504  18.303  0.00  0.00    +0.000 A 
ATOM     14  C   UNL     1      -0.153  11.498  19.269  0.00  0.00    +0.000 A 
ATOM     15  C   UNL     1      -1.243  12.227  19.799  0.00  0.00    +0.000 A 
ATOM     16  C   UNL     1      -2.554  11.976  19.372  0.00  0.00    +0.000 A 
ENDBRANCH   1  13
BRANCH   2  17
ATOM     17  C   UNL     1       2.661   8.297  17.779  0.00  0.00    +0.000 C 
ATOM     18  C   UNL     1       3.103   7.104  18.219  0.00  0.00    +0.000 C 
BRANCH  18  19
ATOM     19  C   UNL     1       4.183   6.320  17.618  0.00  0.00    +0.000 A 
ATOM     20  C   UNL     1       3.912   5.013  17.175  0.00  0.00    +0.000 A 
ATOM     21  C   UNL     1       4.913   4.243  16.578  0.00  0.00    +0.000 A 
ATOM     22  C   UNL     1       6.182   4.786  16.408  0.00  0.00    +0.000 A 
ATOM     23  F   UNL     1       7.143   4.047  15.841  0.00  0.00    +0.000 F 
ATOM     24  C   UNL     1       6.448   6.086  16.819  0.00  0.00    +0.000 A 
ATOM     25  F   UNL     1       7.666   6.615  16.641  0.00  0.00    +0.000 F 
ATOM     26  C   UNL     1       5.457   6.858  17.415  0.00  0.00    +0.000 A 
ENDBRANCH  18  19
ENDBRANCH   2  17
TORSDOF 3
ENDMDL
