MODEL 1
REMARK VINA RESULT:      -7.1      0.000      0.000
REMARK  Name = 
REMARK  12 active torsions:
REMARK  status: ('A' for Active; 'I' for Inactive)
REMARK    1  A    between atoms: C_1  and  O_2
REMARK    2  A    between atoms: O_2  and  C_3
REMARK    3  A    between atoms: C_5  and  O_6
REMARK    4  A    between atoms: O_6  and  C_7
REMARK    5  A    between atoms: C_8  and  C_9
REMARK    6  A    between atoms: C_15  and  C_16
REMARK    7  A    between atoms: C_16  and  C_17
REMARK    8  A    between atoms: C_18  and  C_19
REMARK    9  A    between atoms: C_18  and  C_20
REMARK   10  A    between atoms: C_20  and  C_21
REMARK   11  A    between atoms: C_21  and  C_22
REMARK   12  A    between atoms: C_22  and  O_24
REMARK                            x       y       z     vdW  Elec       q    Type
REMARK                         _______ _______ _______ _____ _____    ______ ____
ROOT
ATOM      1  C   UNL     1       5.644   5.994  16.962  0.00  0.00    +0.000 A 
ATOM      2  C   UNL     1       4.835   6.487  17.989  0.00  0.00    +0.000 A 
ATOM      3  C   UNL     1       3.793   5.747  18.560  0.00  0.00    +0.000 A 
ATOM      4  C   UNL     1       3.544   4.449  18.088  0.00  0.00    +0.000 A 
ATOM      5  C   UNL     1       4.422   3.926  17.115  0.00  0.00    +0.000 A 
ATOM      6  C   UNL     1       5.493   4.663  16.568  0.00  0.00    +0.000 A 
ENDROOT
BRANCH   4   7
ATOM      7  C   UNL     1       2.406   3.640  18.520  0.00  0.00    +0.000 A 
ATOM      8  C   UNL     1       1.121   3.387  18.087  0.00  0.00    +0.000 A 
ATOM      9  N   UNL     1       0.516   2.444  18.888  0.00  0.00    +0.000 NA
ATOM     10  C   UNL     1       1.440   2.161  19.770  0.00  0.00    +0.000 A 
ATOM     11  O   UNL     1       2.607   2.842  19.626  0.00  0.00    +0.000 OA
ENDBRANCH   4   7
BRANCH   1  13
ATOM     12  C   UNL     1       7.414   7.540  17.260  0.00  0.00    +0.000 C 
ATOM     13  O   UNL     1       6.598   6.776  16.358  0.00  0.00    +0.000 OA
ENDBRANCH   1  13
BRANCH   3  14
ATOM     14  O   UNL     1       3.025   6.258  19.581  0.00  0.00    +0.000 OA
ATOM     15  C   UNL     1       2.274   7.437  19.276  0.00  0.00    +0.000 C 
ENDBRANCH   3  14
BRANCH   6  16
ATOM     16  C   UNL     1       6.449   3.938  15.639  0.00  0.00    +0.000 C 
BRANCH  16  17
ATOM     17  C   UNL     1       5.957   3.737  14.235  0.00  0.00    +0.000 C 
ATOM     18  C   UNL     1       6.585   4.181  13.125  0.00  0.00    +0.000 C 
ATOM     19  C   UNL     1       7.738   5.156  13.149  0.00  0.00    +0.000 C 
BRANCH  18  20
ATOM     20  C   UNL     1       6.140   3.706  11.759  0.00  0.00    +0.000 C 
BRANCH  20  21
ATOM     21  C   UNL     1       5.515   2.308  11.824  0.00  0.00    +0.000 C 
BRANCH  21  22
ATOM     22  C   UNL     1       6.423   1.254  11.238  0.00  0.00    +0.000 C 
ATOM     23  O   UNL     1       6.104   0.119  10.951  0.00  0.00    +0.000 OA
BRANCH  22  24
ATOM     24  O   UNL     1       7.704   1.695  11.108  0.00  0.00    +0.000 OA
ATOM     25  H   UNL     1       8.198   1.660  11.959  0.00  0.00    +0.000 HD
ENDBRANCH  22  24
ENDBRANCH  21  22
ENDBRANCH  20  21
ENDBRANCH  18  20
ENDBRANCH  16  17
ENDBRANCH   6  16
TORSDOF 9
ENDMDL
MODEL 2
REMARK VINA RESULT:      -7.0      2.021      2.201
REMARK  Name = 
REMARK  12 active torsions:
REMARK  status: ('A' for Active; 'I' for Inactive)
REMARK    1  A    between atoms: C_1  and  O_2
REMARK    2  A    between atoms: O_2  and  C_3
REMARK    3  A    between atoms: C_5  and  O_6
REMARK    4  A    between atoms: O_6  and  C_7
REMARK    5  A    between atoms: C_8  and  C_9
REMARK    6  A    between atoms: C_15  and  C_16
REMARK    7  A    between atoms: C_16  and  C_17
REMARK    8  A    between atoms: C_18  and  C_19
REMARK    9  A    between atoms: C_18  and  C_20
REMARK   10  A    between atoms: C_20  and  C_21
REMARK   11  A    between atoms: C_21  and  C_22
REMARK   12  A    between atoms: C_22  and  O_24
REMARK                            x       y       z     vdW  Elec       q    Type
REMARK                         _______ _______ _______ _____ _____    ______ ____
ROOT
ATOM      1  C   UNL     1       6.227   5.712  16.729  0.00  0.00    +0.000 A 
ATOM      2  C   UNL     1       5.703   5.927  18.007  0.00  0.00    +0.000 A 
ATOM      3  C   UNL     1       4.601   5.224  18.506  0.00  0.00    +0.000 A 
ATOM      4  C   UNL     1       3.989   4.255  17.696  0.00  0.00    +0.000 A 
ATOM      5  C   UNL     1       4.579   3.979  16.445  0.00  0.00    +0.000 A 
ATOM      6  C   UNL     1       5.712   4.666  15.960  0.00  0.00    +0.000 A 
ENDROOT
BRANCH   4   7
ATOM      7  C   UNL     1       2.759   3.556  18.066  0.00  0.00    +0.000 A 
ATOM      8  C   UNL     1       1.403   3.731  17.887  0.00  0.00    +0.000 A 
ATOM      9  N   UNL     1       0.703   2.670  18.417  0.00  0.00    +0.000 NA
ATOM     10  C   UNL     1       1.644   1.897  18.894  0.00  0.00    +0.000 A 
ATOM     11  O   UNL     1       2.912   2.359  18.732  0.00  0.00    +0.000 OA
ENDBRANCH   4   7
BRANCH   1  13
ATOM     12  C   UNL     1       7.684   7.543  17.095  0.00  0.00    +0.000 C 
ATOM     13  O   UNL     1       7.250   6.480  16.231  0.00  0.00    +0.000 OA
ENDBRANCH   1  13
BRANCH   3  14
ATOM     14  O   UNL     1       4.119   5.451  19.775  0.00  0.00    +0.000 OA
ATOM     15  C   UNL     1       3.032   6.375  19.881  0.00  0.00    +0.000 C 
ENDBRANCH   3  14
BRANCH   6  16
ATOM     16  C   UNL     1       6.336   4.176  14.666  0.00  0.00    +0.000 C 
BRANCH  16  17
ATOM     17  C   UNL     1       5.375   3.933  13.538  0.00  0.00    +0.000 C 
ATOM     18  C   UNL     1       5.710   3.419  12.335  0.00  0.00    +0.000 C 
ATOM     19  C   UNL     1       7.135   3.248  11.865  0.00  0.00    +0.000 C 
BRANCH  18  20
ATOM     20  C   UNL     1       4.631   2.980  11.369  0.00  0.00    +0.000 C 
BRANCH  20  21
ATOM     21  C   UNL     1       3.688   4.135  11.014  0.00  0.00    +0.000 C 
BRANCH  21  22
ATOM     22  C   UNL     1       2.990   3.910   9.695  0.00  0.00    +0.000 C 
ATOM     23  O   UNL     1       3.017   2.887   9.041  0.00  0.00    +0.000 OA
BRANCH  22  24
ATOM     24  O   UNL     1       2.347   5.026   9.256  0.00  0.00    +0.000 OA
ATOM     25  H   UNL     1       2.203   5.014   8.282  0.00  0.00    +0.000 HD
ENDBRANCH  22  24
ENDBRANCH  21  22
ENDBRANCH  20  21
ENDBRANCH  18  20
ENDBRANCH  16  17
ENDBRANCH   6  16
TORSDOF 9
ENDMDL
MODEL 3
REMARK VINA RESULT:      -6.8      4.306      7.024
REMARK  Name = 
REMARK  12 active torsions:
REMARK  status: ('A' for Active; 'I' for Inactive)
REMARK    1  A    between atoms: C_1  and  O_2
REMARK    2  A    between atoms: O_2  and  C_3
REMARK    3  A    between atoms: C_5  and  O_6
REMARK    4  A    between atoms: O_6  and  C_7
REMARK    5  A    between atoms: C_8  and  C_9
REMARK    6  A    between atoms: C_15  and  C_16
REMARK    7  A    between atoms: C_16  and  C_17
REMARK    8  A    between atoms: C_18  and  C_19
REMARK    9  A    between atoms: C_18  and  C_20
REMARK   10  A    between atoms: C_20  and  C_21
REMARK   11  A    between atoms: C_21  and  C_22
REMARK   12  A    between atoms: C_22  and  O_24
REMARK                            x       y       z     vdW  Elec       q    Type
REMARK                         _______ _______ _______ _____ _____    ______ ____
ROOT
ATOM      1  C   UNL     1       1.986   7.149  20.123  0.00  0.00    +0.000 A 
ATOM      2  C   UNL     1       1.247   7.934  21.012  0.00  0.00    +0.000 A 
ATOM      3  C   UNL     1       0.789   9.218  20.695  0.00  0.00    +0.000 A 
ATOM      4  C   UNL     1       1.077   9.748  19.427  0.00  0.00    +0.000 A 
ATOM      5  C   UNL     1       1.743   8.914  18.505  0.00  0.00    +0.000 A 
ATOM      6  C   UNL     1       2.172   7.607  18.817  0.00  0.00    +0.000 A 
ENDROOT
BRANCH   4   7
ATOM      7  C   UNL     1       0.760  11.121  19.038  0.00  0.00    +0.000 A 
ATOM      8  C   UNL     1       1.449  12.296  18.823  0.00  0.00    +0.000 A 
ATOM      9  N   UNL     1       0.596  13.285  18.384  0.00  0.00    +0.000 NA
ATOM     10  C   UNL     1      -0.566  12.685  18.349  0.00  0.00    +0.000 A 
ATOM     11  O   UNL     1      -0.558  11.382  18.734  0.00  0.00    +0.000 OA
ENDBRANCH   4   7
BRANCH   1  13
ATOM     12  C   UNL     1       1.543   4.864  20.562  0.00  0.00    +0.000 C 
ATOM     13  O   UNL     1       2.502   5.931  20.494  0.00  0.00    +0.000 OA
ENDBRANCH   1  13
BRANCH   3  14
ATOM     14  O   UNL     1       0.051   9.959  21.589  0.00  0.00    +0.000 OA
ATOM     15  C   UNL     1      -0.021   9.447  22.923  0.00  0.00    +0.000 C 
ENDBRANCH   3  14
BRANCH   6  16
ATOM     16  C   UNL     1       2.746   6.764  17.694  0.00  0.00    +0.000 C 
BRANCH  16  17
ATOM     17  C   UNL     1       4.233   6.859  17.510  0.00  0.00    +0.000 C 
ATOM     18  C   UNL     1       5.007   5.899  16.960  0.00  0.00    +0.000 C 
ATOM     19  C   UNL     1       4.527   4.494  16.681  0.00  0.00    +0.000 C 
BRANCH  18  20
ATOM     20  C   UNL     1       6.443   6.199  16.591  0.00  0.00    +0.000 C 
BRANCH  20  21
ATOM     21  C   UNL     1       7.274   6.580  17.822  0.00  0.00    +0.000 C 
BRANCH  21  22
ATOM     22  C   UNL     1       7.467   5.411  18.757  0.00  0.00    +0.000 C 
ATOM     23  O   UNL     1       7.332   5.435  19.963  0.00  0.00    +0.000 OA
BRANCH  22  24
ATOM     24  O   UNL     1       7.882   4.292  18.103  0.00  0.00    +0.000 OA
ATOM     25  H   UNL     1       7.323   3.509  18.314  0.00  0.00    +0.000 HD
ENDBRANCH  22  24
ENDBRANCH  21  22
ENDBRANCH  20  21
ENDBRANCH  18  20
ENDBRANCH  16  17
ENDBRANCH   6  16
TORSDOF 9
ENDMDL
MODEL 4
REMARK VINA RESULT:      -6.7      3.907      5.180
REMARK  Name = 
REMARK  12 active torsions:
REMARK  status: ('A' for Active; 'I' for Inactive)
REMARK    1  A    between atoms: C_1  and  O_2
REMARK    2  A    between atoms: O_2  and  C_3
REMARK    3  A    between atoms: C_5  and  O_6
REMARK    4  A    between atoms: O_6  and  C_7
REMARK    5  A    between atoms: C_8  and  C_9
REMARK    6  A    between atoms: C_15  and  C_16
REMARK    7  A    between atoms: C_16  and  C_17
REMARK    8  A    between atoms: C_18  and  C_19
REMARK    9  A    between atoms: C_18  and  C_20
REMARK   10  A    between atoms: C_20  and  C_21
REMARK   11  A    between atoms: C_21  and  C_22
REMARK   12  A    between atoms: C_22  and  O_24
REMARK                            x       y       z     vdW  Elec       q    Type
REMARK                         _______ _______ _______ _____ _____    ______ ____
ROOT
ATOM      1  C   UNL     1       2.351   8.643  18.383  0.00  0.00    +0.000 A 
ATOM      2  C   UNL     1       1.695   8.613  19.617  0.00  0.00    +0.000 A 
ATOM      3  C   UNL     1       1.490   7.435  20.343  0.00  0.00    +0.000 A 
ATOM      4  C   UNL     1       1.965   6.223  19.819  0.00  0.00    +0.000 A 
ATOM      5  C   UNL     1       2.705   6.273  18.619  0.00  0.00    +0.000 A 
ATOM      6  C   UNL     1       2.940   7.469  17.908  0.00  0.00    +0.000 A 
ENDROOT
BRANCH   4   7
ATOM      7  C   UNL     1       1.695   4.921  20.427  0.00  0.00    +0.000 A 
ATOM      8  C   UNL     1       0.841   3.860  20.211  0.00  0.00    +0.000 A 
ATOM      9  N   UNL     1       1.104   2.837  21.094  0.00  0.00    +0.000 NA
ATOM     10  C   UNL     1       2.095   3.305  21.809  0.00  0.00    +0.000 A 
ATOM     11  O   UNL     1       2.508   4.557  21.479  0.00  0.00    +0.000 OA
ENDBRANCH   4   7
BRANCH   1  13
ATOM     12  C   UNL     1       1.751  10.926  18.195  0.00  0.00    +0.000 C 
ATOM     13  O   UNL     1       2.455   9.799  17.650  0.00  0.00    +0.000 OA
ENDBRANCH   1  13
BRANCH   3  14
ATOM     14  O   UNL     1       0.853   7.444  21.562  0.00  0.00    +0.000 OA
ATOM     15  C   UNL     1       0.059   8.599  21.850  0.00  0.00    +0.000 C 
ENDBRANCH   3  14
BRANCH   6  16
ATOM     16  C   UNL     1       3.871   7.410  16.713  0.00  0.00    +0.000 C 
BRANCH  16  17
ATOM     17  C   UNL     1       5.276   6.968  17.009  0.00  0.00    +0.000 C 
ATOM     18  C   UNL     1       5.835   5.822  16.566  0.00  0.00    +0.000 C 
ATOM     19  C   UNL     1       5.053   4.704  15.919  0.00  0.00    +0.000 C 
BRANCH  18  20
ATOM     20  C   UNL     1       7.325   5.599  16.709  0.00  0.00    +0.000 C 
BRANCH  20  21
ATOM     21  C   UNL     1       7.656   4.795  17.972  0.00  0.00    +0.000 C 
BRANCH  21  22
ATOM     22  C   UNL     1       7.865   5.687  19.172  0.00  0.00    +0.000 C 
ATOM     23  O   UNL     1       7.609   5.402  20.324  0.00  0.00    +0.000 OA
BRANCH  22  24
ATOM     24  O   UNL     1       8.334   6.916  18.823  0.00  0.00    +0.000 OA
ATOM     25  H   UNL     1       7.707   7.636  19.064  0.00  0.00    +0.000 HD
ENDBRANCH  22  24
ENDBRANCH  21  22
ENDBRANCH  20  21
ENDBRANCH  18  20
ENDBRANCH  16  17
ENDBRANCH   6  16
TORSDOF 9
ENDMDL
MODEL 5
REMARK VINA RESULT:      -6.6      4.351      8.503
REMARK  Name = 
REMARK  12 active torsions:
REMARK  status: ('A' for Active; 'I' for Inactive)
REMARK    1  A    between atoms: C_1  and  O_2
REMARK    2  A    between atoms: O_2  and  C_3
REMARK    3  A    between atoms: C_5  and  O_6
REMARK    4  A    between atoms: O_6  and  C_7
REMARK    5  A    between atoms: C_8  and  C_9
REMARK    6  A    between atoms: C_15  and  C_16
REMARK    7  A    between atoms: C_16  and  C_17
REMARK    8  A    between atoms: C_18  and  C_19
REMARK    9  A    between atoms: C_18  and  C_20
REMARK   10  A    between atoms: C_20  and  C_21
REMARK   11  A    between atoms: C_21  and  C_22
REMARK   12  A    between atoms: C_22  and  O_24
REMARK                            x       y       z     vdW  Elec       q    Type
REMARK                         _______ _______ _______ _____ _____    ______ ____
ROOT
ATOM      1  C   UNL     1       1.462   7.899  20.154  0.00  0.00    +0.000 A 
ATOM      2  C   UNL     1       2.136   6.725  20.499  0.00  0.00    +0.000 A 
ATOM      3  C   UNL     1       3.033   6.081  19.640  0.00  0.00    +0.000 A 
ATOM      4  C   UNL     1       3.276   6.634  18.373  0.00  0.00    +0.000 A 
ATOM      5  C   UNL     1       2.663   7.867  18.068  0.00  0.00    +0.000 A 
ATOM      6  C   UNL     1       1.786   8.531  18.952  0.00  0.00    +0.000 A 
ENDROOT
BRANCH   4   7
ATOM      7  C   UNL     1       4.091   5.980  17.351  0.00  0.00    +0.000 A 
ATOM      8  C   UNL     1       5.185   6.296  16.573  0.00  0.00    +0.000 A 
ATOM      9  N   UNL     1       5.571   5.213  15.814  0.00  0.00    +0.000 NA
ATOM     10  C   UNL     1       4.708   4.288  16.151  0.00  0.00    +0.000 A 
ATOM     11  O   UNL     1       3.778   4.669  17.066  0.00  0.00    +0.000 OA
ENDBRANCH   4   7
BRANCH   1  13
ATOM     12  C   UNL     1       1.044   9.099  22.153  0.00  0.00    +0.000 C 
ATOM     13  O   UNL     1       0.518   8.458  20.981  0.00  0.00    +0.000 OA
ENDBRANCH   1  13
BRANCH   3  14
ATOM     14  O   UNL     1       3.691   4.933  20.017  0.00  0.00    +0.000 OA
ATOM     15  C   UNL     1       2.866   3.809  20.335  0.00  0.00    +0.000 C 
ENDBRANCH   3  14
BRANCH   6  16
ATOM     16  C   UNL     1       1.308   9.918  18.565  0.00  0.00    +0.000 C 
BRANCH  16  17
ATOM     17  C   UNL     1      -0.068   9.983  17.966  0.00  0.00    +0.000 C 
ATOM     18  C   UNL     1      -1.105  10.673  18.486  0.00  0.00    +0.000 C 
ATOM     19  C   UNL     1      -1.101  11.274  19.872  0.00  0.00    +0.000 C 
BRANCH  18  20
ATOM     20  C   UNL     1      -2.365  10.879  17.674  0.00  0.00    +0.000 C 
BRANCH  20  21
ATOM     21  C   UNL     1      -2.490   9.838  16.555  0.00  0.00    +0.000 C 
BRANCH  21  22
ATOM     22  C   UNL     1      -2.852  10.471  15.233  0.00  0.00    +0.000 C 
ATOM     23  O   UNL     1      -2.686   9.975  14.137  0.00  0.00    +0.000 OA
BRANCH  22  24
ATOM     24  O   UNL     1      -3.351  11.728  15.384  0.00  0.00    +0.000 OA
ATOM     25  H   UNL     1      -3.846  12.030  14.588  0.00  0.00    +0.000 HD
ENDBRANCH  22  24
ENDBRANCH  21  22
ENDBRANCH  20  21
ENDBRANCH  18  20
ENDBRANCH  16  17
ENDBRANCH   6  16
TORSDOF 9
ENDMDL
MODEL 6
REMARK VINA RESULT:      -6.5      2.638      6.562
REMARK  Name = 
REMARK  12 active torsions:
REMARK  status: ('A' for Active; 'I' for Inactive)
REMARK    1  A    between atoms: C_1  and  O_2
REMARK    2  A    between atoms: O_2  and  C_3
REMARK    3  A    between atoms: C_5  and  O_6
REMARK    4  A    between atoms: O_6  and  C_7
REMARK    5  A    between atoms: C_8  and  C_9
REMARK    6  A    between atoms: C_15  and  C_16
REMARK    7  A    between atoms: C_16  and  C_17
REMARK    8  A    between atoms: C_18  and  C_19
REMARK    9  A    between atoms: C_18  and  C_20
REMARK   10  A    between atoms: C_20  and  C_21
REMARK   11  A    between atoms: C_21  and  C_22
REMARK   12  A    between atoms: C_22  and  O_24
REMARK                            x       y       z     vdW  Elec       q    Type
REMARK                         _______ _______ _______ _____ _____    ______ ____
ROOT
ATOM      1  C   UNL     1       5.570   4.550  16.297  0.00  0.00    +0.000 A 
ATOM      2  C   UNL     1       6.062   5.817  16.620  0.00  0.00    +0.000 A 
ATOM      3  C   UNL     1       5.282   6.804  17.234  0.00  0.00    +0.000 A 
ATOM      4  C   UNL     1       3.944   6.516  17.546  0.00  0.00    +0.000 A 
ATOM      5  C   UNL     1       3.481   5.207  17.300  0.00  0.00    +0.000 A 
ATOM      6  C   UNL     1       4.282   4.204  16.713  0.00  0.00    +0.000 A 
ENDROOT
BRANCH   4   7
ATOM      7  C   UNL     1       3.007   7.509  18.067  0.00  0.00    +0.000 A 
ATOM      8  C   UNL     1       2.332   7.742  19.247  0.00  0.00    +0.000 A 
ATOM      9  N   UNL     1       1.619   8.919  19.174  0.00  0.00    +0.000 NA
ATOM     10  C   UNL     1       1.881   9.354  17.969  0.00  0.00    +0.000 A 
ATOM     11  O   UNL     1       2.703   8.562  17.231  0.00  0.00    +0.000 OA
ENDBRANCH   4   7
BRANCH   1  13
ATOM     12  C   UNL     1       6.356   3.816  14.187  0.00  0.00    +0.000 C 
ATOM     13  O   UNL     1       6.330   3.635  15.612  0.00  0.00    +0.000 OA
ENDBRANCH   1  13
BRANCH   3  14
ATOM     14  O   UNL     1       5.803   8.037  17.552  0.00  0.00    +0.000 OA
ATOM     15  C   UNL     1       7.230   8.137  17.553  0.00  0.00    +0.000 C 
ENDBRANCH   3  14
BRANCH   6  16
ATOM     16  C   UNL     1       3.713   2.800  16.636  0.00  0.00    +0.000 C 
BRANCH  16  17
ATOM     17  C   UNL     1       2.525   2.534  17.515  0.00  0.00    +0.000 C 
ATOM     18  C   UNL     1       2.591   2.172  18.814  0.00  0.00    +0.000 C 
ATOM     19  C   UNL     1       3.865   1.741  19.501  0.00  0.00    +0.000 C 
BRANCH  18  20
ATOM     20  C   UNL     1       1.342   2.180  19.669  0.00  0.00    +0.000 C 
BRANCH  20  21
ATOM     21  C   UNL     1       1.063   3.572  20.247  0.00  0.00    +0.000 C 
BRANCH  21  22
ATOM     22  C   UNL     1       1.978   3.899  21.402  0.00  0.00    +0.000 C 
ATOM     23  O   UNL     1       2.212   3.179  22.351  0.00  0.00    +0.000 OA
BRANCH  22  24
ATOM     24  O   UNL     1       2.498   5.153  21.307  0.00  0.00    +0.000 OA
ATOM     25  H   UNL     1       2.381   5.668  22.138  0.00  0.00    +0.000 HD
ENDBRANCH  22  24
ENDBRANCH  21  22
ENDBRANCH  20  21
ENDBRANCH  18  20
ENDBRANCH  16  17
ENDBRANCH   6  16
TORSDOF 9
ENDMDL
MODEL 7
REMARK VINA RESULT:      -6.4      3.651      7.893
REMARK  Name = 
REMARK  12 active torsions:
REMARK  status: ('A' for Active; 'I' for Inactive)
REMARK    1  A    between atoms: C_1  and  O_2
REMARK    2  A    between atoms: O_2  and  C_3
REMARK    3  A    between atoms: C_5  and  O_6
REMARK    4  A    between atoms: O_6  and  C_7
REMARK    5  A    between atoms: C_8  and  C_9
REMARK    6  A    between atoms: C_15  and  C_16
REMARK    7  A    between atoms: C_16  and  C_17
REMARK    8  A    between atoms: C_18  and  C_19
REMARK    9  A    between atoms: C_18  and  C_20
REMARK   10  A    between atoms: C_20  and  C_21
REMARK   11  A    between atoms: C_21  and  C_22
REMARK   12  A    between atoms: C_22  and  O_24
REMARK                            x       y       z     vdW  Elec       q    Type
REMARK                         _______ _______ _______ _____ _____    ______ ____
ROOT
ATOM      1  C   UNL     1       4.110   6.369  17.234  0.00  0.00    +0.000 A 
ATOM      2  C   UNL     1       4.364   4.995  17.260  0.00  0.00    +0.000 A 
ATOM      3  C   UNL     1       3.753   4.124  18.169  0.00  0.00    +0.000 A 
ATOM      4  C   UNL     1       2.840   4.644  19.099  0.00  0.00    +0.000 A 
ATOM      5  C   UNL     1       2.521   6.015  19.007  0.00  0.00    +0.000 A 
ATOM      6  C   UNL     1       3.113   6.883  18.066  0.00  0.00    +0.000 A 
ENDROOT
BRANCH   4   7
ATOM      7  C   UNL     1       2.244   3.851  20.172  0.00  0.00    +0.000 A 
ATOM      8  C   UNL     1       0.982   3.430  20.539  0.00  0.00    +0.000 A 
ATOM      9  N   UNL     1       1.046   2.614  21.647  0.00  0.00    +0.000 NA
ATOM     10  C   UNL     1       2.326   2.568  21.913  0.00  0.00    +0.000 A 
ATOM     11  O   UNL     1       3.119   3.291  21.078  0.00  0.00    +0.000 OA
ENDBRANCH   4   7
BRANCH   1  13
ATOM     12  C   UNL     1       5.369   6.581  15.239  0.00  0.00    +0.000 C 
ATOM     13  O   UNL     1       4.793   7.213  16.394  0.00  0.00    +0.000 OA
ENDBRANCH   1  13
BRANCH   3  14
ATOM     14  O   UNL     1       4.015   2.773  18.156  0.00  0.00    +0.000 OA
ATOM     15  C   UNL     1       2.996   1.939  17.599  0.00  0.00    +0.000 C 
ENDBRANCH   3  14
BRANCH   6  16
ATOM     16  C   UNL     1       2.577   8.299  17.975  0.00  0.00    +0.000 C 
BRANCH  16  17
ATOM     17  C   UNL     1       1.662   8.717  19.090  0.00  0.00    +0.000 C 
ATOM     18  C   UNL     1       1.147   9.955  19.244  0.00  0.00    +0.000 C 
ATOM     19  C   UNL     1       1.612  11.160  18.460  0.00  0.00    +0.000 C 
BRANCH  18  20
ATOM     20  C   UNL     1       0.041  10.198  20.248  0.00  0.00    +0.000 C 
BRANCH  20  21
ATOM     21  C   UNL     1      -0.028   9.079  21.292  0.00  0.00    +0.000 C 
BRANCH  21  22
ATOM     22  C   UNL     1       0.585   9.493  22.608  0.00  0.00    +0.000 C 
ATOM     23  O   UNL     1       0.007  10.052  23.518  0.00  0.00    +0.000 OA
BRANCH  22  24
ATOM     24  O   UNL     1       1.918   9.224  22.662  0.00  0.00    +0.000 OA
ATOM     25  H   UNL     1       2.275   8.940  21.789  0.00  0.00    +0.000 HD
ENDBRANCH  22  24
ENDBRANCH  21  22
ENDBRANCH  20  21
ENDBRANCH  18  20
ENDBRANCH  16  17
ENDBRANCH   6  16
TORSDOF 9
ENDMDL
MODEL 8
REMARK VINA RESULT:      -6.4      3.711      6.607
REMARK  Name = 
REMARK  12 active torsions:
REMARK  status: ('A' for Active; 'I' for Inactive)
REMARK    1  A    between atoms: C_1  and  O_2
REMARK    2  A    between atoms: O_2  and  C_3
REMARK    3  A    between atoms: C_5  and  O_6
REMARK    4  A    between atoms: O_6  and  C_7
REMARK    5  A    between atoms: C_8  and  C_9
REMARK    6  A    between atoms: C_15  and  C_16
REMARK    7  A    between atoms: C_16  and  C_17
REMARK    8  A    between atoms: C_18  and  C_19
REMARK    9  A    between atoms: C_18  and  C_20
REMARK   10  A    between atoms: C_20  and  C_21
REMARK   11  A    between atoms: C_21  and  C_22
REMARK   12  A    between atoms: C_22  and  O_24
REMARK                            x       y       z     vdW  Elec       q    Type
REMARK                         _______ _______ _______ _____ _____    ______ ____
ROOT
ATOM      1  C   UNL     1       2.589   7.459  18.051  0.00  0.00    +0.000 A 
ATOM      2  C   UNL     1       3.517   7.447  17.006  0.00  0.00    +0.000 A 
ATOM      3  C   UNL     1       4.749   6.789  17.089  0.00  0.00    +0.000 A 
ATOM      4  C   UNL     1       5.075   6.102  18.269  0.00  0.00    +0.000 A 
ATOM      5  C   UNL     1       4.096   6.042  19.283  0.00  0.00    +0.000 A 
ATOM      6  C   UNL     1       2.841   6.678  19.181  0.00  0.00    +0.000 A 
ENDROOT
BRANCH   4   7
ATOM      7  C   UNL     1       6.380   5.491  18.511  0.00  0.00    +0.000 A 
ATOM      8  C   UNL     1       7.266   4.689  17.822  0.00  0.00    +0.000 A 
ATOM      9  N   UNL     1       8.412   4.486  18.560  0.00  0.00    +0.000 NA
ATOM     10  C   UNL     1       8.186   5.162  19.657  0.00  0.00    +0.000 A 
ATOM     11  O   UNL     1       6.982   5.791  19.714  0.00  0.00    +0.000 OA
ENDBRANCH   4   7
BRANCH   1  13
ATOM     12  C   UNL     1       1.614   9.615  17.952  0.00  0.00    +0.000 C 
ATOM     13  O   UNL     1       1.430   8.190  17.977  0.00  0.00    +0.000 OA
ENDBRANCH   1  13
BRANCH   3  14
ATOM     14  O   UNL     1       5.634   6.785  16.035  0.00  0.00    +0.000 OA
ATOM     15  C   UNL     1       5.427   5.778  15.041  0.00  0.00    +0.000 C 
ENDBRANCH   3  14
BRANCH   6  16
ATOM     16  C   UNL     1       1.824   6.416  20.276  0.00  0.00    +0.000 C 
BRANCH  16  17
ATOM     17  C   UNL     1       1.766   5.001  20.779  0.00  0.00    +0.000 C 
ATOM     18  C   UNL     1       1.553   3.915  20.006  0.00  0.00    +0.000 C 
ATOM     19  C   UNL     1       1.096   3.986  18.569  0.00  0.00    +0.000 C 
BRANCH  18  20
ATOM     20  C   UNL     1       1.767   2.528  20.571  0.00  0.00    +0.000 C 
BRANCH  20  21
ATOM     21  C   UNL     1       3.247   2.264  20.871  0.00  0.00    +0.000 C 
BRANCH  21  22
ATOM     22  C   UNL     1       4.044   2.020  19.613  0.00  0.00    +0.000 C 
ATOM     23  O   UNL     1       3.681   1.371  18.654  0.00  0.00    +0.000 OA
BRANCH  22  24
ATOM     24  O   UNL     1       5.287   2.572  19.677  0.00  0.00    +0.000 OA
ATOM     25  H   UNL     1       5.985   1.898  19.850  0.00  0.00    +0.000 HD
ENDBRANCH  22  24
ENDBRANCH  21  22
ENDBRANCH  20  21
ENDBRANCH  18  20
ENDBRANCH  16  17
ENDBRANCH   6  16
TORSDOF 9
ENDMDL
MODEL 9
REMARK VINA RESULT:      -6.4      1.329      1.408
REMARK  Name = 
REMARK  12 active torsions:
REMARK  status: ('A' for Active; 'I' for Inactive)
REMARK    1  A    between atoms: C_1  and  O_2
REMARK    2  A    between atoms: O_2  and  C_3
REMARK    3  A    between atoms: C_5  and  O_6
REMARK    4  A    between atoms: O_6  and  C_7
REMARK    5  A    between atoms: C_8  and  C_9
REMARK    6  A    between atoms: C_15  and  C_16
REMARK    7  A    between atoms: C_16  and  C_17
REMARK    8  A    between atoms: C_18  and  C_19
REMARK    9  A    between atoms: C_18  and  C_20
REMARK   10  A    between atoms: C_20  and  C_21
REMARK   11  A    between atoms: C_21  and  C_22
REMARK   12  A    between atoms: C_22  and  O_24
REMARK                            x       y       z     vdW  Elec       q    Type
REMARK                         _______ _______ _______ _____ _____    ______ ____
ROOT
ATOM      1  C   UNL     1       5.746   6.319  17.001  0.00  0.00    +0.000 A 
ATOM      2  C   UNL     1       4.871   6.702  18.022  0.00  0.00    +0.000 A 
ATOM      3  C   UNL     1       3.858   5.869  18.509  0.00  0.00    +0.000 A 
ATOM      4  C   UNL     1       3.707   4.588  17.956  0.00  0.00    +0.000 A 
ATOM      5  C   UNL     1       4.650   4.176  16.991  0.00  0.00    +0.000 A 
ATOM      6  C   UNL     1       5.692   5.006  16.528  0.00  0.00    +0.000 A 
ENDROOT
BRANCH   4   7
ATOM      7  C   UNL     1       2.607   3.687  18.298  0.00  0.00    +0.000 A 
ATOM      8  C   UNL     1       1.322   3.447  17.858  0.00  0.00    +0.000 A 
ATOM      9  N   UNL     1       0.767   2.386  18.539  0.00  0.00    +0.000 NA
ATOM     10  C   UNL     1       1.720   2.023  19.359  0.00  0.00    +0.000 A 
ATOM     11  O   UNL     1       2.860   2.760  19.285  0.00  0.00    +0.000 OA
ENDBRANCH   4   7
BRANCH   1  13
ATOM     12  C   UNL     1       7.609   7.717  17.430  0.00  0.00    +0.000 C 
ATOM     13  O   UNL     1       6.670   7.191  16.479  0.00  0.00    +0.000 OA
ENDBRANCH   1  13
BRANCH   3  14
ATOM     14  O   UNL     1       3.024   6.272  19.526  0.00  0.00    +0.000 OA
ATOM     15  C   UNL     1       2.279   7.471  19.292  0.00  0.00    +0.000 C 
ENDBRANCH   3  14
BRANCH   6  16
ATOM     16  C   UNL     1       6.724   4.395  15.599  0.00  0.00    +0.000 C 
BRANCH  16  17
ATOM     17  C   UNL     1       6.217   4.000  14.241  0.00  0.00    +0.000 C 
ATOM     18  C   UNL     1       6.844   4.264  13.076  0.00  0.00    +0.000 C 
ATOM     19  C   UNL     1       8.016   5.208  12.950  0.00  0.00    +0.000 C 
BRANCH  18  20
ATOM     20  C   UNL     1       6.380   3.603  11.796  0.00  0.00    +0.000 C 
BRANCH  20  21
ATOM     21  C   UNL     1       5.161   2.705  12.036  0.00  0.00    +0.000 C 
BRANCH  21  22
ATOM     22  C   UNL     1       3.973   3.130  11.207  0.00  0.00    +0.000 C 
ATOM     23  O   UNL     1       3.025   2.432  10.911  0.00  0.00    +0.000 OA
BRANCH  22  24
ATOM     24  O   UNL     1       4.094   4.408  10.753  0.00  0.00    +0.000 OA
ATOM     25  H   UNL     1       5.030   4.648  10.565  0.00  0.00    +0.000 HD
ENDBRANCH  22  24
ENDBRANCH  21  22
ENDBRANCH  20  21
ENDBRANCH  18  20
ENDBRANCH  16  17
ENDBRANCH   6  16
TORSDOF 9
ENDMDL
