MODEL 1
REMARK VINA RESULT:      -8.0      0.000      0.000
REMARK  Name = 
REMARK  11 active torsions:
REMARK  status: ('A' for Active; 'I' for Inactive)
REMARK    1  A    between atoms: C_1  and  C_2
REMARK    2  A    between atoms: C_2  and  O_3
REMARK    3  A    between atoms: C_2  and  C_18
REMARK    4  A    between atoms: O_3  and  C_4
REMARK    5  A    between atoms: C_4  and  C_6
REMARK    6  A    between atoms: C_6  and  N_7
REMARK    7  A    between atoms: C_18  and  C_20
REMARK    8  A    between atoms: C_23  and  C_24
REMARK    9  A    between atoms: C_24  and  C_25
REMARK   10  A    between atoms: C_24  and  C_26
REMARK   11  A    between atoms: C_24  and  C_27
REMARK                            x       y       z     vdW  Elec       q    Type
REMARK                         _______ _______ _______ _____ _____    ______ ____
ROOT
ATOM      1  O   UNL     1       3.163   4.643  20.550  0.00  0.00    +0.000 OA
ENDROOT
BRANCH   1   3
ATOM      2  C   UNL     1       0.743   4.629  20.314  0.00  0.00    +0.000 C 
ATOM      3  C   UNL     1       1.981   5.452  20.669  0.00  0.00    +0.000 C 
BRANCH   3   4
ATOM      4  C   UNL     1       2.105   6.647  19.717  0.00  0.00    +0.000 C 
ATOM      5  O   UNL     1       2.710   6.587  18.646  0.00  0.00    +0.000 OA
BRANCH   4   6
ATOM      6  C   UNL     1       1.446   7.930  20.085  0.00  0.00    +0.000 A 
ATOM      7  C   UNL     1       0.992   8.083  21.397  0.00  0.00    +0.000 A 
ATOM      8  C   UNL     1       0.375   9.271  21.801  0.00  0.00    +0.000 A 
ATOM      9  C   UNL     1       0.213  10.346  20.913  0.00  0.00    +0.000 A 
ATOM     10  C   UNL     1       0.683  10.173  19.595  0.00  0.00    +0.000 A 
ATOM     11  C   UNL     1       1.294   8.982  19.183  0.00  0.00    +0.000 A 
BRANCH   9  12
ATOM     12  C   UNL     1      -0.419  11.682  21.342  0.00  0.00    +0.000 C 
ATOM     13  C   UNL     1       0.574  12.865  21.321  0.00  0.00    +0.000 C 
ATOM     14  C   UNL     1      -1.574  12.033  20.379  0.00  0.00    +0.000 C 
ATOM     15  C   UNL     1      -0.974  11.574  22.778  0.00  0.00    +0.000 C 
ENDBRANCH   9  12
ENDBRANCH   4   6
ENDBRANCH   3   4
ENDBRANCH   1   3
BRANCH   1  16
ATOM     16  C   UNL     1       3.029   3.345  20.945  0.00  0.00    +0.000 C 
ATOM     17  O   UNL     1       2.512   2.996  21.997  0.00  0.00    +0.000 OA
BRANCH  16  18
ATOM     18  C   UNL     1       3.543   2.384  19.889  0.00  0.00    +0.000 C 
BRANCH  18  19
ATOM     19  N   UNL     1       3.846   3.105  18.675  0.00  0.00    +0.000 N 
ATOM     20  C   UNL     1       2.975   3.248  17.642  0.00  0.00    +0.000 C 
ATOM     21  O   UNL     1       1.842   2.805  17.567  0.00  0.00    +0.000 OA
ATOM     22  N   UNL     1       3.569   4.009  16.667  0.00  0.00    +0.000 N 
ATOM     23  C   UNL     1       4.912   4.398  17.014  0.00  0.00    +0.000 C 
ATOM     24  C   UNL     1       5.959   3.837  16.044  0.00  0.00    +0.000 C 
ATOM     25  C   UNL     1       6.571   5.063  15.374  0.00  0.00    +0.000 C 
ATOM     26  C   UNL     1       6.471   6.149  16.432  0.00  0.00    +0.000 C 
ATOM     27  C   UNL     1       5.098   5.917  17.049  0.00  0.00    +0.000 C 
ATOM     28  C   UNL     1       5.013   3.768  18.416  0.00  0.00    +0.000 C 
ATOM     29  O   UNL     1       5.974   3.861  19.166  0.00  0.00    +0.000 OA
ATOM     30  H   UNL     1       3.085   4.226  15.805  0.00  0.00    +0.000 HD
ENDBRANCH  18  19
ENDBRANCH  16  18
ENDBRANCH   1  16
TORSDOF 7
ENDMDL
MODEL 2
REMARK VINA RESULT:      -7.9      0.864      1.547
REMARK  Name = 
REMARK  11 active torsions:
REMARK  status: ('A' for Active; 'I' for Inactive)
REMARK    1  A    between atoms: C_1  and  C_2
REMARK    2  A    between atoms: C_2  and  O_3
REMARK    3  A    between atoms: C_2  and  C_18
REMARK    4  A    between atoms: O_3  and  C_4
REMARK    5  A    between atoms: C_4  and  C_6
REMARK    6  A    between atoms: C_6  and  N_7
REMARK    7  A    between atoms: C_18  and  C_20
REMARK    8  A    between atoms: C_23  and  C_24
REMARK    9  A    between atoms: C_24  and  C_25
REMARK   10  A    between atoms: C_24  and  C_26
REMARK   11  A    between atoms: C_24  and  C_27
REMARK                            x       y       z     vdW  Elec       q    Type
REMARK                         _______ _______ _______ _____ _____    ______ ____
ROOT
ATOM      1  O   UNL     1       3.028   4.293  21.167  0.00  0.00    +0.000 OA
ENDROOT
BRANCH   1   3
ATOM      2  C   UNL     1       0.924   4.495  19.963  0.00  0.00    +0.000 C 
ATOM      3  C   UNL     1       1.962   5.200  20.837  0.00  0.00    +0.000 C 
BRANCH   3   4
ATOM      4  C   UNL     1       2.550   6.399  20.086  0.00  0.00    +0.000 C 
ATOM      5  O   UNL     1       3.638   6.357  19.511  0.00  0.00    +0.000 OA
BRANCH   4   6
ATOM      6  C   UNL     1       1.767   7.664  20.026  0.00  0.00    +0.000 A 
ATOM      7  C   UNL     1       1.815   8.412  18.847  0.00  0.00    +0.000 A 
ATOM      8  C   UNL     1       1.092   9.602  18.733  0.00  0.00    +0.000 A 
ATOM      9  C   UNL     1       0.285  10.069  19.783  0.00  0.00    +0.000 A 
ATOM     10  C   UNL     1       0.245   9.296  20.960  0.00  0.00    +0.000 A 
ATOM     11  C   UNL     1       0.975   8.107  21.084  0.00  0.00    +0.000 A 
BRANCH   9  12
ATOM     12  C   UNL     1      -0.560  11.350  19.667  0.00  0.00    +0.000 C 
ATOM     13  C   UNL     1      -1.834  11.170  18.812  0.00  0.00    +0.000 C 
ATOM     14  C   UNL     1      -1.009  11.794  21.075  0.00  0.00    +0.000 C 
ATOM     15  C   UNL     1       0.270  12.481  19.022  0.00  0.00    +0.000 C 
ENDBRANCH   9  12
ENDBRANCH   4   6
ENDBRANCH   3   4
ENDBRANCH   1   3
BRANCH   1  16
ATOM     16  C   UNL     1       2.782   2.977  20.909  0.00  0.00    +0.000 C 
ATOM     17  O   UNL     1       1.749   2.397  21.214  0.00  0.00    +0.000 OA
BRANCH  16  18
ATOM     18  C   UNL     1       3.922   2.337  20.139  0.00  0.00    +0.000 C 
BRANCH  18  19
ATOM     19  N   UNL     1       4.012   2.919  18.820  0.00  0.00    +0.000 N 
ATOM     20  C   UNL     1       3.088   2.723  17.843  0.00  0.00    +0.000 C 
ATOM     21  O   UNL     1       2.077   2.046  17.909  0.00  0.00    +0.000 OA
ATOM     22  N   UNL     1       3.463   3.439  16.734  0.00  0.00    +0.000 N 
ATOM     23  C   UNL     1       4.702   4.147  16.927  0.00  0.00    +0.000 C 
ATOM     24  C   UNL     1       5.805   3.682  15.970  0.00  0.00    +0.000 C 
ATOM     25  C   UNL     1       6.109   4.896  15.098  0.00  0.00    +0.000 C 
ATOM     26  C   UNL     1       5.819   6.080  16.005  0.00  0.00    +0.000 C 
ATOM     27  C   UNL     1       4.555   5.659  16.744  0.00  0.00    +0.000 C 
ATOM     28  C   UNL     1       4.995   3.766  18.392  0.00  0.00    +0.000 C 
ATOM     29  O   UNL     1       5.943   4.167  19.051  0.00  0.00    +0.000 OA
ATOM     30  H   UNL     1       2.908   3.421  15.887  0.00  0.00    +0.000 HD
ENDBRANCH  18  19
ENDBRANCH  16  18
ENDBRANCH   1  16
TORSDOF 7
ENDMDL
MODEL 3
REMARK VINA RESULT:      -7.9      1.132      1.774
REMARK  Name = 
REMARK  11 active torsions:
REMARK  status: ('A' for Active; 'I' for Inactive)
REMARK    1  A    between atoms: C_1  and  C_2
REMARK    2  A    between atoms: C_2  and  O_3
REMARK    3  A    between atoms: C_2  and  C_18
REMARK    4  A    between atoms: O_3  and  C_4
REMARK    5  A    between atoms: C_4  and  C_6
REMARK    6  A    between atoms: C_6  and  N_7
REMARK    7  A    between atoms: C_18  and  C_20
REMARK    8  A    between atoms: C_23  and  C_24
REMARK    9  A    between atoms: C_24  and  C_25
REMARK   10  A    between atoms: C_24  and  C_26
REMARK   11  A    between atoms: C_24  and  C_27
REMARK                            x       y       z     vdW  Elec       q    Type
REMARK                         _______ _______ _______ _____ _____    ______ ____
ROOT
ATOM      1  O   UNL     1       3.202   4.625  20.527  0.00  0.00    +0.000 OA
ENDROOT
BRANCH   1   3
ATOM      2  C   UNL     1       0.859   4.062  20.199  0.00  0.00    +0.000 C 
ATOM      3  C   UNL     1       1.892   5.182  20.316  0.00  0.00    +0.000 C 
BRANCH   3   4
ATOM      4  C   UNL     1       1.912   6.010  19.027  0.00  0.00    +0.000 C 
ATOM      5  O   UNL     1       2.039   5.506  17.911  0.00  0.00    +0.000 OA
BRANCH   4   6
ATOM      6  C   UNL     1       1.748   7.488  19.121  0.00  0.00    +0.000 A 
ATOM      7  C   UNL     1       1.998   8.250  17.977  0.00  0.00    +0.000 A 
ATOM      8  C   UNL     1       1.850   9.640  18.006  0.00  0.00    +0.000 A 
ATOM      9  C   UNL     1       1.431  10.305  19.169  0.00  0.00    +0.000 A 
ATOM     10  C   UNL     1       1.179   9.516  20.309  0.00  0.00    +0.000 A 
ATOM     11  C   UNL     1       1.334   8.124  20.289  0.00  0.00    +0.000 A 
BRANCH   9  12
ATOM     12  C   UNL     1       1.214  11.828  19.216  0.00  0.00    +0.000 C 
ATOM     13  C   UNL     1       1.349  12.423  20.635  0.00  0.00    +0.000 C 
ATOM     14  C   UNL     1       2.265  12.521  18.324  0.00  0.00    +0.000 C 
ATOM     15  C   UNL     1      -0.198  12.182  18.702  0.00  0.00    +0.000 C 
ENDBRANCH   9  12
ENDBRANCH   4   6
ENDBRANCH   3   4
ENDBRANCH   1   3
BRANCH   1  16
ATOM     16  C   UNL     1       3.228   3.346  20.996  0.00  0.00    +0.000 C 
ATOM     17  O   UNL     1       2.581   2.951  21.957  0.00  0.00    +0.000 OA
BRANCH  16  18
ATOM     18  C   UNL     1       4.109   2.456  20.140  0.00  0.00    +0.000 C 
BRANCH  18  19
ATOM     19  N   UNL     1       4.357   3.090  18.866  0.00  0.00    +0.000 N 
ATOM     20  C   UNL     1       3.588   2.896  17.763  0.00  0.00    +0.000 C 
ATOM     21  O   UNL     1       2.607   2.180  17.664  0.00  0.00    +0.000 OA
ATOM     22  N   UNL     1       4.083   3.668  16.741  0.00  0.00    +0.000 N 
ATOM     23  C   UNL     1       5.252   4.414  17.130  0.00  0.00    +0.000 C 
ATOM     24  C   UNL     1       6.496   4.027  16.323  0.00  0.00    +0.000 C 
ATOM     25  C   UNL     1       6.866   5.283  15.542  0.00  0.00    +0.000 C 
ATOM     26  C   UNL     1       6.403   6.421  16.436  0.00  0.00    +0.000 C 
ATOM     27  C   UNL     1       5.067   5.925  16.976  0.00  0.00    +0.000 C 
ATOM     28  C   UNL     1       5.354   3.989  18.608  0.00  0.00    +0.000 C 
ATOM     29  O   UNL     1       6.182   4.400  19.407  0.00  0.00    +0.000 OA
ATOM     30  H   UNL     1       3.653   3.661  15.824  0.00  0.00    +0.000 HD
ENDBRANCH  18  19
ENDBRANCH  16  18
ENDBRANCH   1  16
TORSDOF 7
ENDMDL
MODEL 4
REMARK VINA RESULT:      -7.8      2.068      3.500
REMARK  Name = 
REMARK  11 active torsions:
REMARK  status: ('A' for Active; 'I' for Inactive)
REMARK    1  A    between atoms: C_1  and  C_2
REMARK    2  A    between atoms: C_2  and  O_3
REMARK    3  A    between atoms: C_2  and  C_18
REMARK    4  A    between atoms: O_3  and  C_4
REMARK    5  A    between atoms: C_4  and  C_6
REMARK    6  A    between atoms: C_6  and  N_7
REMARK    7  A    between atoms: C_18  and  C_20
REMARK    8  A    between atoms: C_23  and  C_24
REMARK    9  A    between atoms: C_24  and  C_25
REMARK   10  A    between atoms: C_24  and  C_26
REMARK   11  A    between atoms: C_24  and  C_27
REMARK                            x       y       z     vdW  Elec       q    Type
REMARK                         _______ _______ _______ _____ _____    ______ ____
ROOT
ATOM      1  O   UNL     1       4.805   6.151  19.190  0.00  0.00    +0.000 OA
ENDROOT
BRANCH   1   3
ATOM      2  C   UNL     1       3.721   4.325  18.005  0.00  0.00    +0.000 C 
ATOM      3  C   UNL     1       3.993   4.976  19.361  0.00  0.00    +0.000 C 
BRANCH   3   4
ATOM      4  C   UNL     1       2.671   5.383  20.020  0.00  0.00    +0.000 C 
ATOM      5  O   UNL     1       2.024   4.625  20.742  0.00  0.00    +0.000 OA
BRANCH   4   6
ATOM      6  C   UNL     1       2.154   6.762  19.800  0.00  0.00    +0.000 A 
ATOM      7  C   UNL     1       1.602   7.439  20.890  0.00  0.00    +0.000 A 
ATOM      8  C   UNL     1       1.110   8.739  20.743  0.00  0.00    +0.000 A 
ATOM      9  C   UNL     1       1.173   9.407  19.510  0.00  0.00    +0.000 A 
ATOM     10  C   UNL     1       1.739   8.708  18.424  0.00  0.00    +0.000 A 
ATOM     11  C   UNL     1       2.225   7.403  18.564  0.00  0.00    +0.000 A 
BRANCH   9  12
ATOM     12  C   UNL     1       0.683  10.855  19.330  0.00  0.00    +0.000 C 
ATOM     13  C   UNL     1       1.706  11.764  18.613  0.00  0.00    +0.000 C 
ATOM     14  C   UNL     1      -0.607  10.855  18.482  0.00  0.00    +0.000 C 
ATOM     15  C   UNL     1       0.385  11.492  20.704  0.00  0.00    +0.000 C 
ENDBRANCH   9  12
ENDBRANCH   4   6
ENDBRANCH   3   4
ENDBRANCH   1   3
BRANCH   1  16
ATOM     16  C   UNL     1       6.152   5.940  19.193  0.00  0.00    +0.000 C 
ATOM     17  O   UNL     1       6.743   5.272  20.030  0.00  0.00    +0.000 OA
BRANCH  16  18
ATOM     18  C   UNL     1       6.819   6.583  17.991  0.00  0.00    +0.000 C 
BRANCH  18  19
ATOM     19  N   UNL     1       6.905   5.632  16.908  0.00  0.00    +0.000 N 
ATOM     20  C   UNL     1       7.673   4.511  16.945  0.00  0.00    +0.000 C 
ATOM     21  O   UNL     1       8.393   4.142  17.855  0.00  0.00    +0.000 OA
ATOM     22  N   UNL     1       7.498   3.820  15.772  0.00  0.00    +0.000 N 
ATOM     23  C   UNL     1       6.594   4.485  14.870  0.00  0.00    +0.000 C 
ATOM     24  C   UNL     1       7.266   4.896  13.555  0.00  0.00    +0.000 C 
ATOM     25  C   UNL     1       6.559   4.078  12.479  0.00  0.00    +0.000 C 
ATOM     26  C   UNL     1       5.153   3.891  13.024  0.00  0.00    +0.000 C 
ATOM     27  C   UNL     1       5.381   3.625  14.507  0.00  0.00    +0.000 C 
ATOM     28  C   UNL     1       6.206   5.699  15.736  0.00  0.00    +0.000 C 
ATOM     29  O   UNL     1       5.401   6.564  15.422  0.00  0.00    +0.000 OA
ATOM     30  H   UNL     1       7.992   2.954  15.597  0.00  0.00    +0.000 HD
ENDBRANCH  18  19
ENDBRANCH  16  18
ENDBRANCH   1  16
TORSDOF 7
ENDMDL
MODEL 5
REMARK VINA RESULT:      -7.8      2.107      3.740
REMARK  Name = 
REMARK  11 active torsions:
REMARK  status: ('A' for Active; 'I' for Inactive)
REMARK    1  A    between atoms: C_1  and  C_2
REMARK    2  A    between atoms: C_2  and  O_3
REMARK    3  A    between atoms: C_2  and  C_18
REMARK    4  A    between atoms: O_3  and  C_4
REMARK    5  A    between atoms: C_4  and  C_6
REMARK    6  A    between atoms: C_6  and  N_7
REMARK    7  A    between atoms: C_18  and  C_20
REMARK    8  A    between atoms: C_23  and  C_24
REMARK    9  A    between atoms: C_24  and  C_25
REMARK   10  A    between atoms: C_24  and  C_26
REMARK   11  A    between atoms: C_24  and  C_27
REMARK                            x       y       z     vdW  Elec       q    Type
REMARK                         _______ _______ _______ _____ _____    ______ ____
ROOT
ATOM      1  O   UNL     1       4.528   5.679  18.808  0.00  0.00    +0.000 OA
ENDROOT
BRANCH   1   3
ATOM      2  C   UNL     1       3.934   3.332  19.035  0.00  0.00    +0.000 C 
ATOM      3  C   UNL     1       3.832   4.733  19.637  0.00  0.00    +0.000 C 
BRANCH   3   4
ATOM      4  C   UNL     1       2.361   5.153  19.735  0.00  0.00    +0.000 C 
ATOM      5  O   UNL     1       1.446   4.346  19.897  0.00  0.00    +0.000 OA
BRANCH   4   6
ATOM      6  C   UNL     1       2.021   6.600  19.653  0.00  0.00    +0.000 A 
ATOM      7  C   UNL     1       2.189   7.247  18.427  0.00  0.00    +0.000 A 
ATOM      8  C   UNL     1       1.875   8.602  18.291  0.00  0.00    +0.000 A 
ATOM      9  C   UNL     1       1.368   9.345  19.369  0.00  0.00    +0.000 A 
ATOM     10  C   UNL     1       1.201   8.672  20.596  0.00  0.00    +0.000 A 
ATOM     11  C   UNL     1       1.521   7.316  20.740  0.00  0.00    +0.000 A 
BRANCH   9  12
ATOM     12  C   UNL     1       0.970  10.826  19.237  0.00  0.00    +0.000 C 
ATOM     13  C   UNL     1      -0.439  11.031  18.636  0.00  0.00    +0.000 C 
ATOM     14  C   UNL     1       0.976  11.483  20.633  0.00  0.00    +0.000 C 
ATOM     15  C   UNL     1       1.970  11.568  18.325  0.00  0.00    +0.000 C 
ENDBRANCH   9  12
ENDBRANCH   4   6
ENDBRANCH   3   4
ENDBRANCH   1   3
BRANCH   1  16
ATOM     16  C   UNL     1       5.875   5.753  19.005  0.00  0.00    +0.000 C 
ATOM     17  O   UNL     1       6.462   5.247  19.951  0.00  0.00    +0.000 OA
BRANCH  16  18
ATOM     18  C   UNL     1       6.565   6.484  17.868  0.00  0.00    +0.000 C 
BRANCH  18  19
ATOM     19  N   UNL     1       6.777   5.582  16.760  0.00  0.00    +0.000 N 
ATOM     20  C   UNL     1       7.626   4.522  16.800  0.00  0.00    +0.000 C 
ATOM     21  O   UNL     1       8.327   4.174  17.734  0.00  0.00    +0.000 OA
ATOM     22  N   UNL     1       7.564   3.863  15.597  0.00  0.00    +0.000 N 
ATOM     23  C   UNL     1       6.657   4.491  14.671  0.00  0.00    +0.000 C 
ATOM     24  C   UNL     1       7.361   4.999  13.407  0.00  0.00    +0.000 C 
ATOM     25  C   UNL     1       6.773   4.171  12.270  0.00  0.00    +0.000 C 
ATOM     26  C   UNL     1       5.361   3.859  12.734  0.00  0.00    +0.000 C 
ATOM     27  C   UNL     1       5.534   3.557  14.217  0.00  0.00    +0.000 C 
ATOM     28  C   UNL     1       6.135   5.640  15.555  0.00  0.00    +0.000 C 
ATOM     29  O   UNL     1       5.282   6.453  15.228  0.00  0.00    +0.000 OA
ATOM     30  H   UNL     1       8.131   3.044  15.420  0.00  0.00    +0.000 HD
ENDBRANCH  18  19
ENDBRANCH  16  18
ENDBRANCH   1  16
TORSDOF 7
ENDMDL
MODEL 6
REMARK VINA RESULT:      -7.6      1.789      3.030
REMARK  Name = 
REMARK  11 active torsions:
REMARK  status: ('A' for Active; 'I' for Inactive)
REMARK    1  A    between atoms: C_1  and  C_2
REMARK    2  A    between atoms: C_2  and  O_3
REMARK    3  A    between atoms: C_2  and  C_18
REMARK    4  A    between atoms: O_3  and  C_4
REMARK    5  A    between atoms: C_4  and  C_6
REMARK    6  A    between atoms: C_6  and  N_7
REMARK    7  A    between atoms: C_18  and  C_20
REMARK    8  A    between atoms: C_23  and  C_24
REMARK    9  A    between atoms: C_24  and  C_25
REMARK   10  A    between atoms: C_24  and  C_26
REMARK   11  A    between atoms: C_24  and  C_27
REMARK                            x       y       z     vdW  Elec       q    Type
REMARK                         _______ _______ _______ _____ _____    ______ ____
ROOT
ATOM      1  O   UNL     1       3.584   5.709  19.950  0.00  0.00    +0.000 OA
ENDROOT
BRANCH   1   3
ATOM      2  C   UNL     1       2.252   5.087  18.012  0.00  0.00    +0.000 C 
ATOM      3  C   UNL     1       2.393   6.027  19.209  0.00  0.00    +0.000 C 
BRANCH   3   4
ATOM      4  C   UNL     1       2.486   7.478  18.727  0.00  0.00    +0.000 C 
ATOM      5  O   UNL     1       3.158   7.815  17.752  0.00  0.00    +0.000 OA
BRANCH   4   6
ATOM      6  C   UNL     1       1.715   8.527  19.450  0.00  0.00    +0.000 A 
ATOM      7  C   UNL     1       1.272   9.635  18.725  0.00  0.00    +0.000 A 
ATOM      8  C   UNL     1       0.536  10.645  19.351  0.00  0.00    +0.000 A 
ATOM      9  C   UNL     1       0.204  10.567  20.713  0.00  0.00    +0.000 A 
ATOM     10  C   UNL     1       0.655   9.437  21.425  0.00  0.00    +0.000 A 
ATOM     11  C   UNL     1       1.401   8.427  20.805  0.00  0.00    +0.000 A 
BRANCH   9  12
ATOM     12  C   UNL     1      -0.646  11.639  21.418  0.00  0.00    +0.000 C 
ATOM     13  C   UNL     1      -1.090  11.233  22.841  0.00  0.00    +0.000 C 
ATOM     14  C   UNL     1       0.176  12.939  21.545  0.00  0.00    +0.000 C 
ATOM     15  C   UNL     1      -1.925  11.928  20.603  0.00  0.00    +0.000 C 
ENDBRANCH   9  12
ENDBRANCH   4   6
ENDBRANCH   3   4
ENDBRANCH   1   3
BRANCH   1  16
ATOM     16  C   UNL     1       4.538   5.020  19.262  0.00  0.00    +0.000 C 
ATOM     17  O   UNL     1       4.509   3.813  19.066  0.00  0.00    +0.000 OA
BRANCH  16  18
ATOM     18  C   UNL     1       5.606   5.947  18.711  0.00  0.00    +0.000 C 
BRANCH  18  19
ATOM     19  N   UNL     1       6.250   5.334  17.573  0.00  0.00    +0.000 N 
ATOM     20  C   UNL     1       7.420   4.648  17.645  0.00  0.00    +0.000 C 
ATOM     21  O   UNL     1       8.098   4.449  18.637  0.00  0.00    +0.000 OA
ATOM     22  N   UNL     1       7.730   4.176  16.393  0.00  0.00    +0.000 N 
ATOM     23  C   UNL     1       6.757   4.560  15.402  0.00  0.00    +0.000 C 
ATOM     24  C   UNL     1       7.352   5.447  14.303  0.00  0.00    +0.000 C 
ATOM     25  C   UNL     1       7.233   4.624  13.025  0.00  0.00    +0.000 C 
ATOM     26  C   UNL     1       5.994   3.774  13.250  0.00  0.00    +0.000 C 
ATOM     27  C   UNL     1       6.111   3.357  14.711  0.00  0.00    +0.000 C 
ATOM     28  C   UNL     1       5.760   5.321  16.297  0.00  0.00    +0.000 C 
ATOM     29  O   UNL     1       4.707   5.816  15.921  0.00  0.00    +0.000 OA
ATOM     30  H   UNL     1       8.574   3.641  16.230  0.00  0.00    +0.000 HD
ENDBRANCH  18  19
ENDBRANCH  16  18
ENDBRANCH   1  16
TORSDOF 7
ENDMDL
MODEL 7
REMARK VINA RESULT:      -7.6      1.431      2.440
REMARK  Name = 
REMARK  11 active torsions:
REMARK  status: ('A' for Active; 'I' for Inactive)
REMARK    1  A    between atoms: C_1  and  C_2
REMARK    2  A    between atoms: C_2  and  O_3
REMARK    3  A    between atoms: C_2  and  C_18
REMARK    4  A    between atoms: O_3  and  C_4
REMARK    5  A    between atoms: C_4  and  C_6
REMARK    6  A    between atoms: C_6  and  N_7
REMARK    7  A    between atoms: C_18  and  C_20
REMARK    8  A    between atoms: C_23  and  C_24
REMARK    9  A    between atoms: C_24  and  C_25
REMARK   10  A    between atoms: C_24  and  C_26
REMARK   11  A    between atoms: C_24  and  C_27
REMARK                            x       y       z     vdW  Elec       q    Type
REMARK                         _______ _______ _______ _____ _____    ______ ____
ROOT
ATOM      1  O   UNL     1       1.856   3.476  19.872  0.00  0.00    +0.000 OA
ENDROOT
BRANCH   1   3
ATOM      2  C   UNL     1       1.164   4.724  17.903  0.00  0.00    +0.000 C 
ATOM      3  C   UNL     1       1.370   4.750  19.417  0.00  0.00    +0.000 C 
BRANCH   3   4
ATOM      4  C   UNL     1       2.395   5.828  19.787  0.00  0.00    +0.000 C 
ATOM      5  O   UNL     1       3.548   5.562  20.129  0.00  0.00    +0.000 OA
BRANCH   4   6
ATOM      6  C   UNL     1       1.993   7.259  19.708  0.00  0.00    +0.000 A 
ATOM      7  C   UNL     1       2.268   7.955  18.528  0.00  0.00    +0.000 A 
ATOM      8  C   UNL     1       1.904   9.298  18.396  0.00  0.00    +0.000 A 
ATOM      9  C   UNL     1       1.238   9.978  19.428  0.00  0.00    +0.000 A 
ATOM     10  C   UNL     1       0.966   9.256  20.607  0.00  0.00    +0.000 A 
ATOM     11  C   UNL     1       1.336   7.913  20.749  0.00  0.00    +0.000 A 
BRANCH   9  12
ATOM     12  C   UNL     1       0.783  11.442  19.292  0.00  0.00    +0.000 C 
ATOM     13  C   UNL     1       1.753  12.312  18.461  0.00  0.00    +0.000 C 
ATOM     14  C   UNL     1      -0.591  11.486  18.592  0.00  0.00    +0.000 C 
ATOM     15  C   UNL     1       0.661  12.094  20.686  0.00  0.00    +0.000 C 
ENDBRANCH   9  12
ENDBRANCH   4   6
ENDBRANCH   3   4
ENDBRANCH   1   3
BRANCH   1  16
ATOM     16  C   UNL     1       1.573   2.416  19.063  0.00  0.00    +0.000 C 
ATOM     17  O   UNL     1       0.448   2.121  18.682  0.00  0.00    +0.000 OA
BRANCH  16  18
ATOM     18  C   UNL     1       2.833   1.686  18.640  0.00  0.00    +0.000 C 
BRANCH  18  19
ATOM     19  N   UNL     1       3.866   2.639  18.305  0.00  0.00    +0.000 N 
ATOM     20  C   UNL     1       4.901   2.952  19.127  0.00  0.00    +0.000 C 
ATOM     21  O   UNL     1       5.119   2.507  20.240  0.00  0.00    +0.000 OA
ATOM     22  N   UNL     1       5.707   3.862  18.491  0.00  0.00    +0.000 N 
ATOM     23  C   UNL     1       5.213   4.219  17.186  0.00  0.00    +0.000 C 
ATOM     24  C   UNL     1       4.861   5.707  17.073  0.00  0.00    +0.000 C 
ATOM     25  C   UNL     1       5.834   6.265  16.041  0.00  0.00    +0.000 C 
ATOM     26  C   UNL     1       6.103   5.090  15.116  0.00  0.00    +0.000 C 
ATOM     27  C   UNL     1       6.213   3.907  16.069  0.00  0.00    +0.000 C 
ATOM     28  C   UNL     1       3.969   3.313  17.120  0.00  0.00    +0.000 C 
ATOM     29  O   UNL     1       3.215   3.214  16.163  0.00  0.00    +0.000 OA
ATOM     30  H   UNL     1       6.535   4.232  18.941  0.00  0.00    +0.000 HD
ENDBRANCH  18  19
ENDBRANCH  16  18
ENDBRANCH   1  16
TORSDOF 7
ENDMDL
MODEL 8
REMARK VINA RESULT:      -7.5      2.760      7.747
REMARK  Name = 
REMARK  11 active torsions:
REMARK  status: ('A' for Active; 'I' for Inactive)
REMARK    1  A    between atoms: C_1  and  C_2
REMARK    2  A    between atoms: C_2  and  O_3
REMARK    3  A    between atoms: C_2  and  C_18
REMARK    4  A    between atoms: O_3  and  C_4
REMARK    5  A    between atoms: C_4  and  C_6
REMARK    6  A    between atoms: C_6  and  N_7
REMARK    7  A    between atoms: C_18  and  C_20
REMARK    8  A    between atoms: C_23  and  C_24
REMARK    9  A    between atoms: C_24  and  C_25
REMARK   10  A    between atoms: C_24  and  C_26
REMARK   11  A    between atoms: C_24  and  C_27
REMARK                            x       y       z     vdW  Elec       q    Type
REMARK                         _______ _______ _______ _____ _____    ______ ____
ROOT
ATOM      1  O   UNL     1       1.870   5.565  20.773  0.00  0.00    +0.000 OA
ENDROOT
BRANCH   1   3
ATOM      2  C   UNL     1       1.419   3.255  21.388  0.00  0.00    +0.000 C 
ATOM      3  C   UNL     1       1.117   4.394  20.414  0.00  0.00    +0.000 C 
BRANCH   3   4
ATOM      4  C   UNL     1       1.501   3.979  18.990  0.00  0.00    +0.000 C 
ATOM      5  O   UNL     1       0.716   3.424  18.222  0.00  0.00    +0.000 OA
BRANCH   4   6
ATOM      6  C   UNL     1       2.876   4.277  18.501  0.00  0.00    +0.000 A 
ATOM      7  C   UNL     1       3.049   5.376  17.657  0.00  0.00    +0.000 A 
ATOM      8  C   UNL     1       4.319   5.708  17.177  0.00  0.00    +0.000 A 
ATOM      9  C   UNL     1       5.454   4.965  17.541  0.00  0.00    +0.000 A 
ATOM     10  C   UNL     1       5.257   3.864  18.398  0.00  0.00    +0.000 A 
ATOM     11  C   UNL     1       3.986   3.521  18.875  0.00  0.00    +0.000 A 
BRANCH   9  12
ATOM     12  C   UNL     1       6.870   5.336  17.065  0.00  0.00    +0.000 C 
ATOM     13  C   UNL     1       7.123   5.008  15.577  0.00  0.00    +0.000 C 
ATOM     14  C   UNL     1       7.088   6.853  17.246  0.00  0.00    +0.000 C 
ATOM     15  C   UNL     1       7.927   4.571  17.890  0.00  0.00    +0.000 C 
ENDBRANCH   9  12
ENDBRANCH   4   6
ENDBRANCH   3   4
ENDBRANCH   1   3
BRANCH   1  16
ATOM     16  C   UNL     1       1.183   6.741  20.733  0.00  0.00    +0.000 C 
ATOM     17  O   UNL     1       0.062   6.900  21.197  0.00  0.00    +0.000 OA
BRANCH  16  18
ATOM     18  C   UNL     1       2.006   7.847  20.100  0.00  0.00    +0.000 C 
BRANCH  18  19
ATOM     19  N   UNL     1       1.334   9.115  20.262  0.00  0.00    +0.000 N 
ATOM     20  C   UNL     1       1.247   9.777  21.445  0.00  0.00    +0.000 C 
ATOM     21  O   UNL     1       1.692   9.424  22.523  0.00  0.00    +0.000 OA
ATOM     22  N   UNL     1       0.573  10.956  21.240  0.00  0.00    +0.000 N 
ATOM     23  C   UNL     1       0.155  11.121  19.872  0.00  0.00    +0.000 C 
ATOM     24  C   UNL     1      -1.369  11.193  19.725  0.00  0.00    +0.000 C 
ATOM     25  C   UNL     1      -1.648  12.598  19.200  0.00  0.00    +0.000 C 
ATOM     26  C   UNL     1      -0.412  12.937  18.383  0.00  0.00    +0.000 C 
ATOM     27  C   UNL     1       0.731  12.382  19.225  0.00  0.00    +0.000 C 
ATOM     28  C   UNL     1       0.744   9.834  19.261  0.00  0.00    +0.000 C 
ATOM     29  O   UNL     1       0.695   9.525  18.080  0.00  0.00    +0.000 OA
ATOM     30  H   UNL     1       0.394  11.596  22.004  0.00  0.00    +0.000 HD
ENDBRANCH  18  19
ENDBRANCH  16  18
ENDBRANCH   1  16
TORSDOF 7
ENDMDL
MODEL 9
REMARK VINA RESULT:      -7.5      5.838     10.979
REMARK  Name = 
REMARK  11 active torsions:
REMARK  status: ('A' for Active; 'I' for Inactive)
REMARK    1  A    between atoms: C_1  and  C_2
REMARK    2  A    between atoms: C_2  and  O_3
REMARK    3  A    between atoms: C_2  and  C_18
REMARK    4  A    between atoms: O_3  and  C_4
REMARK    5  A    between atoms: C_4  and  C_6
REMARK    6  A    between atoms: C_6  and  N_7
REMARK    7  A    between atoms: C_18  and  C_20
REMARK    8  A    between atoms: C_23  and  C_24
REMARK    9  A    between atoms: C_24  and  C_25
REMARK   10  A    between atoms: C_24  and  C_26
REMARK   11  A    between atoms: C_24  and  C_27
REMARK                            x       y       z     vdW  Elec       q    Type
REMARK                         _______ _______ _______ _____ _____    ______ ____
ROOT
ATOM      1  O   UNL     1      -1.170  10.951  21.201  0.00  0.00    +0.000 OA
ENDROOT
BRANCH   1   3
ATOM      2  C   UNL     1      -1.541  10.426  18.855  0.00  0.00    +0.000 C 
ATOM      3  C   UNL     1      -0.825  11.331  19.857  0.00  0.00    +0.000 C 
BRANCH   3   4
ATOM      4  C   UNL     1       0.692  11.205  19.685  0.00  0.00    +0.000 C 
ATOM      5  O   UNL     1       1.459  12.161  19.802  0.00  0.00    +0.000 OA
BRANCH   4   6
ATOM      6  C   UNL     1       1.272   9.866  19.385  0.00  0.00    +0.000 A 
ATOM      7  C   UNL     1       1.771   9.638  18.101  0.00  0.00    +0.000 A 
ATOM      8  C   UNL     1       2.335   8.404  17.768  0.00  0.00    +0.000 A 
ATOM      9  C   UNL     1       2.434   7.369  18.712  0.00  0.00    +0.000 A 
ATOM     10  C   UNL     1       1.930   7.622  20.003  0.00  0.00    +0.000 A 
ATOM     11  C   UNL     1       1.356   8.854  20.340  0.00  0.00    +0.000 A 
BRANCH   9  12
ATOM     12  C   UNL     1       3.093   6.016  18.387  0.00  0.00    +0.000 C 
ATOM     13  C   UNL     1       3.806   5.375  19.599  0.00  0.00    +0.000 C 
ATOM     14  C   UNL     1       2.012   5.024  17.910  0.00  0.00    +0.000 C 
ATOM     15  C   UNL     1       4.147   6.189  17.273  0.00  0.00    +0.000 C 
ENDBRANCH   9  12
ENDBRANCH   4   6
ENDBRANCH   3   4
ENDBRANCH   1   3
BRANCH   1  16
ATOM     16  C   UNL     1      -1.392  11.982  22.065  0.00  0.00    +0.000 C 
ATOM     17  O   UNL     1      -0.585  12.367  22.900  0.00  0.00    +0.000 OA
BRANCH  16  18
ATOM     18  C   UNL     1      -2.739  12.636  21.818  0.00  0.00    +0.000 C 
BRANCH  18  19
ATOM     19  N   UNL     1      -3.105  13.450  22.954  0.00  0.00    +0.000 N 
ATOM     20  C   UNL     1      -3.701  12.962  24.073  0.00  0.00    +0.000 C 
ATOM     21  O   UNL     1      -4.021  11.807  24.293  0.00  0.00    +0.000 OA
ATOM     22  N   UNL     1      -3.882  13.993  24.961  0.00  0.00    +0.000 N 
ATOM     23  C   UNL     1      -3.416  15.254  24.443  0.00  0.00    +0.000 C 
ATOM     24  C   UNL     1      -4.540  16.286  24.301  0.00  0.00    +0.000 C 
ATOM     25  C   UNL     1      -4.178  17.400  25.278  0.00  0.00    +0.000 C 
ATOM     26  C   UNL     1      -2.660  17.375  25.317  0.00  0.00    +0.000 C 
ATOM     27  C   UNL     1      -2.330  15.887  25.315  0.00  0.00    +0.000 C 
ATOM     28  C   UNL     1      -2.868  14.790  23.079  0.00  0.00    +0.000 C 
ATOM     29  O   UNL     1      -2.310  15.506  22.260  0.00  0.00    +0.000 OA
ATOM     30  H   UNL     1      -4.321  13.839  25.860  0.00  0.00    +0.000 HD
ENDBRANCH  18  19
ENDBRANCH  16  18
ENDBRANCH   1  16
TORSDOF 7
ENDMDL
