MODEL 1
REMARK VINA RESULT:      -4.4      0.000      0.000
REMARK  Name = 
REMARK  7 active torsions:
REMARK  status: ('A' for Active; 'I' for Inactive)
REMARK    1  A    between atoms: C_1  and  C_2
REMARK    2  A    between atoms: C_2  and  O_3
REMARK    3  A    between atoms: O_3  and  C_4
REMARK    4  A    between atoms: C_4  and  C_6
REMARK    5  A    between atoms: C_6  and  C_7
REMARK    6  A    between atoms: C_9  and  S_10
REMARK    7  A    between atoms: C_9  and  S_11
REMARK                            x       y       z     vdW  Elec       q    Type
REMARK                         _______ _______ _______ _____ _____    ______ ____
ROOT
ATOM      1  C   UNL     1       6.137   4.365  16.710  0.00  0.00    +0.000 C 
ATOM      2  C   UNL     1       5.070   4.242  17.543  0.00  0.00    +0.000 C 
ENDROOT
BRANCH   1   3
ATOM      3  C   UNL     1       7.465   4.841  17.169  0.00  0.00    +0.000 C 
ATOM      4  O   UNL     1       8.296   4.155  17.739  0.00  0.00    +0.000 OA
BRANCH   3   5
ATOM      5  O   UNL     1       7.587   6.176  16.960  0.00  0.00    +0.000 OA
BRANCH   5   7
ATOM      6  C   UNL     1       7.898   8.398  17.747  0.00  0.00    +0.000 C 
ATOM      7  C   UNL     1       7.823   6.939  18.155  0.00  0.00    +0.000 C 
ENDBRANCH   5   7
ENDBRANCH   3   5
ENDBRANCH   1   3
BRANCH   1   8
ATOM      8  C   UNL     1       5.941   4.035  15.240  0.00  0.00    +0.000 C 
ATOM      9  N   UNL     1       5.779   3.761  14.020  0.00  0.00    +0.000 NA
ENDBRANCH   1   8
BRANCH   2  10
ATOM     10  S   UNL     1       5.079   4.584  19.270  0.00  0.00    +0.000 S 
ATOM     11  H   UNL     1       6.007   5.556  19.313  0.00  0.00    +0.000 HD
ENDBRANCH   2  10
BRANCH   2  12
ATOM     12  S   UNL     1       3.468   3.715  16.996  0.00  0.00    +0.000 S 
ATOM     13  H   UNL     1       2.666   4.128  17.989  0.00  0.00    +0.000 HD
ENDBRANCH   2  12
TORSDOF 6
ENDMDL
MODEL 2
REMARK VINA RESULT:      -4.3      4.355      5.748
REMARK  Name = 
REMARK  7 active torsions:
REMARK  status: ('A' for Active; 'I' for Inactive)
REMARK    1  A    between atoms: C_1  and  C_2
REMARK    2  A    between atoms: C_2  and  O_3
REMARK    3  A    between atoms: O_3  and  C_4
REMARK    4  A    between atoms: C_4  and  C_6
REMARK    5  A    between atoms: C_6  and  C_7
REMARK    6  A    between atoms: C_9  and  S_10
REMARK    7  A    between atoms: C_9  and  S_11
REMARK                            x       y       z     vdW  Elec       q    Type
REMARK                         _______ _______ _______ _____ _____    ______ ____
ROOT
ATOM      1  C   UNL     1       3.848   3.899  18.724  0.00  0.00    +0.000 C 
ATOM      2  C   UNL     1       4.574   5.021  18.473  0.00  0.00    +0.000 C 
ENDROOT
BRANCH   1   3
ATOM      3  C   UNL     1       2.471   3.700  18.211  0.00  0.00    +0.000 C 
ATOM      4  O   UNL     1       2.191   3.331  17.083  0.00  0.00    +0.000 OA
BRANCH   3   5
ATOM      5  O   UNL     1       1.560   4.087  19.139  0.00  0.00    +0.000 OA
BRANCH   5   7
ATOM      6  C   UNL     1       1.230   2.964  21.208  0.00  0.00    +0.000 C 
ATOM      7  C   UNL     1       0.839   3.001  19.743  0.00  0.00    +0.000 C 
ENDBRANCH   5   7
ENDBRANCH   3   5
ENDBRANCH   1   3
BRANCH   1   8
ATOM      8  C   UNL     1       4.470   2.824  19.600  0.00  0.00    +0.000 C 
ATOM      9  N   UNL     1       4.985   1.932  20.327  0.00  0.00    +0.000 NA
ENDBRANCH   1   8
BRANCH   2  10
ATOM     10  S   UNL     1       4.038   6.385  17.498  0.00  0.00    +0.000 S 
ATOM     11  H   UNL     1       2.919   6.725  18.163  0.00  0.00    +0.000 HD
ENDBRANCH   2  10
BRANCH   2  12
ATOM     12  S   UNL     1       6.204   5.287  19.117  0.00  0.00    +0.000 S 
ATOM     13  H   UNL     1       6.681   6.257  18.323  0.00  0.00    +0.000 HD
ENDBRANCH   2  12
TORSDOF 6
ENDMDL
MODEL 3
REMARK VINA RESULT:      -4.2      3.084      4.408
REMARK  Name = 
REMARK  7 active torsions:
REMARK  status: ('A' for Active; 'I' for Inactive)
REMARK    1  A    between atoms: C_1  and  C_2
REMARK    2  A    between atoms: C_2  and  O_3
REMARK    3  A    between atoms: O_3  and  C_4
REMARK    4  A    between atoms: C_4  and  C_6
REMARK    5  A    between atoms: C_6  and  C_7
REMARK    6  A    between atoms: C_9  and  S_10
REMARK    7  A    between atoms: C_9  and  S_11
REMARK                            x       y       z     vdW  Elec       q    Type
REMARK                         _______ _______ _______ _____ _____    ______ ____
ROOT
ATOM      1  C   UNL     1       4.222   5.472  17.853  0.00  0.00    +0.000 C 
ATOM      2  C   UNL     1       3.241   6.136  18.519  0.00  0.00    +0.000 C 
ENDROOT
BRANCH   1   3
ATOM      3  C   UNL     1       4.728   4.146  18.280  0.00  0.00    +0.000 C 
ATOM      4  O   UNL     1       5.614   3.964  19.097  0.00  0.00    +0.000 OA
BRANCH   3   5
ATOM      5  O   UNL     1       4.138   3.159  17.558  0.00  0.00    +0.000 OA
BRANCH   5   7
ATOM      6  C   UNL     1       2.038   2.205  18.137  0.00  0.00    +0.000 C 
ATOM      7  C   UNL     1       3.538   2.126  18.356  0.00  0.00    +0.000 C 
ENDBRANCH   5   7
ENDBRANCH   3   5
ENDBRANCH   1   3
BRANCH   1   8
ATOM      8  C   UNL     1       4.847   6.144  16.642  0.00  0.00    +0.000 C 
ATOM      9  N   UNL     1       5.366   6.700  15.636  0.00  0.00    +0.000 NA
ENDBRANCH   1   8
BRANCH   2  10
ATOM     10  S   UNL     1       2.397   5.546  19.947  0.00  0.00    +0.000 S 
ATOM     11  H   UNL     1       1.582   6.589  20.187  0.00  0.00    +0.000 HD
ENDBRANCH   2  10
BRANCH   2  12
ATOM     12  S   UNL     1       2.659   7.742  18.042  0.00  0.00    +0.000 S 
ATOM     13  H   UNL     1       1.330   7.568  17.980  0.00  0.00    +0.000 HD
ENDBRANCH   2  12
TORSDOF 6
ENDMDL
MODEL 4
REMARK VINA RESULT:      -4.1      4.511      5.869
REMARK  Name = 
REMARK  7 active torsions:
REMARK  status: ('A' for Active; 'I' for Inactive)
REMARK    1  A    between atoms: C_1  and  C_2
REMARK    2  A    between atoms: C_2  and  O_3
REMARK    3  A    between atoms: O_3  and  C_4
REMARK    4  A    between atoms: C_4  and  C_6
REMARK    5  A    between atoms: C_6  and  C_7
REMARK    6  A    between atoms: C_9  and  S_10
REMARK    7  A    between atoms: C_9  and  S_11
REMARK                            x       y       z     vdW  Elec       q    Type
REMARK                         _______ _______ _______ _____ _____    ______ ____
ROOT
ATOM      1  C   UNL     1       3.113   5.052  18.492  0.00  0.00    +0.000 C 
ATOM      2  C   UNL     1       4.268   4.448  18.877  0.00  0.00    +0.000 C 
ENDROOT
BRANCH   1   3
ATOM      3  C   UNL     1       1.819   4.332  18.409  0.00  0.00    +0.000 C 
ATOM      4  O   UNL     1       1.332   3.885  17.384  0.00  0.00    +0.000 OA
BRANCH   3   5
ATOM      5  O   UNL     1       1.200   4.329  19.616  0.00  0.00    +0.000 OA
BRANCH   5   7
ATOM      6  C   UNL     1       1.359   2.826  21.452  0.00  0.00    +0.000 C 
ATOM      7  C   UNL     1       0.787   3.026  20.061  0.00  0.00    +0.000 C 
ENDBRANCH   5   7
ENDBRANCH   3   5
ENDBRANCH   1   3
BRANCH   1   8
ATOM      8  C   UNL     1       3.167   6.518  18.097  0.00  0.00    +0.000 C 
ATOM      9  N   UNL     1       3.212   7.734  17.768  0.00  0.00    +0.000 NA
ENDBRANCH   1   8
BRANCH   2  10
ATOM     10  S   UNL     1       4.428   2.763  19.360  0.00  0.00    +0.000 S 
ATOM     11  H   UNL     1       3.759   2.166  18.358  0.00  0.00    +0.000 HD
ENDBRANCH   2  10
BRANCH   2  12
ATOM     12  S   UNL     1       5.828   5.289  18.940  0.00  0.00    +0.000 S 
ATOM     13  H   UNL     1       5.480   6.571  18.756  0.00  0.00    +0.000 HD
ENDBRANCH   2  12
TORSDOF 6
ENDMDL
MODEL 5
REMARK VINA RESULT:      -4.0      4.614      5.869
REMARK  Name = 
REMARK  7 active torsions:
REMARK  status: ('A' for Active; 'I' for Inactive)
REMARK    1  A    between atoms: C_1  and  C_2
REMARK    2  A    between atoms: C_2  and  O_3
REMARK    3  A    between atoms: O_3  and  C_4
REMARK    4  A    between atoms: C_4  and  C_6
REMARK    5  A    between atoms: C_6  and  C_7
REMARK    6  A    between atoms: C_9  and  S_10
REMARK    7  A    between atoms: C_9  and  S_11
REMARK                            x       y       z     vdW  Elec       q    Type
REMARK                         _______ _______ _______ _____ _____    ______ ____
ROOT
ATOM      1  C   UNL     1       2.863   5.681  17.926  0.00  0.00    +0.000 C 
ATOM      2  C   UNL     1       4.080   5.400  17.388  0.00  0.00    +0.000 C 
ENDROOT
BRANCH   1   3
ATOM      3  C   UNL     1       1.851   4.636  18.211  0.00  0.00    +0.000 C 
ATOM      4  O   UNL     1       1.185   4.057  17.369  0.00  0.00    +0.000 OA
BRANCH   3   5
ATOM      5  O   UNL     1       1.691   4.485  19.551  0.00  0.00    +0.000 OA
BRANCH   5   7
ATOM      6  C   UNL     1       1.370   2.827  21.224  0.00  0.00    +0.000 C 
ATOM      7  C   UNL     1       2.257   3.273  20.076  0.00  0.00    +0.000 C 
ENDBRANCH   5   7
ENDBRANCH   3   5
ENDBRANCH   1   3
BRANCH   1   8
ATOM      8  C   UNL     1       2.522   7.134  18.207  0.00  0.00    +0.000 C 
ATOM      9  N   UNL     1       2.238   8.340  18.440  0.00  0.00    +0.000 NA
ENDBRANCH   1   8
BRANCH   2  10
ATOM     10  S   UNL     1       4.668   3.793  16.975  0.00  0.00    +0.000 S 
ATOM     11  H   UNL     1       4.852   3.942  15.651  0.00  0.00    +0.000 HD
ENDBRANCH   2  10
BRANCH   2  12
ATOM     12  S   UNL     1       5.281   6.647  17.003  0.00  0.00    +0.000 S 
ATOM     13  H   UNL     1       6.053   6.041  16.088  0.00  0.00    +0.000 HD
ENDBRANCH   2  12
TORSDOF 6
ENDMDL
MODEL 6
REMARK VINA RESULT:      -4.0      3.271      4.730
REMARK  Name = 
REMARK  7 active torsions:
REMARK  status: ('A' for Active; 'I' for Inactive)
REMARK    1  A    between atoms: C_1  and  C_2
REMARK    2  A    between atoms: C_2  and  O_3
REMARK    3  A    between atoms: O_3  and  C_4
REMARK    4  A    between atoms: C_4  and  C_6
REMARK    5  A    between atoms: C_6  and  C_7
REMARK    6  A    between atoms: C_9  and  S_10
REMARK    7  A    between atoms: C_9  and  S_11
REMARK                            x       y       z     vdW  Elec       q    Type
REMARK                         _______ _______ _______ _____ _____    ______ ____
ROOT
ATOM      1  C   UNL     1       4.430   4.158  17.992  0.00  0.00    +0.000 C 
ATOM      2  C   UNL     1       3.940   5.397  18.263  0.00  0.00    +0.000 C 
ENDROOT
BRANCH   1   3
ATOM      3  C   UNL     1       4.176   2.985  18.863  0.00  0.00    +0.000 C 
ATOM      4  O   UNL     1       4.858   2.663  19.821  0.00  0.00    +0.000 OA
BRANCH   3   5
ATOM      5  O   UNL     1       3.136   2.256  18.385  0.00  0.00    +0.000 OA
BRANCH   5   7
ATOM      6  C   UNL     1       0.812   2.595  18.756  0.00  0.00    +0.000 C 
ATOM      7  C   UNL     1       2.090   2.025  19.343  0.00  0.00    +0.000 C 
ENDBRANCH   5   7
ENDBRANCH   3   5
ENDBRANCH   1   3
BRANCH   1   8
ATOM      8  C   UNL     1       5.305   3.986  16.762  0.00  0.00    +0.000 C 
ATOM      9  N   UNL     1       6.032   3.842  15.742  0.00  0.00    +0.000 NA
ENDBRANCH   1   8
BRANCH   2  10
ATOM     10  S   UNL     1       2.922   5.814  19.637  0.00  0.00    +0.000 S 
ATOM     11  H   UNL     1       1.714   5.491  19.142  0.00  0.00    +0.000 HD
ENDBRANCH   2  10
BRANCH   2  12
ATOM     12  S   UNL     1       4.274   6.814  17.251  0.00  0.00    +0.000 S 
ATOM     13  H   UNL     1       3.106   7.008  16.620  0.00  0.00    +0.000 HD
ENDBRANCH   2  12
TORSDOF 6
ENDMDL
MODEL 7
REMARK VINA RESULT:      -4.0      3.059      4.539
REMARK  Name = 
REMARK  7 active torsions:
REMARK  status: ('A' for Active; 'I' for Inactive)
REMARK    1  A    between atoms: C_1  and  C_2
REMARK    2  A    between atoms: C_2  and  O_3
REMARK    3  A    between atoms: O_3  and  C_4
REMARK    4  A    between atoms: C_4  and  C_6
REMARK    5  A    between atoms: C_6  and  C_7
REMARK    6  A    between atoms: C_9  and  S_10
REMARK    7  A    between atoms: C_9  and  S_11
REMARK                            x       y       z     vdW  Elec       q    Type
REMARK                         _______ _______ _______ _____ _____    ______ ____
ROOT
ATOM      1  C   UNL     1       5.224   4.541  17.880  0.00  0.00    +0.000 C 
ATOM      2  C   UNL     1       4.509   5.682  17.695  0.00  0.00    +0.000 C 
ENDROOT
BRANCH   1   3
ATOM      3  C   UNL     1       4.690   3.368  18.614  0.00  0.00    +0.000 C 
ATOM      4  O   UNL     1       4.987   3.062  19.756  0.00  0.00    +0.000 OA
BRANCH   3   5
ATOM      5  O   UNL     1       3.902   2.619  17.800  0.00  0.00    +0.000 OA
BRANCH   5   7
ATOM      6  C   UNL     1       1.619   2.357  18.406  0.00  0.00    +0.000 C 
ATOM      7  C   UNL     1       3.003   1.742  18.498  0.00  0.00    +0.000 C 
ENDBRANCH   5   7
ENDBRANCH   3   5
ENDBRANCH   1   3
BRANCH   1   8
ATOM      8  C   UNL     1       6.644   4.489  17.342  0.00  0.00    +0.000 C 
ATOM      9  N   UNL     1       7.821   4.447  16.893  0.00  0.00    +0.000 NA
ENDBRANCH   1   8
BRANCH   2  10
ATOM     10  S   UNL     1       2.860   5.954  18.248  0.00  0.00    +0.000 S 
ATOM     11  H   UNL     1       2.746   4.960  19.147  0.00  0.00    +0.000 HD
ENDBRANCH   2  10
BRANCH   2  12
ATOM     12  S   UNL     1       5.153   7.106  16.857  0.00  0.00    +0.000 S 
ATOM     13  H   UNL     1       5.619   6.588  15.711  0.00  0.00    +0.000 HD
ENDBRANCH   2  12
TORSDOF 6
ENDMDL
MODEL 8
REMARK VINA RESULT:      -4.0      4.239      5.611
REMARK  Name = 
REMARK  7 active torsions:
REMARK  status: ('A' for Active; 'I' for Inactive)
REMARK    1  A    between atoms: C_1  and  C_2
REMARK    2  A    between atoms: C_2  and  O_3
REMARK    3  A    between atoms: O_3  and  C_4
REMARK    4  A    between atoms: C_4  and  C_6
REMARK    5  A    between atoms: C_6  and  C_7
REMARK    6  A    between atoms: C_9  and  S_10
REMARK    7  A    between atoms: C_9  and  S_11
REMARK                            x       y       z     vdW  Elec       q    Type
REMARK                         _______ _______ _______ _____ _____    ______ ____
ROOT
ATOM      1  C   UNL     1       3.477   4.957  17.821  0.00  0.00    +0.000 C 
ATOM      2  C   UNL     1       4.603   5.186  17.095  0.00  0.00    +0.000 C 
ENDROOT
BRANCH   1   3
ATOM      3  C   UNL     1       2.777   3.650  17.830  0.00  0.00    +0.000 C 
ATOM      4  O   UNL     1       2.052   3.238  16.940  0.00  0.00    +0.000 OA
BRANCH   3   5
ATOM      5  O   UNL     1       2.973   3.016  19.014  0.00  0.00    +0.000 OA
BRANCH   5   7
ATOM      6  C   UNL     1       1.083   3.376  20.410  0.00  0.00    +0.000 C 
ATOM      7  C   UNL     1       1.801   2.367  19.533  0.00  0.00    +0.000 C 
ENDBRANCH   5   7
ENDBRANCH   3   5
ENDBRANCH   1   3
BRANCH   1   8
ATOM      8  C   UNL     1       2.897   6.108  18.626  0.00  0.00    +0.000 C 
ATOM      9  N   UNL     1       2.417   7.063  19.295  0.00  0.00    +0.000 NA
ENDBRANCH   1   8
BRANCH   2  10
ATOM     10  S   UNL     1       5.427   3.999  16.089  0.00  0.00    +0.000 S 
ATOM     11  H   UNL     1       5.767   3.094  17.024  0.00  0.00    +0.000 HD
ENDBRANCH   2  10
BRANCH   2  12
ATOM     12  S   UNL     1       5.423   6.757  17.044  0.00  0.00    +0.000 S 
ATOM     13  H   UNL     1       6.459   6.577  17.878  0.00  0.00    +0.000 HD
ENDBRANCH   2  12
TORSDOF 6
ENDMDL
MODEL 9
REMARK VINA RESULT:      -4.0      3.696      4.979
REMARK  Name = 
REMARK  7 active torsions:
REMARK  status: ('A' for Active; 'I' for Inactive)
REMARK    1  A    between atoms: C_1  and  C_2
REMARK    2  A    between atoms: C_2  and  O_3
REMARK    3  A    between atoms: O_3  and  C_4
REMARK    4  A    between atoms: C_4  and  C_6
REMARK    5  A    between atoms: C_6  and  C_7
REMARK    6  A    between atoms: C_9  and  S_10
REMARK    7  A    between atoms: C_9  and  S_11
REMARK                            x       y       z     vdW  Elec       q    Type
REMARK                         _______ _______ _______ _____ _____    ______ ____
ROOT
ATOM      1  C   UNL     1       4.163   3.900  18.541  0.00  0.00    +0.000 C 
ATOM      2  C   UNL     1       5.094   4.798  18.124  0.00  0.00    +0.000 C 
ENDROOT
BRANCH   1   3
ATOM      3  C   UNL     1       4.229   3.229  19.862  0.00  0.00    +0.000 C 
ATOM      4  O   UNL     1       4.935   2.271  20.126  0.00  0.00    +0.000 OA
BRANCH   3   5
ATOM      5  O   UNL     1       3.316   3.765  20.711  0.00  0.00    +0.000 OA
BRANCH   5   7
ATOM      6  C   UNL     1       1.061   3.011  20.766  0.00  0.00    +0.000 C 
ATOM      7  C   UNL     1       2.453   2.797  21.332  0.00  0.00    +0.000 C 
ENDBRANCH   5   7
ENDBRANCH   3   5
ENDBRANCH   1   3
BRANCH   1   8
ATOM      8  C   UNL     1       3.031   3.548  17.591  0.00  0.00    +0.000 C 
ATOM      9  N   UNL     1       2.090   3.255  16.804  0.00  0.00    +0.000 NA
ENDBRANCH   1   8
BRANCH   2  10
ATOM     10  S   UNL     1       6.487   5.334  19.058  0.00  0.00    +0.000 S 
ATOM     11  H   UNL     1       7.479   4.773  18.345  0.00  0.00    +0.000 HD
ENDBRANCH   2  10
BRANCH   2  12
ATOM     12  S   UNL     1       5.048   5.574  16.530  0.00  0.00    +0.000 S 
ATOM     13  H   UNL     1       5.787   4.746  15.777  0.00  0.00    +0.000 HD
ENDBRANCH   2  12
TORSDOF 6
ENDMDL
