MODEL 1
REMARK VINA RESULT:      -6.7      0.000      0.000
REMARK  Name = 
REMARK  3 active torsions:
REMARK  status: ('A' for Active; 'I' for Inactive)
REMARK    1  A    between atoms: C_1  and  O_2
REMARK    2  A    between atoms: O_2  and  C_3
REMARK    3  A    between atoms: N_18  and  C_19
REMARK                            x       y       z     vdW  Elec       q    Type
REMARK                         _______ _______ _______ _____ _____    ______ ____
ROOT
ATOM      1  C   UNL     1      -2.286  10.551  17.337  0.00  0.00    +0.000 A 
ATOM      2  C   UNL     1      -2.534  11.818  17.845  0.00  0.00    +0.000 A 
ATOM      3  C   UNL     1      -1.549  12.480  18.580  0.00  0.00    +0.000 A 
ATOM      4  C   UNL     1      -0.297  11.892  18.833  0.00  0.00    +0.000 A 
ATOM      5  C   UNL     1      -0.048  10.599  18.337  0.00  0.00    +0.000 A 
ATOM      6  C   UNL     1      -1.052   9.942  17.594  0.00  0.00    +0.000 A 
ATOM      7  C   UNL     1       1.300   9.926  18.512  0.00  0.00    +0.000 C 
ATOM      8  O   UNL     1       1.706   9.418  19.796  0.00  0.00    +0.000 OA
ATOM      9  C   UNL     1       0.845   9.612  20.834  0.00  0.00    +0.000 A 
ATOM     10  C   UNL     1       0.324   8.468  21.437  0.00  0.00    +0.000 A 
ATOM     11  C   UNL     1      -0.518   8.583  22.542  0.00  0.00    +0.000 A 
ATOM     12  C   UNL     1      -0.834   9.842  23.046  0.00  0.00    +0.000 A 
ATOM     13  C   UNL     1      -0.297  10.987  22.455  0.00  0.00    +0.000 A 
ATOM     14  C   UNL     1       0.571  10.883  21.352  0.00  0.00    +0.000 A 
ATOM     15  C   UNL     1       1.229  12.120  20.784  0.00  0.00    +0.000 C 
ATOM     16  N   UNL     1       0.659  12.660  19.529  0.00  0.00    +0.000 N 
ENDROOT
BRANCH  16  17
ATOM     17  C   UNL     1       1.346  13.768  18.958  0.00  0.00    +0.000 A 
ATOM     18  C   UNL     1       2.580  13.593  18.302  0.00  0.00    +0.000 A 
ATOM     19  C   UNL     1       3.283  14.671  17.751  0.00  0.00    +0.000 A 
ATOM     20  C   UNL     1       2.761  15.956  17.829  0.00  0.00    +0.000 A 
ATOM     21  C   UNL     1       1.532  16.159  18.449  0.00  0.00    +0.000 A 
ATOM     22  C   UNL     1       0.838  15.078  19.006  0.00  0.00    +0.000 A 
ENDBRANCH  16  17
BRANCH   1  24
ATOM     23  C   UNL     1      -3.357  10.273  15.236  0.00  0.00    +0.000 C 
ATOM     24  O   UNL     1      -3.147   9.815  16.567  0.00  0.00    +0.000 OA
ENDBRANCH   1  24
TORSDOF 2
ENDMDL
MODEL 2
REMARK VINA RESULT:      -6.6      1.664      2.367
REMARK  Name = 
REMARK  3 active torsions:
REMARK  status: ('A' for Active; 'I' for Inactive)
REMARK    1  A    between atoms: C_1  and  O_2
REMARK    2  A    between atoms: O_2  and  C_3
REMARK    3  A    between atoms: N_18  and  C_19
REMARK                            x       y       z     vdW  Elec       q    Type
REMARK                         _______ _______ _______ _____ _____    ______ ____
ROOT
ATOM      1  C   UNL     1      -2.699  10.539  17.682  0.00  0.00    +0.000 A 
ATOM      2  C   UNL     1      -3.530  11.416  18.365  0.00  0.00    +0.000 A 
ATOM      3  C   UNL     1      -2.979  12.383  19.208  0.00  0.00    +0.000 A 
ATOM      4  C   UNL     1      -1.590  12.494  19.397  0.00  0.00    +0.000 A 
ATOM      5  C   UNL     1      -0.745  11.594  18.722  0.00  0.00    +0.000 A 
ATOM      6  C   UNL     1      -1.315  10.623  17.870  0.00  0.00    +0.000 A 
ATOM      7  C   UNL     1       0.765  11.693  18.821  0.00  0.00    +0.000 C 
ATOM      8  O   UNL     1       1.448  11.297  20.024  0.00  0.00    +0.000 OA
ATOM      9  C   UNL     1       0.672  10.879  21.063  0.00  0.00    +0.000 A 
ATOM     10  C   UNL     1       0.847   9.559  21.481  0.00  0.00    +0.000 A 
ATOM     11  C   UNL     1       0.131   9.074  22.574  0.00  0.00    +0.000 A 
ATOM     12  C   UNL     1      -0.753   9.910  23.252  0.00  0.00    +0.000 A 
ATOM     13  C   UNL     1      -0.913  11.236  22.845  0.00  0.00    +0.000 A 
ATOM     14  C   UNL     1      -0.182  11.744  21.757  0.00  0.00    +0.000 A 
ATOM     15  C   UNL     1      -0.283  13.206  21.389  0.00  0.00    +0.000 C 
ATOM     16  N   UNL     1      -1.122  13.542  20.216  0.00  0.00    +0.000 N 
ENDROOT
BRANCH  16  17
ATOM     17  C   UNL     1      -1.133  14.911  19.828  0.00  0.00    +0.000 A 
ATOM     18  C   UNL     1      -1.956  15.843  20.490  0.00  0.00    +0.000 A 
ATOM     19  C   UNL     1      -1.998  17.190  20.113  0.00  0.00    +0.000 A 
ATOM     20  C   UNL     1      -1.203  17.645  19.068  0.00  0.00    +0.000 A 
ATOM     21  C   UNL     1      -0.362  16.755  18.409  0.00  0.00    +0.000 A 
ATOM     22  C   UNL     1      -0.330  15.407  18.785  0.00  0.00    +0.000 A 
ENDBRANCH  16  17
BRANCH   1  24
ATOM     23  C   UNL     1      -3.020   9.911  15.415  0.00  0.00    +0.000 C 
ATOM     24  O   UNL     1      -3.107   9.578  16.796  0.00  0.00    +0.000 OA
ENDBRANCH   1  24
TORSDOF 2
ENDMDL
MODEL 3
REMARK VINA RESULT:      -6.6      2.396      5.348
REMARK  Name = 
REMARK  3 active torsions:
REMARK  status: ('A' for Active; 'I' for Inactive)
REMARK    1  A    between atoms: C_1  and  O_2
REMARK    2  A    between atoms: O_2  and  C_3
REMARK    3  A    between atoms: N_18  and  C_19
REMARK                            x       y       z     vdW  Elec       q    Type
REMARK                         _______ _______ _______ _____ _____    ______ ____
ROOT
ATOM      1  C   UNL     1       1.540  14.727  18.942  0.00  0.00    +0.000 A 
ATOM      2  C   UNL     1       2.399  13.989  19.743  0.00  0.00    +0.000 A 
ATOM      3  C   UNL     1       2.035  12.708  20.161  0.00  0.00    +0.000 A 
ATOM      4  C   UNL     1       0.804  12.135  19.797  0.00  0.00    +0.000 A 
ATOM      5  C   UNL     1      -0.080  12.887  19.000  0.00  0.00    +0.000 A 
ATOM      6  C   UNL     1       0.303  14.181  18.583  0.00  0.00    +0.000 A 
ATOM      7  C   UNL     1      -1.396  12.314  18.512  0.00  0.00    +0.000 C 
ATOM      8  O   UNL     1      -2.500  12.137  19.417  0.00  0.00    +0.000 OA
ATOM      9  C   UNL     1      -2.285  12.466  20.721  0.00  0.00    +0.000 A 
ATOM     10  C   UNL     1      -3.062  13.502  21.241  0.00  0.00    +0.000 A 
ATOM     11  C   UNL     1      -2.941  13.859  22.583  0.00  0.00    +0.000 A 
ATOM     12  C   UNL     1      -2.048  13.176  23.405  0.00  0.00    +0.000 A 
ATOM     13  C   UNL     1      -1.285  12.127  22.890  0.00  0.00    +0.000 A 
ATOM     14  C   UNL     1      -1.413  11.743  21.543  0.00  0.00    +0.000 A 
ATOM     15  C   UNL     1      -0.661  10.541  21.021  0.00  0.00    +0.000 C 
ATOM     16  N   UNL     1       0.548  10.812  20.210  0.00  0.00    +0.000 N 
ENDROOT
BRANCH  16  17
ATOM     17  C   UNL     1       1.192   9.673  19.650  0.00  0.00    +0.000 A 
ATOM     18  C   UNL     1       1.572   9.653  18.293  0.00  0.00    +0.000 A 
ATOM     19  C   UNL     1       2.188   8.537  17.715  0.00  0.00    +0.000 A 
ATOM     20  C   UNL     1       2.454   7.412  18.486  0.00  0.00    +0.000 A 
ATOM     21  C   UNL     1       2.112   7.408  19.834  0.00  0.00    +0.000 A 
ATOM     22  C   UNL     1       1.488   8.525  20.405  0.00  0.00    +0.000 A 
ENDBRANCH  16  17
BRANCH   1  24
ATOM     23  C   UNL     1       3.057  16.151  17.797  0.00  0.00    +0.000 C 
ATOM     24  O   UNL     1       1.795  15.972  18.431  0.00  0.00    +0.000 OA
ENDBRANCH   1  24
TORSDOF 2
ENDMDL
MODEL 4
REMARK VINA RESULT:      -6.5      1.620      2.302
REMARK  Name = 
REMARK  3 active torsions:
REMARK  status: ('A' for Active; 'I' for Inactive)
REMARK    1  A    between atoms: C_1  and  O_2
REMARK    2  A    between atoms: O_2  and  C_3
REMARK    3  A    between atoms: N_18  and  C_19
REMARK                            x       y       z     vdW  Elec       q    Type
REMARK                         _______ _______ _______ _____ _____    ______ ____
ROOT
ATOM      1  C   UNL     1      -1.590  10.640  17.789  0.00  0.00    +0.000 A 
ATOM      2  C   UNL     1      -1.709  11.972  17.418  0.00  0.00    +0.000 A 
ATOM      3  C   UNL     1      -0.985  12.952  18.099  0.00  0.00    +0.000 A 
ATOM      4  C   UNL     1      -0.132  12.631  19.169  0.00  0.00    +0.000 A 
ATOM      5  C   UNL     1      -0.023  11.284  19.562  0.00  0.00    +0.000 A 
ATOM      6  C   UNL     1      -0.759  10.302  18.863  0.00  0.00    +0.000 A 
ATOM      7  C   UNL     1       0.926  10.850  20.662  0.00  0.00    +0.000 C 
ATOM      8  O   UNL     1       0.631  11.138  22.041  0.00  0.00    +0.000 OA
ATOM      9  C   UNL     1      -0.505  11.847  22.292  0.00  0.00    +0.000 A 
ATOM     10  C   UNL     1      -1.488  11.206  23.045  0.00  0.00    +0.000 A 
ATOM     11  C   UNL     1      -2.654  11.886  23.392  0.00  0.00    +0.000 A 
ATOM     12  C   UNL     1      -2.834  13.207  22.991  0.00  0.00    +0.000 A 
ATOM     13  C   UNL     1      -1.841  13.855  22.254  0.00  0.00    +0.000 A 
ATOM     14  C   UNL     1      -0.651  13.187  21.915  0.00  0.00    +0.000 A 
ATOM     15  C   UNL     1       0.461  13.927  21.207  0.00  0.00    +0.000 C 
ATOM     16  N   UNL     1       0.608  13.678  19.755  0.00  0.00    +0.000 N 
ENDROOT
BRANCH  16  17
ATOM     17  C   UNL     1       1.715  14.310  19.122  0.00  0.00    +0.000 A 
ATOM     18  C   UNL     1       1.683  15.685  18.815  0.00  0.00    +0.000 A 
ATOM     19  C   UNL     1       2.752  16.323  18.175  0.00  0.00    +0.000 A 
ATOM     20  C   UNL     1       3.892  15.604  17.838  0.00  0.00    +0.000 A 
ATOM     21  C   UNL     1       3.964  14.250  18.149  0.00  0.00    +0.000 A 
ATOM     22  C   UNL     1       2.889  13.615  18.781  0.00  0.00    +0.000 A 
ENDBRANCH  16  17
BRANCH   1  24
ATOM     23  C   UNL     1      -2.773   9.831  15.895  0.00  0.00    +0.000 C 
ATOM     24  O   UNL     1      -2.208   9.582  17.178  0.00  0.00    +0.000 OA
ENDBRANCH   1  24
TORSDOF 2
ENDMDL
MODEL 5
REMARK VINA RESULT:      -6.5      2.410      5.359
REMARK  Name = 
REMARK  3 active torsions:
REMARK  status: ('A' for Active; 'I' for Inactive)
REMARK    1  A    between atoms: C_1  and  O_2
REMARK    2  A    between atoms: O_2  and  C_3
REMARK    3  A    between atoms: N_18  and  C_19
REMARK                            x       y       z     vdW  Elec       q    Type
REMARK                         _______ _______ _______ _____ _____    ______ ____
ROOT
ATOM      1  C   UNL     1       1.331  14.711  18.950  0.00  0.00    +0.000 A 
ATOM      2  C   UNL     1       2.219  13.996  19.740  0.00  0.00    +0.000 A 
ATOM      3  C   UNL     1       1.889  12.709  20.169  0.00  0.00    +0.000 A 
ATOM      4  C   UNL     1       0.665  12.108  19.828  0.00  0.00    +0.000 A 
ATOM      5  C   UNL     1      -0.247  12.837  19.042  0.00  0.00    +0.000 A 
ATOM      6  C   UNL     1       0.100  14.136  18.613  0.00  0.00    +0.000 A 
ATOM      7  C   UNL     1      -1.558  12.233  18.578  0.00  0.00    +0.000 C 
ATOM      8  O   UNL     1      -2.644  12.036  19.502  0.00  0.00    +0.000 OA
ATOM      9  C   UNL     1      -2.415  12.377  20.801  0.00  0.00    +0.000 A 
ATOM     10  C   UNL     1      -3.205  13.398  21.328  0.00  0.00    +0.000 A 
ATOM     11  C   UNL     1      -3.071  13.764  22.666  0.00  0.00    +0.000 A 
ATOM     12  C   UNL     1      -2.150  13.105  23.478  0.00  0.00    +0.000 A 
ATOM     13  C   UNL     1      -1.373  12.069  22.955  0.00  0.00    +0.000 A 
ATOM     14  C   UNL     1      -1.514  11.677  21.612  0.00  0.00    +0.000 A 
ATOM     15  C   UNL     1      -0.744  10.488  21.083  0.00  0.00    +0.000 C 
ATOM     16  N   UNL     1       0.445  10.781  20.251  0.00  0.00    +0.000 N 
ENDROOT
BRANCH  16  17
ATOM     17  C   UNL     1       1.104   9.654  19.685  0.00  0.00    +0.000 A 
ATOM     18  C   UNL     1       1.420   8.531  20.475  0.00  0.00    +0.000 A 
ATOM     19  C   UNL     1       2.085   7.419  19.945  0.00  0.00    +0.000 A 
ATOM     20  C   UNL     1       2.441   7.396  18.602  0.00  0.00    +0.000 A 
ATOM     21  C   UNL     1       2.123   8.479  17.790  0.00  0.00    +0.000 A 
ATOM     22  C   UNL     1       1.464   9.592  18.328  0.00  0.00    +0.000 A 
ENDBRANCH  16  17
BRANCH   1  24
ATOM     23  C   UNL     1       2.855  16.501  18.610  0.00  0.00    +0.000 C 
ATOM     24  O   UNL     1       1.551  15.959  18.429  0.00  0.00    +0.000 OA
ENDBRANCH   1  24
TORSDOF 2
ENDMDL
MODEL 6
REMARK VINA RESULT:      -6.5      6.330      8.638
REMARK  Name = 
REMARK  3 active torsions:
REMARK  status: ('A' for Active; 'I' for Inactive)
REMARK    1  A    between atoms: C_1  and  O_2
REMARK    2  A    between atoms: O_2  and  C_3
REMARK    3  A    between atoms: N_18  and  C_19
REMARK                            x       y       z     vdW  Elec       q    Type
REMARK                         _______ _______ _______ _____ _____    ______ ____
ROOT
ATOM      1  C   UNL     1       2.264   7.700  18.749  0.00  0.00    +0.000 A 
ATOM      2  C   UNL     1       3.640   7.605  18.892  0.00  0.00    +0.000 A 
ATOM      3  C   UNL     1       4.305   6.446  18.487  0.00  0.00    +0.000 A 
ATOM      4  C   UNL     1       3.613   5.352  17.939  0.00  0.00    +0.000 A 
ATOM      5  C   UNL     1       2.214   5.435  17.810  0.00  0.00    +0.000 A 
ATOM      6  C   UNL     1       1.556   6.615  18.221  0.00  0.00    +0.000 A 
ATOM      7  C   UNL     1       1.406   4.325  17.167  0.00  0.00    +0.000 C 
ATOM      8  O   UNL     1       1.182   3.085  17.861  0.00  0.00    +0.000 OA
ATOM      9  C   UNL     1       1.762   2.952  19.087  0.00  0.00    +0.000 A 
ATOM     10  C   UNL     1       0.901   2.793  20.172  0.00  0.00    +0.000 A 
ATOM     11  C   UNL     1       1.419   2.594  21.451  0.00  0.00    +0.000 A 
ATOM     12  C   UNL     1       2.798   2.547  21.642  0.00  0.00    +0.000 A 
ATOM     13  C   UNL     1       3.660   2.687  20.552  0.00  0.00    +0.000 A 
ATOM     14  C   UNL     1       3.149   2.868  19.254  0.00  0.00    +0.000 A 
ATOM     15  C   UNL     1       4.085   2.913  18.068  0.00  0.00    +0.000 C 
ATOM     16  N   UNL     1       4.374   4.249  17.499  0.00  0.00    +0.000 N 
ENDROOT
BRANCH  16  17
ATOM     17  C   UNL     1       5.182   4.267  16.328  0.00  0.00    +0.000 A 
ATOM     18  C   UNL     1       6.546   4.613  16.397  0.00  0.00    +0.000 A 
ATOM     19  C   UNL     1       7.356   4.656  15.256  0.00  0.00    +0.000 A 
ATOM     20  C   UNL     1       6.824   4.339  14.012  0.00  0.00    +0.000 A 
ATOM     21  C   UNL     1       5.486   3.971  13.914  0.00  0.00    +0.000 A 
ATOM     22  C   UNL     1       4.679   3.937  15.057  0.00  0.00    +0.000 A 
ENDBRANCH  16  17
BRANCH   1  24
ATOM     23  C   UNL     1       1.536   9.878  18.144  0.00  0.00    +0.000 C 
ATOM     24  O   UNL     1       1.501   8.793  19.065  0.00  0.00    +0.000 OA
ENDBRANCH   1  24
TORSDOF 2
ENDMDL
MODEL 7
REMARK VINA RESULT:      -6.4      5.776      8.002
REMARK  Name = 
REMARK  3 active torsions:
REMARK  status: ('A' for Active; 'I' for Inactive)
REMARK    1  A    between atoms: C_1  and  O_2
REMARK    2  A    between atoms: O_2  and  C_3
REMARK    3  A    between atoms: N_18  and  C_19
REMARK                            x       y       z     vdW  Elec       q    Type
REMARK                         _______ _______ _______ _____ _____    ______ ____
ROOT
ATOM      1  C   UNL     1       6.290   5.956  16.107  0.00  0.00    +0.000 A 
ATOM      2  C   UNL     1       5.127   6.411  15.503  0.00  0.00    +0.000 A 
ATOM      3  C   UNL     1       3.963   6.563  16.259  0.00  0.00    +0.000 A 
ATOM      4  C   UNL     1       3.929   6.258  17.631  0.00  0.00    +0.000 A 
ATOM      5  C   UNL     1       5.101   5.777  18.244  0.00  0.00    +0.000 A 
ATOM      6  C   UNL     1       6.271   5.631  17.468  0.00  0.00    +0.000 A 
ATOM      7  C   UNL     1       5.162   5.490  19.731  0.00  0.00    +0.000 C 
ATOM      8  O   UNL     1       4.504   4.336  20.283  0.00  0.00    +0.000 OA
ATOM      9  C   UNL     1       3.801   3.555  19.416  0.00  0.00    +0.000 A 
ATOM     10  C   UNL     1       4.239   2.240  19.261  0.00  0.00    +0.000 A 
ATOM     11  C   UNL     1       3.538   1.363  18.435  0.00  0.00    +0.000 A 
ATOM     12  C   UNL     1       2.395   1.800  17.769  0.00  0.00    +0.000 A 
ATOM     13  C   UNL     1       1.945   3.111  17.940  0.00  0.00    +0.000 A 
ATOM     14  C   UNL     1       2.632   3.999  18.786  0.00  0.00    +0.000 A 
ATOM     15  C   UNL     1       2.080   5.383  19.046  0.00  0.00    +0.000 C 
ATOM     16  N   UNL     1       2.728   6.504  18.328  0.00  0.00    +0.000 N 
ENDROOT
BRANCH  16  17
ATOM     17  C   UNL     1       2.258   7.807  18.653  0.00  0.00    +0.000 A 
ATOM     18  C   UNL     1       1.729   8.087  19.928  0.00  0.00    +0.000 A 
ATOM     19  C   UNL     1       1.242   9.356  20.264  0.00  0.00    +0.000 A 
ATOM     20  C   UNL     1       1.285  10.386  19.332  0.00  0.00    +0.000 A 
ATOM     21  C   UNL     1       1.823  10.148  18.072  0.00  0.00    +0.000 A 
ATOM     22  C   UNL     1       2.301   8.875  17.739  0.00  0.00    +0.000 A 
ENDBRANCH  16  17
BRANCH   1  24
ATOM     23  C   UNL     1       7.516   5.033  14.294  0.00  0.00    +0.000 C 
ATOM     24  O   UNL     1       7.504   5.805  15.490  0.00  0.00    +0.000 OA
ENDBRANCH   1  24
TORSDOF 2
ENDMDL
MODEL 8
REMARK VINA RESULT:      -6.4      2.142      5.092
REMARK  Name = 
REMARK  3 active torsions:
REMARK  status: ('A' for Active; 'I' for Inactive)
REMARK    1  A    between atoms: C_1  and  O_2
REMARK    2  A    between atoms: O_2  and  C_3
REMARK    3  A    between atoms: N_18  and  C_19
REMARK                            x       y       z     vdW  Elec       q    Type
REMARK                         _______ _______ _______ _____ _____    ______ ____
ROOT
ATOM      1  C   UNL     1      -3.995  11.625  17.844  0.00  0.00    +0.000 A 
ATOM      2  C   UNL     1      -2.995  11.299  16.939  0.00  0.00    +0.000 A 
ATOM      3  C   UNL     1      -1.662  11.264  17.356  0.00  0.00    +0.000 A 
ATOM      4  C   UNL     1      -1.295  11.560  18.680  0.00  0.00    +0.000 A 
ATOM      5  C   UNL     1      -2.304  11.909  19.597  0.00  0.00    +0.000 A 
ATOM      6  C   UNL     1      -3.647  11.939  19.162  0.00  0.00    +0.000 A 
ATOM      7  C   UNL     1      -1.995  12.177  21.057  0.00  0.00    +0.000 C 
ATOM      8  O   UNL     1      -1.332  13.389  21.457  0.00  0.00    +0.000 OA
ATOM      9  C   UNL     1      -0.965  14.246  20.463  0.00  0.00    +0.000 A 
ATOM     10  C   UNL     1      -1.557  15.509  20.477  0.00  0.00    +0.000 A 
ATOM     11  C   UNL     1      -1.191  16.461  19.527  0.00  0.00    +0.000 A 
ATOM     12  C   UNL     1      -0.229  16.152  18.568  0.00  0.00    +0.000 A 
ATOM     13  C   UNL     1       0.377  14.895  18.567  0.00  0.00    +0.000 A 
ATOM     14  C   UNL     1       0.032  13.932  19.532  0.00  0.00    +0.000 A 
ATOM     15  C   UNL     1       0.767  12.613  19.587  0.00  0.00    +0.000 C 
ATOM     16  N   UNL     1       0.066  11.435  19.026  0.00  0.00    +0.000 N 
ENDROOT
BRANCH  16  17
ATOM     17  C   UNL     1       0.732  10.186  19.168  0.00  0.00    +0.000 A 
ATOM     18  C   UNL     1       0.681   9.474  20.383  0.00  0.00    +0.000 A 
ATOM     19  C   UNL     1       1.344   8.253  20.553  0.00  0.00    +0.000 A 
ATOM     20  C   UNL     1       2.068   7.703  19.502  0.00  0.00    +0.000 A 
ATOM     21  C   UNL     1       2.119   8.370  18.282  0.00  0.00    +0.000 A 
ATOM     22  C   UNL     1       1.460   9.594  18.121  0.00  0.00    +0.000 A 
ENDBRANCH  16  17
BRANCH   1  24
ATOM     23  C   UNL     1      -6.174  10.894  18.443  0.00  0.00    +0.000 C 
ATOM     24  O   UNL     1      -5.338  11.652  17.575  0.00  0.00    +0.000 OA
ENDBRANCH   1  24
TORSDOF 2
ENDMDL
MODEL 9
REMARK VINA RESULT:      -6.3      2.924      5.958
REMARK  Name = 
REMARK  3 active torsions:
REMARK  status: ('A' for Active; 'I' for Inactive)
REMARK    1  A    between atoms: C_1  and  O_2
REMARK    2  A    between atoms: O_2  and  C_3
REMARK    3  A    between atoms: N_18  and  C_19
REMARK                            x       y       z     vdW  Elec       q    Type
REMARK                         _______ _______ _______ _____ _____    ______ ____
ROOT
ATOM      1  C   UNL     1       0.250   8.963  21.501  0.00  0.00    +0.000 A 
ATOM      2  C   UNL     1       0.002   9.472  22.767  0.00  0.00    +0.000 A 
ATOM      3  C   UNL     1      -0.646  10.701  22.910  0.00  0.00    +0.000 A 
ATOM      4  C   UNL     1      -1.055  11.454  21.796  0.00  0.00    +0.000 A 
ATOM      5  C   UNL     1      -0.788  10.951  20.509  0.00  0.00    +0.000 A 
ATOM      6  C   UNL     1      -0.135   9.706  20.379  0.00  0.00    +0.000 A 
ATOM      7  C   UNL     1      -1.256  11.672  19.260  0.00  0.00    +0.000 C 
ATOM      8  O   UNL     1      -0.612  12.883  18.826  0.00  0.00    +0.000 OA
ATOM      9  C   UNL     1       0.395  13.358  19.610  0.00  0.00    +0.000 A 
ATOM     10  C   UNL     1       1.662  13.421  19.031  0.00  0.00    +0.000 A 
ATOM     11  C   UNL     1       2.733  13.949  19.751  0.00  0.00    +0.000 A 
ATOM     12  C   UNL     1       2.534  14.420  21.046  0.00  0.00    +0.000 A 
ATOM     13  C   UNL     1       1.261  14.376  21.619  0.00  0.00    +0.000 A 
ATOM     14  C   UNL     1       0.169  13.864  20.896  0.00  0.00    +0.000 A 
ATOM     15  C   UNL     1      -1.223  13.915  21.483  0.00  0.00    +0.000 C 
ATOM     16  N   UNL     1      -1.759  12.651  22.036  0.00  0.00    +0.000 N 
ENDROOT
BRANCH  16  17
ATOM     17  C   UNL     1      -3.104  12.694  22.501  0.00  0.00    +0.000 A 
ATOM     18  C   UNL     1      -4.176  12.833  21.599  0.00  0.00    +0.000 A 
ATOM     19  C   UNL     1      -5.505  12.898  22.034  0.00  0.00    +0.000 A 
ATOM     20  C   UNL     1      -5.798  12.811  23.390  0.00  0.00    +0.000 A 
ATOM     21  C   UNL     1      -4.763  12.650  24.305  0.00  0.00    +0.000 A 
ATOM     22  C   UNL     1      -3.435  12.594  23.864  0.00  0.00    +0.000 A 
ENDBRANCH  16  17
BRANCH   1  24
ATOM     23  C   UNL     1       1.843   7.755  20.220  0.00  0.00    +0.000 C 
ATOM     24  O   UNL     1       0.835   7.756  21.225  0.00  0.00    +0.000 OA
ENDBRANCH   1  24
TORSDOF 2
ENDMDL
