MODEL 1
REMARK VINA RESULT:      -7.5      0.000      0.000
REMARK  Name = 
REMARK  3 active torsions:
REMARK  status: ('A' for Active; 'I' for Inactive)
REMARK    1  A    between atoms: C_4  and  N_5
REMARK    2  A    between atoms: C_15  and  O_16
REMARK    3  A    between atoms: C_17  and  O_18
REMARK                            x       y       z     vdW  Elec       q    Type
REMARK                         _______ _______ _______ _____ _____    ______ ____
ROOT
ATOM      1  N   UNL     1       4.797   4.516  18.180  0.00  0.00    +0.000 N 
ATOM      2  C   UNL     1       4.381   5.110  17.013  0.00  0.00    +0.000 A 
ATOM      3  N   UNL     1       5.171   6.096  16.649  0.00  0.00    +0.000 NA
ATOM      4  C   UNL     1       6.154   6.136  17.616  0.00  0.00    +0.000 A 
ATOM      5  C   UNL     1       7.286   6.950  17.788  0.00  0.00    +0.000 A 
ATOM      6  N   UNL     1       7.632   7.979  16.920  0.00  0.00    +0.000 N 
ATOM      7  N   UNL     1       8.101   6.718  18.840  0.00  0.00    +0.000 NA
ATOM      8  C   UNL     1       7.776   5.727  19.692  0.00  0.00    +0.000 A 
ATOM      9  N   UNL     1       6.720   4.889  19.637  0.00  0.00    +0.000 NA
ATOM     10  C   UNL     1       5.946   5.150  18.569  0.00  0.00    +0.000 A 
ATOM     11  H   UNL     1       7.226   7.876  15.997  0.00  0.00    +0.000 HD
ATOM     12  H   UNL     1       8.619   8.196  16.976  0.00  0.00    +0.000 HD
ENDROOT
BRANCH   1  16
ATOM     13  C   UNL     1       1.441   4.910  20.341  0.00  0.00    +0.000 C 
ATOM     14  C   UNL     1       2.178   3.989  19.710  0.00  0.00    +0.000 C 
ATOM     15  O   UNL     1       3.521   3.842  20.018  0.00  0.00    +0.000 OA
ATOM     16  C   UNL     1       4.139   3.381  18.801  0.00  0.00    +0.000 C 
ATOM     17  C   UNL     1       3.069   2.643  17.977  0.00  0.00    +0.000 C 
ATOM     18  C   UNL     1       1.741   3.146  18.549  0.00  0.00    +0.000 C 
BRANCH  17  19
ATOM     19  O   UNL     1       3.206   1.219  18.173  0.00  0.00    +0.000 OA
ATOM     20  H   UNL     1       2.373   0.786  17.911  0.00  0.00    +0.000 HD
ENDBRANCH  17  19
BRANCH  18  21
ATOM     21  O   UNL     1       0.991   3.904  17.611  0.00  0.00    +0.000 OA
ATOM     22  H   UNL     1       0.200   4.230  18.089  0.00  0.00    +0.000 HD
ENDBRANCH  18  21
ENDBRANCH   1  16
TORSDOF 3
ENDMDL
MODEL 2
REMARK VINA RESULT:      -7.4      2.974      5.443
REMARK  Name = 
REMARK  3 active torsions:
REMARK  status: ('A' for Active; 'I' for Inactive)
REMARK    1  A    between atoms: C_4  and  N_5
REMARK    2  A    between atoms: C_15  and  O_16
REMARK    3  A    between atoms: C_17  and  O_18
REMARK                            x       y       z     vdW  Elec       q    Type
REMARK                         _______ _______ _______ _____ _____    ______ ____
ROOT
ATOM      1  N   UNL     1       4.023   5.204  17.245  0.00  0.00    +0.000 N 
ATOM      2  C   UNL     1       3.763   6.283  18.055  0.00  0.00    +0.000 A 
ATOM      3  N   UNL     1       2.837   6.018  18.951  0.00  0.00    +0.000 NA
ATOM      4  C   UNL     1       2.492   4.703  18.723  0.00  0.00    +0.000 A 
ATOM      5  C   UNL     1       1.578   3.838  19.349  0.00  0.00    +0.000 A 
ATOM      6  N   UNL     1       0.767   4.216  20.413  0.00  0.00    +0.000 N 
ATOM      7  N   UNL     1       1.486   2.562  18.915  0.00  0.00    +0.000 NA
ATOM      8  C   UNL     1       2.262   2.184  17.882  0.00  0.00    +0.000 A 
ATOM      9  N   UNL     1       3.166   2.918  17.201  0.00  0.00    +0.000 NA
ATOM     10  C   UNL     1       3.230   4.174  17.676  0.00  0.00    +0.000 A 
ATOM     11  H   UNL     1       1.120   5.021  20.918  0.00  0.00    +0.000 HD
ATOM     12  H   UNL     1       0.469   3.415  20.956  0.00  0.00    +0.000 HD
ENDROOT
BRANCH   1  16
ATOM     13  C   UNL     1       7.529   7.120  17.597  0.00  0.00    +0.000 C 
ATOM     14  C   UNL     1       6.921   6.175  16.872  0.00  0.00    +0.000 C 
ATOM     15  O   UNL     1       5.722   6.451  16.234  0.00  0.00    +0.000 OA
ATOM     16  C   UNL     1       5.020   5.193  16.190  0.00  0.00    +0.000 C 
ATOM     17  C   UNL     1       6.068   4.066  16.215  0.00  0.00    +0.000 C 
ATOM     18  C   UNL     1       7.326   4.735  16.773  0.00  0.00    +0.000 C 
BRANCH  17  19
ATOM     19  O   UNL     1       6.293   3.587  14.871  0.00  0.00    +0.000 OA
ATOM     20  H   UNL     1       5.628   2.905  14.666  0.00  0.00    +0.000 HD
ENDBRANCH  17  19
BRANCH  18  21
ATOM     21  O   UNL     1       7.708   4.215  18.038  0.00  0.00    +0.000 OA
ATOM     22  H   UNL     1       6.900   3.826  18.433  0.00  0.00    +0.000 HD
ENDBRANCH  18  21
ENDBRANCH   1  16
TORSDOF 3
ENDMDL
MODEL 3
REMARK VINA RESULT:      -7.3      1.955      3.255
REMARK  Name = 
REMARK  3 active torsions:
REMARK  status: ('A' for Active; 'I' for Inactive)
REMARK    1  A    between atoms: C_4  and  N_5
REMARK    2  A    between atoms: C_15  and  O_16
REMARK    3  A    between atoms: C_17  and  O_18
REMARK                            x       y       z     vdW  Elec       q    Type
REMARK                         _______ _______ _______ _____ _____    ______ ____
ROOT
ATOM      1  N   UNL     1       3.874   4.971  18.809  0.00  0.00    +0.000 N 
ATOM      2  C   UNL     1       4.634   4.059  19.499  0.00  0.00    +0.000 A 
ATOM      3  N   UNL     1       5.816   3.881  18.951  0.00  0.00    +0.000 NA
ATOM      4  C   UNL     1       5.830   4.726  17.862  0.00  0.00    +0.000 A 
ATOM      5  C   UNL     1       6.803   5.006  16.887  0.00  0.00    +0.000 A 
ATOM      6  N   UNL     1       8.050   4.392  16.848  0.00  0.00    +0.000 N 
ATOM      7  N   UNL     1       6.533   5.933  15.943  0.00  0.00    +0.000 NA
ATOM      8  C   UNL     1       5.327   6.533  15.967  0.00  0.00    +0.000 A 
ATOM      9  N   UNL     1       4.316   6.346  16.840  0.00  0.00    +0.000 NA
ATOM     10  C   UNL     1       4.636   5.425  17.765  0.00  0.00    +0.000 A 
ATOM     11  H   UNL     1       8.333   4.005  17.741  0.00  0.00    +0.000 HD
ATOM     12  H   UNL     1       8.725   4.953  16.345  0.00  0.00    +0.000 HD
ENDROOT
BRANCH   1  16
ATOM     13  C   UNL     1       0.777   2.426  18.921  0.00  0.00    +0.000 C 
ATOM     14  C   UNL     1       1.160   3.629  19.363  0.00  0.00    +0.000 C 
ATOM     15  O   UNL     1       1.593   4.593  18.466  0.00  0.00    +0.000 OA
ATOM     16  C   UNL     1       2.541   5.391  19.201  0.00  0.00    +0.000 C 
ATOM     17  C   UNL     1       2.180   5.300  20.694  0.00  0.00    +0.000 C 
ATOM     18  C   UNL     1       1.319   4.039  20.796  0.00  0.00    +0.000 C 
BRANCH  17  19
ATOM     19  O   UNL     1       1.426   6.470  21.081  0.00  0.00    +0.000 OA
ATOM     20  H   UNL     1       1.506   6.589  22.044  0.00  0.00    +0.000 HD
ENDBRANCH  17  19
BRANCH  18  21
ATOM     21  O   UNL     1       1.933   3.015  21.563  0.00  0.00    +0.000 OA
ATOM     22  H   UNL     1       1.860   2.193  21.036  0.00  0.00    +0.000 HD
ENDBRANCH  18  21
ENDBRANCH   1  16
TORSDOF 3
ENDMDL
MODEL 4
REMARK VINA RESULT:      -7.2      2.892      5.257
REMARK  Name = 
REMARK  3 active torsions:
REMARK  status: ('A' for Active; 'I' for Inactive)
REMARK    1  A    between atoms: C_4  and  N_5
REMARK    2  A    between atoms: C_15  and  O_16
REMARK    3  A    between atoms: C_17  and  O_18
REMARK                            x       y       z     vdW  Elec       q    Type
REMARK                         _______ _______ _______ _____ _____    ______ ____
ROOT
ATOM      1  N   UNL     1       4.232   4.370  17.986  0.00  0.00    +0.000 N 
ATOM      2  C   UNL     1       4.502   3.076  18.360  0.00  0.00    +0.000 A 
ATOM      3  N   UNL     1       3.915   2.754  19.492  0.00  0.00    +0.000 NA
ATOM      4  C   UNL     1       3.220   3.886  19.863  0.00  0.00    +0.000 A 
ATOM      5  C   UNL     1       2.391   4.176  20.961  0.00  0.00    +0.000 A 
ATOM      6  N   UNL     1       2.119   3.268  21.978  0.00  0.00    +0.000 N 
ATOM      7  N   UNL     1       1.807   5.391  21.033  0.00  0.00    +0.000 NA
ATOM      8  C   UNL     1       2.067   6.281  20.056  0.00  0.00    +0.000 A 
ATOM      9  N   UNL     1       2.844   6.124  18.964  0.00  0.00    +0.000 NA
ATOM     10  C   UNL     1       3.392   4.897  18.930  0.00  0.00    +0.000 A 
ATOM     11  H   UNL     1       2.265   2.304  21.703  0.00  0.00    +0.000 HD
ATOM     12  H   UNL     1       1.254   3.494  22.455  0.00  0.00    +0.000 HD
ENDROOT
BRANCH   1  16
ATOM     13  C   UNL     1       7.427   6.793  17.939  0.00  0.00    +0.000 C 
ATOM     14  C   UNL     1       6.652   6.067  17.126  0.00  0.00    +0.000 C 
ATOM     15  O   UNL     1       5.280   6.267  17.112  0.00  0.00    +0.000 OA
ATOM     16  C   UNL     1       4.716   4.987  16.765  0.00  0.00    +0.000 C 
ATOM     17  C   UNL     1       5.766   4.214  15.947  0.00  0.00    +0.000 C 
ATOM     18  C   UNL     1       7.089   4.907  16.284  0.00  0.00    +0.000 C 
BRANCH  17  19
ATOM     19  O   UNL     1       5.467   4.335  14.540  0.00  0.00    +0.000 OA
ATOM     20  H   UNL     1       6.304   4.350  14.041  0.00  0.00    +0.000 HD
ENDBRANCH  17  19
BRANCH  18  21
ATOM     21  O   UNL     1       7.986   4.063  16.990  0.00  0.00    +0.000 OA
ATOM     22  H   UNL     1       8.860   4.504  16.962  0.00  0.00    +0.000 HD
ENDBRANCH  18  21
ENDBRANCH   1  16
TORSDOF 3
ENDMDL
MODEL 5
REMARK VINA RESULT:      -7.1      1.580      2.174
REMARK  Name = 
REMARK  3 active torsions:
REMARK  status: ('A' for Active; 'I' for Inactive)
REMARK    1  A    between atoms: C_4  and  N_5
REMARK    2  A    between atoms: C_15  and  O_16
REMARK    3  A    between atoms: C_17  and  O_18
REMARK                            x       y       z     vdW  Elec       q    Type
REMARK                         _______ _______ _______ _____ _____    ______ ____
ROOT
ATOM      1  N   UNL     1       4.770   3.884  18.373  0.00  0.00    +0.000 N 
ATOM      2  C   UNL     1       4.879   4.814  19.378  0.00  0.00    +0.000 A 
ATOM      3  N   UNL     1       5.693   5.797  19.059  0.00  0.00    +0.000 NA
ATOM      4  C   UNL     1       6.121   5.499  17.782  0.00  0.00    +0.000 A 
ATOM      5  C   UNL     1       6.983   6.160  16.890  0.00  0.00    +0.000 A 
ATOM      6  N   UNL     1       7.635   7.350  17.192  0.00  0.00    +0.000 N 
ATOM      7  N   UNL     1       7.183   5.629  15.665  0.00  0.00    +0.000 NA
ATOM      8  C   UNL     1       6.561   4.474  15.361  0.00  0.00    +0.000 A 
ATOM      9  N   UNL     1       5.722   3.748  16.129  0.00  0.00    +0.000 NA
ATOM     10  C   UNL     1       5.545   4.321  17.332  0.00  0.00    +0.000 A 
ATOM     11  H   UNL     1       7.187   7.874  17.934  0.00  0.00    +0.000 HD
ATOM     12  H   UNL     1       7.895   7.854  16.353  0.00  0.00    +0.000 HD
ENDROOT
BRANCH   1  16
ATOM     13  C   UNL     1       2.590   2.986  21.617  0.00  0.00    +0.000 C 
ATOM     14  C   UNL     1       2.694   2.702  20.315  0.00  0.00    +0.000 C 
ATOM     15  O   UNL     1       3.897   2.249  19.796  0.00  0.00    +0.000 OA
ATOM     16  C   UNL     1       3.917   2.711  18.432  0.00  0.00    +0.000 C 
ATOM     17  C   UNL     1       2.459   2.870  17.964  0.00  0.00    +0.000 C 
ATOM     18  C   UNL     1       1.656   2.958  19.264  0.00  0.00    +0.000 C 
BRANCH  17  19
ATOM     19  O   UNL     1       2.069   1.711  17.197  0.00  0.00    +0.000 OA
ATOM     20  H   UNL     1       1.097   1.693  17.129  0.00  0.00    +0.000 HD
ENDBRANCH  17  19
BRANCH  18  21
ATOM     21  O   UNL     1       1.039   4.224  19.443  0.00  0.00    +0.000 OA
ATOM     22  H   UNL     1       1.379   4.801  18.728  0.00  0.00    +0.000 HD
ENDBRANCH  18  21
ENDBRANCH   1  16
TORSDOF 3
ENDMDL
MODEL 6
REMARK VINA RESULT:      -7.0      2.910      5.606
REMARK  Name = 
REMARK  3 active torsions:
REMARK  status: ('A' for Active; 'I' for Inactive)
REMARK    1  A    between atoms: C_4  and  N_5
REMARK    2  A    between atoms: C_15  and  O_16
REMARK    3  A    between atoms: C_17  and  O_18
REMARK                            x       y       z     vdW  Elec       q    Type
REMARK                         _______ _______ _______ _____ _____    ______ ____
ROOT
ATOM      1  N   UNL     1       4.335   3.894  17.855  0.00  0.00    +0.000 N 
ATOM      2  C   UNL     1       5.216   3.707  18.892  0.00  0.00    +0.000 A 
ATOM      3  N   UNL     1       4.613   3.303  19.989  0.00  0.00    +0.000 NA
ATOM      4  C   UNL     1       3.281   3.211  19.645  0.00  0.00    +0.000 A 
ATOM      5  C   UNL     1       2.137   2.826  20.365  0.00  0.00    +0.000 A 
ATOM      6  N   UNL     1       2.163   2.447  21.702  0.00  0.00    +0.000 N 
ATOM      7  N   UNL     1       0.945   2.800  19.730  0.00  0.00    +0.000 NA
ATOM      8  C   UNL     1       0.905   3.169  18.436  0.00  0.00    +0.000 A 
ATOM      9  N   UNL     1       1.926   3.562  17.645  0.00  0.00    +0.000 NA
ATOM     10  C   UNL     1       3.090   3.560  18.316  0.00  0.00    +0.000 A 
ATOM     11  H   UNL     1       3.077   2.137  22.012  0.00  0.00    +0.000 HD
ATOM     12  H   UNL     1       1.366   1.869  21.940  0.00  0.00    +0.000 HD
ENDROOT
BRANCH   1  16
ATOM     13  C   UNL     1       6.691   7.070  17.186  0.00  0.00    +0.000 C 
ATOM     14  C   UNL     1       6.227   5.967  16.589  0.00  0.00    +0.000 C 
ATOM     15  O   UNL     1       4.862   5.737  16.518  0.00  0.00    +0.000 OA
ATOM     16  C   UNL     1       4.721   4.303  16.517  0.00  0.00    +0.000 C 
ATOM     17  C   UNL     1       6.012   3.701  15.935  0.00  0.00    +0.000 C 
ATOM     18  C   UNL     1       7.047   4.819  16.084  0.00  0.00    +0.000 C 
BRANCH  17  19
ATOM     19  O   UNL     1       5.808   3.372  14.544  0.00  0.00    +0.000 OA
ATOM     20  H   UNL     1       6.596   3.641  14.039  0.00  0.00    +0.000 HD
ENDBRANCH  17  19
BRANCH  18  21
ATOM     21  O   UNL     1       8.088   4.486  16.990  0.00  0.00    +0.000 OA
ATOM     22  H   UNL     1       8.818   5.117  16.817  0.00  0.00    +0.000 HD
ENDBRANCH  18  21
ENDBRANCH   1  16
TORSDOF 3
ENDMDL
MODEL 7
REMARK VINA RESULT:      -7.0      2.908      5.566
REMARK  Name = 
REMARK  3 active torsions:
REMARK  status: ('A' for Active; 'I' for Inactive)
REMARK    1  A    between atoms: C_4  and  N_5
REMARK    2  A    between atoms: C_15  and  O_16
REMARK    3  A    between atoms: C_17  and  O_18
REMARK                            x       y       z     vdW  Elec       q    Type
REMARK                         _______ _______ _______ _____ _____    ______ ____
ROOT
ATOM      1  N   UNL     1       4.696   4.258  18.382  0.00  0.00    +0.000 N 
ATOM      2  C   UNL     1       4.558   5.240  19.333  0.00  0.00    +0.000 A 
ATOM      3  N   UNL     1       3.419   5.144  19.984  0.00  0.00    +0.000 NA
ATOM      4  C   UNL     1       2.795   4.041  19.441  0.00  0.00    +0.000 A 
ATOM      5  C   UNL     1       1.567   3.413  19.713  0.00  0.00    +0.000 A 
ATOM      6  N   UNL     1       0.670   3.866  20.674  0.00  0.00    +0.000 N 
ATOM      7  N   UNL     1       1.238   2.299  19.024  0.00  0.00    +0.000 NA
ATOM      8  C   UNL     1       2.096   1.853  18.088  0.00  0.00    +0.000 A 
ATOM      9  N   UNL     1       3.292   2.368  17.735  0.00  0.00    +0.000 NA
ATOM     10  C   UNL     1       3.581   3.466  18.454  0.00  0.00    +0.000 A 
ATOM     11  H   UNL     1       1.102   4.447  21.383  0.00  0.00    +0.000 HD
ATOM     12  H   UNL     1       0.054   3.125  20.986  0.00  0.00    +0.000 HD
ENDROOT
BRANCH   1  16
ATOM     13  C   UNL     1       5.346   6.566  15.168  0.00  0.00    +0.000 C 
ATOM     14  C   UNL     1       5.974   5.726  15.998  0.00  0.00    +0.000 C 
ATOM     15  O   UNL     1       5.485   4.443  16.191  0.00  0.00    +0.000 OA
ATOM     16  C   UNL     1       5.864   4.095  17.536  0.00  0.00    +0.000 C 
ATOM     17  C   UNL     1       7.121   4.905  17.899  0.00  0.00    +0.000 C 
ATOM     18  C   UNL     1       7.122   6.064  16.900  0.00  0.00    +0.000 C 
BRANCH  17  19
ATOM     19  O   UNL     1       8.294   4.079  17.729  0.00  0.00    +0.000 OA
ATOM     20  H   UNL     1       8.187   3.547  16.920  0.00  0.00    +0.000 HD
ENDBRANCH  17  19
BRANCH  18  21
ATOM     21  O   UNL     1       6.938   7.326  17.524  0.00  0.00    +0.000 OA
ATOM     22  H   UNL     1       7.281   7.997  16.897  0.00  0.00    +0.000 HD
ENDBRANCH  18  21
ENDBRANCH   1  16
TORSDOF 3
ENDMDL
MODEL 8
REMARK VINA RESULT:      -6.9      1.629      2.093
REMARK  Name = 
REMARK  3 active torsions:
REMARK  status: ('A' for Active; 'I' for Inactive)
REMARK    1  A    between atoms: C_4  and  N_5
REMARK    2  A    between atoms: C_15  and  O_16
REMARK    3  A    between atoms: C_17  and  O_18
REMARK                            x       y       z     vdW  Elec       q    Type
REMARK                         _______ _______ _______ _____ _____    ______ ____
ROOT
ATOM      1  N   UNL     1       5.014   3.963  18.262  0.00  0.00    +0.000 N 
ATOM      2  C   UNL     1       4.537   3.293  17.162  0.00  0.00    +0.000 A 
ATOM      3  N   UNL     1       5.069   3.734  16.043  0.00  0.00    +0.000 NA
ATOM      4  C   UNL     1       5.942   4.727  16.435  0.00  0.00    +0.000 A 
ATOM      5  C   UNL     1       6.813   5.565  15.718  0.00  0.00    +0.000 A 
ATOM      6  N   UNL     1       6.938   5.538  14.334  0.00  0.00    +0.000 N 
ATOM      7  N   UNL     1       7.589   6.435  16.400  0.00  0.00    +0.000 NA
ATOM      8  C   UNL     1       7.474   6.474  17.741  0.00  0.00    +0.000 A 
ATOM      9  N   UNL     1       6.676   5.730  18.536  0.00  0.00    +0.000 NA
ATOM     10  C   UNL     1       5.933   4.873  17.814  0.00  0.00    +0.000 A 
ATOM     11  H   UNL     1       6.633   4.664  13.922  0.00  0.00    +0.000 HD
ATOM     12  H   UNL     1       7.830   5.913  14.035  0.00  0.00    +0.000 HD
ENDROOT
BRANCH   1  16
ATOM     13  C   UNL     1       1.226   4.286  19.540  0.00  0.00    +0.000 C 
ATOM     14  C   UNL     1       2.400   3.740  19.873  0.00  0.00    +0.000 C 
ATOM     15  O   UNL     1       3.532   4.533  19.977  0.00  0.00    +0.000 OA
ATOM     16  C   UNL     1       4.631   3.668  19.631  0.00  0.00    +0.000 C 
ATOM     17  C   UNL     1       4.216   2.222  19.955  0.00  0.00    +0.000 C 
ATOM     18  C   UNL     1       2.688   2.276  20.020  0.00  0.00    +0.000 C 
BRANCH  17  19
ATOM     19  O   UNL     1       4.771   1.835  21.231  0.00  0.00    +0.000 OA
ATOM     20  H   UNL     1       4.040   1.607  21.834  0.00  0.00    +0.000 HD
ENDBRANCH  17  19
BRANCH  18  21
ATOM     21  O   UNL     1       2.068   1.520  18.991  0.00  0.00    +0.000 OA
ATOM     22  H   UNL     1       2.661   0.761  18.809  0.00  0.00    +0.000 HD
ENDBRANCH  18  21
ENDBRANCH   1  16
TORSDOF 3
ENDMDL
MODEL 9
REMARK VINA RESULT:      -6.9      2.951      5.087
REMARK  Name = 
REMARK  3 active torsions:
REMARK  status: ('A' for Active; 'I' for Inactive)
REMARK    1  A    between atoms: C_4  and  N_5
REMARK    2  A    between atoms: C_15  and  O_16
REMARK    3  A    between atoms: C_17  and  O_18
REMARK                            x       y       z     vdW  Elec       q    Type
REMARK                         _______ _______ _______ _____ _____    ______ ____
ROOT
ATOM      1  N   UNL     1       4.181   5.479  17.364  0.00  0.00    +0.000 N 
ATOM      2  C   UNL     1       3.284   6.486  17.621  0.00  0.00    +0.000 A 
ATOM      3  N   UNL     1       2.499   6.205  18.639  0.00  0.00    +0.000 NA
ATOM      4  C   UNL     1       2.916   4.964  19.072  0.00  0.00    +0.000 A 
ATOM      5  C   UNL     1       2.490   4.131  20.121  0.00  0.00    +0.000 A 
ATOM      6  N   UNL     1       1.448   4.452  20.982  0.00  0.00    +0.000 N 
ATOM      7  N   UNL     1       3.133   2.961  20.325  0.00  0.00    +0.000 NA
ATOM      8  C   UNL     1       4.142   2.635  19.496  0.00  0.00    +0.000 A 
ATOM      9  N   UNL     1       4.634   3.343  18.457  0.00  0.00    +0.000 NA
ATOM     10  C   UNL     1       3.972   4.502  18.301  0.00  0.00    +0.000 A 
ATOM     11  H   UNL     1       1.256   5.447  21.025  0.00  0.00    +0.000 HD
ATOM     12  H   UNL     1       1.522   3.951  21.859  0.00  0.00    +0.000 HD
ENDROOT
BRANCH   1  16
ATOM     13  C   UNL     1       7.788   7.129  17.959  0.00  0.00    +0.000 C 
ATOM     14  C   UNL     1       7.136   6.309  17.127  0.00  0.00    +0.000 C 
ATOM     15  O   UNL     1       5.965   6.727  16.515  0.00  0.00    +0.000 OA
ATOM     16  C   UNL     1       5.191   5.527  16.323  0.00  0.00    +0.000 C 
ATOM     17  C   UNL     1       6.170   4.343  16.229  0.00  0.00    +0.000 C 
ATOM     18  C   UNL     1       7.457   4.868  16.870  0.00  0.00    +0.000 C 
BRANCH  17  19
ATOM     19  O   UNL     1       6.387   4.006  14.842  0.00  0.00    +0.000 OA
ATOM     20  H   UNL     1       5.703   4.443  14.302  0.00  0.00    +0.000 HD
ENDBRANCH  17  19
BRANCH  18  21
ATOM     21  O   UNL     1       7.789   4.188  18.071  0.00  0.00    +0.000 OA
ATOM     22  H   UNL     1       7.678   4.837  18.796  0.00  0.00    +0.000 HD
ENDBRANCH  18  21
ENDBRANCH   1  16
TORSDOF 3
ENDMDL
