MODEL 1
REMARK VINA RESULT:      -7.4      0.000      0.000
REMARK  Name = 
REMARK  12 active torsions:
REMARK  status: ('A' for Active; 'I' for Inactive)
REMARK    1  A    between atoms: C_1  and  O_2
REMARK    2  A    between atoms: O_2  and  C_3
REMARK    3  A    between atoms: C_5  and  N_6
REMARK    4  A    between atoms: N_6  and  C_7
REMARK    5  A    between atoms: C_7  and  C_8
REMARK    6  A    between atoms: C_7  and  C_9
REMARK    7  A    between atoms: C_9  and  C_10
REMARK    8  A    between atoms: C_10  and  C_11
REMARK    9  A    between atoms: C_11  and  N_12
REMARK   10  A    between atoms: C_17  and  C_18
REMARK   11  A    between atoms: C_20  and  O_21
REMARK   12  A    between atoms: O_21  and  C_22
REMARK                            x       y       z     vdW  Elec       q    Type
REMARK                         _______ _______ _______ _____ _____    ______ ____
ROOT
ATOM      1  C   UNL     1       4.953   6.327  17.179  0.00  0.00    +0.000 A 
ATOM      2  C   UNL     1       4.059   7.071  17.934  0.00  0.00    +0.000 A 
ATOM      3  C   UNL     1       2.959   6.467  18.543  0.00  0.00    +0.000 A 
ATOM      4  C   UNL     1       2.665   5.113  18.298  0.00  0.00    +0.000 A 
ATOM      5  N   UNL     1       1.489   4.655  18.786  0.00  0.00    +0.000 NA
ATOM      6  C   UNL     1       1.183   3.358  18.642  0.00  0.00    +0.000 A 
ATOM      7  C   UNL     1       2.068   2.437  18.143  0.00  0.00    +0.000 A 
ATOM      8  C   UNL     1       3.325   2.876  17.706  0.00  0.00    +0.000 A 
ATOM      9  C   UNL     1       4.306   1.780  17.383  0.00  0.00    +0.000 C 
ATOM     10  C   UNL     1       3.614   4.284  17.634  0.00  0.00    +0.000 A 
ATOM     11  C   UNL     1       4.755   4.941  17.035  0.00  0.00    +0.000 A 
ENDROOT
BRANCH   1  13
ATOM     12  C   UNL     1       7.090   7.163  17.764  0.00  0.00    +0.000 C 
ATOM     13  O   UNL     1       6.063   7.034  16.791  0.00  0.00    +0.000 OA
ENDBRANCH   1  13
BRANCH   3  14
ATOM     14  N   UNL     1       2.132   7.220  19.432  0.00  0.00    +0.000 N 
ATOM     15  H   UNL     1       2.472   7.050  20.385  0.00  0.00    +0.000 HD
BRANCH  14  16
ATOM     16  C   UNL     1       1.945   8.647  19.104  0.00  0.00    +0.000 C 
ATOM     17  C   UNL     1       1.311   8.727  17.714  0.00  0.00    +0.000 C 
BRANCH  16  18
ATOM     18  C   UNL     1       1.060   9.381  20.129  0.00  0.00    +0.000 C 
BRANCH  18  19
ATOM     19  C   UNL     1       0.633   8.502  21.313  0.00  0.00    +0.000 C 
BRANCH  19  20
ATOM     20  C   UNL     1      -0.298   9.223  22.292  0.00  0.00    +0.000 C 
BRANCH  20  21
ATOM     21  N   UNL     1       0.409   9.705  23.474  0.00  0.00    +0.000 NA
ATOM     22  H   UNL     1      -0.234   9.721  24.270  0.00  0.00    +0.000 HD
ATOM     23  H   UNL     1       0.698  10.667  23.316  0.00  0.00    +0.000 HD
ENDBRANCH  20  21
ENDBRANCH  19  20
ENDBRANCH  18  19
ENDBRANCH  16  18
ENDBRANCH  14  16
ENDBRANCH   3  14
BRANCH  11  24
ATOM     24  O   UNL     1       5.802   4.250  16.466  0.00  0.00    +0.000 OA
BRANCH  24  25
ATOM     25  C   UNL     1       6.022   4.260  15.105  0.00  0.00    +0.000 A 
ATOM     26  C   UNL     1       7.205   4.927  14.743  0.00  0.00    +0.000 A 
ATOM     27  C   UNL     1       7.659   4.916  13.424  0.00  0.00    +0.000 A 
ATOM     28  C   UNL     1       6.920   4.240  12.466  0.00  0.00    +0.000 A 
ATOM     29  F   UNL     1       7.380   4.178  11.209  0.00  0.00    +0.000 F 
ATOM     30  C   UNL     1       5.723   3.613  12.812  0.00  0.00    +0.000 A 
ATOM     31  F   UNL     1       5.036   2.936  11.880  0.00  0.00    +0.000 F 
ATOM     32  C   UNL     1       5.250   3.638  14.126  0.00  0.00    +0.000 A 
ENDBRANCH  24  25
ENDBRANCH  11  24
TORSDOF 9
ENDMDL
MODEL 2
REMARK VINA RESULT:      -7.0      0.619      1.306
REMARK  Name = 
REMARK  12 active torsions:
REMARK  status: ('A' for Active; 'I' for Inactive)
REMARK    1  A    between atoms: C_1  and  O_2
REMARK    2  A    between atoms: O_2  and  C_3
REMARK    3  A    between atoms: C_5  and  N_6
REMARK    4  A    between atoms: N_6  and  C_7
REMARK    5  A    between atoms: C_7  and  C_8
REMARK    6  A    between atoms: C_7  and  C_9
REMARK    7  A    between atoms: C_9  and  C_10
REMARK    8  A    between atoms: C_10  and  C_11
REMARK    9  A    between atoms: C_11  and  N_12
REMARK   10  A    between atoms: C_17  and  C_18
REMARK   11  A    between atoms: C_20  and  O_21
REMARK   12  A    between atoms: O_21  and  C_22
REMARK                            x       y       z     vdW  Elec       q    Type
REMARK                         _______ _______ _______ _____ _____    ______ ____
ROOT
ATOM      1  C   UNL     1       4.958   6.336  17.114  0.00  0.00    +0.000 A 
ATOM      2  C   UNL     1       3.959   7.083  17.718  0.00  0.00    +0.000 A 
ATOM      3  C   UNL     1       2.826   6.468  18.251  0.00  0.00    +0.000 A 
ATOM      4  C   UNL     1       2.616   5.088  18.074  0.00  0.00    +0.000 A 
ATOM      5  N   UNL     1       1.415   4.607  18.468  0.00  0.00    +0.000 NA
ATOM      6  C   UNL     1       1.180   3.290  18.385  0.00  0.00    +0.000 A 
ATOM      7  C   UNL     1       2.152   2.382  18.048  0.00  0.00    +0.000 A 
ATOM      8  C   UNL     1       3.429   2.852  17.714  0.00  0.00    +0.000 A 
ATOM      9  C   UNL     1       4.484   1.787  17.574  0.00  0.00    +0.000 C 
ATOM     10  C   UNL     1       3.665   4.265  17.573  0.00  0.00    +0.000 A 
ATOM     11  C   UNL     1       4.835   4.936  17.050  0.00  0.00    +0.000 A 
ENDROOT
BRANCH   1  13
ATOM     12  C   UNL     1       7.101   7.100  17.776  0.00  0.00    +0.000 C 
ATOM     13  O   UNL     1       6.073   7.069  16.795  0.00  0.00    +0.000 OA
ENDBRANCH   1  13
BRANCH   3  14
ATOM     14  N   UNL     1       1.878   7.237  18.993  0.00  0.00    +0.000 N 
ATOM     15  H   UNL     1       1.916   6.915  19.966  0.00  0.00    +0.000 HD
BRANCH  14  16
ATOM     16  C   UNL     1       1.958   8.703  18.840  0.00  0.00    +0.000 C 
ATOM     17  C   UNL     1       1.168   9.085  17.586  0.00  0.00    +0.000 C 
BRANCH  16  18
ATOM     18  C   UNL     1       1.402   9.459  20.062  0.00  0.00    +0.000 C 
BRANCH  18  19
ATOM     19  C   UNL     1       1.052   8.544  21.244  0.00  0.00    +0.000 C 
BRANCH  19  20
ATOM     20  C   UNL     1      -0.396   8.698  21.716  0.00  0.00    +0.000 C 
BRANCH  20  21
ATOM     21  N   UNL     1      -0.482   9.203  23.082  0.00  0.00    +0.000 NA
ATOM     22  H   UNL     1      -1.319   9.785  23.175  0.00  0.00    +0.000 HD
ATOM     23  H   UNL     1       0.315   9.809  23.261  0.00  0.00    +0.000 HD
ENDBRANCH  20  21
ENDBRANCH  19  20
ENDBRANCH  18  19
ENDBRANCH  16  18
ENDBRANCH  14  16
ENDBRANCH   3  14
BRANCH  11  24
ATOM     24  O   UNL     1       5.965   4.261  16.643  0.00  0.00    +0.000 OA
BRANCH  24  25
ATOM     25  C   UNL     1       6.391   4.284  15.332  0.00  0.00    +0.000 A 
ATOM     26  C   UNL     1       5.535   3.585  14.463  0.00  0.00    +0.000 A 
ATOM     27  C   UNL     1       5.732   3.618  13.083  0.00  0.00    +0.000 A 
ATOM     28  C   UNL     1       6.796   4.349  12.575  0.00  0.00    +0.000 A 
ATOM     29  F   UNL     1       6.958   4.431  11.248  0.00  0.00    +0.000 F 
ATOM     30  C   UNL     1       7.673   5.009  13.436  0.00  0.00    +0.000 A 
ATOM     31  F   UNL     1       8.677   5.738  12.928  0.00  0.00    +0.000 F 
ATOM     32  C   UNL     1       7.495   4.962  14.821  0.00  0.00    +0.000 A 
ENDBRANCH  24  25
ENDBRANCH  11  24
TORSDOF 9
ENDMDL
MODEL 3
REMARK VINA RESULT:      -7.0      6.010      9.029
REMARK  Name = 
REMARK  12 active torsions:
REMARK  status: ('A' for Active; 'I' for Inactive)
REMARK    1  A    between atoms: C_1  and  O_2
REMARK    2  A    between atoms: O_2  and  C_3
REMARK    3  A    between atoms: C_5  and  N_6
REMARK    4  A    between atoms: N_6  and  C_7
REMARK    5  A    between atoms: C_7  and  C_8
REMARK    6  A    between atoms: C_7  and  C_9
REMARK    7  A    between atoms: C_9  and  C_10
REMARK    8  A    between atoms: C_10  and  C_11
REMARK    9  A    between atoms: C_11  and  N_12
REMARK   10  A    between atoms: C_17  and  C_18
REMARK   11  A    between atoms: C_20  and  O_21
REMARK   12  A    between atoms: O_21  and  C_22
REMARK                            x       y       z     vdW  Elec       q    Type
REMARK                         _______ _______ _______ _____ _____    ______ ____
ROOT
ATOM      1  C   UNL     1       0.215  12.885  20.154  0.00  0.00    +0.000 A 
ATOM      2  C   UNL     1      -0.581  13.513  21.101  0.00  0.00    +0.000 A 
ATOM      3  C   UNL     1      -1.968  13.374  21.077  0.00  0.00    +0.000 A 
ATOM      4  C   UNL     1      -2.597  12.698  20.016  0.00  0.00    +0.000 A 
ATOM      5  N   UNL     1      -3.949  12.760  19.979  0.00  0.00    +0.000 NA
ATOM      6  C   UNL     1      -4.608  12.081  19.030  0.00  0.00    +0.000 A 
ATOM      7  C   UNL     1      -3.987  11.209  18.173  0.00  0.00    +0.000 A 
ATOM      8  C   UNL     1      -2.595  11.067  18.246  0.00  0.00    +0.000 A 
ATOM      9  C   UNL     1      -2.025   9.938  17.429  0.00  0.00    +0.000 C 
ATOM     10  C   UNL     1      -1.822  11.937  19.094  0.00  0.00    +0.000 A 
ATOM     11  C   UNL     1      -0.385  12.086  19.163  0.00  0.00    +0.000 A 
ENDROOT
BRANCH   1  13
ATOM     12  C   UNL     1       2.230  14.084  19.818  0.00  0.00    +0.000 C 
ATOM     13  O   UNL     1       1.557  12.984  20.415  0.00  0.00    +0.000 OA
ENDBRANCH   1  13
BRANCH   3  14
ATOM     14  N   UNL     1      -2.758  13.911  22.140  0.00  0.00    +0.000 N 
ATOM     15  H   UNL     1      -3.741  13.845  21.854  0.00  0.00    +0.000 HD
BRANCH  14  16
ATOM     16  C   UNL     1      -2.487  13.382  23.491  0.00  0.00    +0.000 C 
ATOM     17  C   UNL     1      -2.741  14.511  24.492  0.00  0.00    +0.000 C 
BRANCH  16  18
ATOM     18  C   UNL     1      -3.362  12.163  23.839  0.00  0.00    +0.000 C 
BRANCH  18  19
ATOM     19  C   UNL     1      -4.561  12.502  24.734  0.00  0.00    +0.000 C 
BRANCH  19  20
ATOM     20  C   UNL     1      -5.842  12.784  23.943  0.00  0.00    +0.000 C 
BRANCH  20  21
ATOM     21  N   UNL     1      -5.719  12.411  22.538  0.00  0.00    +0.000 NA
ATOM     22  H   UNL     1      -6.434  11.715  22.309  0.00  0.00    +0.000 HD
ATOM     23  H   UNL     1      -4.818  11.959  22.394  0.00  0.00    +0.000 HD
ENDBRANCH  20  21
ENDBRANCH  19  20
ENDBRANCH  18  19
ENDBRANCH  16  18
ENDBRANCH  14  16
ENDBRANCH   3  14
BRANCH  11  24
ATOM     24  O   UNL     1       0.482  11.325  18.412  0.00  0.00    +0.000 OA
BRANCH  24  25
ATOM     25  C   UNL     1       0.918  10.089  18.839  0.00  0.00    +0.000 A 
ATOM     26  C   UNL     1       1.651   9.395  17.860  0.00  0.00    +0.000 A 
ATOM     27  C   UNL     1       2.288   8.191  18.160  0.00  0.00    +0.000 A 
ATOM     28  C   UNL     1       2.181   7.679  19.445  0.00  0.00    +0.000 A 
ATOM     29  F   UNL     1       2.836   6.552  19.755  0.00  0.00    +0.000 F 
ATOM     30  C   UNL     1       1.420   8.341  20.407  0.00  0.00    +0.000 A 
ATOM     31  F   UNL     1       1.353   7.849  21.652  0.00  0.00    +0.000 F 
ATOM     32  C   UNL     1       0.761   9.537  20.108  0.00  0.00    +0.000 A 
ENDBRANCH  24  25
ENDBRANCH  11  24
TORSDOF 9
ENDMDL
MODEL 4
REMARK VINA RESULT:      -6.8      1.452      2.564
REMARK  Name = 
REMARK  12 active torsions:
REMARK  status: ('A' for Active; 'I' for Inactive)
REMARK    1  A    between atoms: C_1  and  O_2
REMARK    2  A    between atoms: O_2  and  C_3
REMARK    3  A    between atoms: C_5  and  N_6
REMARK    4  A    between atoms: N_6  and  C_7
REMARK    5  A    between atoms: C_7  and  C_8
REMARK    6  A    between atoms: C_7  and  C_9
REMARK    7  A    between atoms: C_9  and  C_10
REMARK    8  A    between atoms: C_10  and  C_11
REMARK    9  A    between atoms: C_11  and  N_12
REMARK   10  A    between atoms: C_17  and  C_18
REMARK   11  A    between atoms: C_20  and  O_21
REMARK   12  A    between atoms: O_21  and  C_22
REMARK                            x       y       z     vdW  Elec       q    Type
REMARK                         _______ _______ _______ _____ _____    ______ ____
ROOT
ATOM      1  C   UNL     1       5.049   6.334  16.938  0.00  0.00    +0.000 A 
ATOM      2  C   UNL     1       4.030   7.065  17.528  0.00  0.00    +0.000 A 
ATOM      3  C   UNL     1       2.888   6.434  18.023  0.00  0.00    +0.000 A 
ATOM      4  C   UNL     1       2.692   5.056  17.818  0.00  0.00    +0.000 A 
ATOM      5  N   UNL     1       1.484   4.560  18.175  0.00  0.00    +0.000 NA
ATOM      6  C   UNL     1       1.261   3.243  18.066  0.00  0.00    +0.000 A 
ATOM      7  C   UNL     1       2.246   2.347  17.738  0.00  0.00    +0.000 A 
ATOM      8  C   UNL     1       3.528   2.831  17.443  0.00  0.00    +0.000 A 
ATOM      9  C   UNL     1       4.593   1.775  17.312  0.00  0.00    +0.000 C 
ATOM     10  C   UNL     1       3.758   4.247  17.330  0.00  0.00    +0.000 A 
ATOM     11  C   UNL     1       4.937   4.934  16.848  0.00  0.00    +0.000 A 
ENDROOT
BRANCH   1  13
ATOM     12  C   UNL     1       7.150   7.135  17.681  0.00  0.00    +0.000 C 
ATOM     13  O   UNL     1       6.166   7.079  16.658  0.00  0.00    +0.000 OA
ENDBRANCH   1  13
BRANCH   3  14
ATOM     14  N   UNL     1       1.917   7.185  18.753  0.00  0.00    +0.000 N 
ATOM     15  H   UNL     1       0.991   6.895  18.419  0.00  0.00    +0.000 HD
BRANCH  14  16
ATOM     16  C   UNL     1       2.054   7.186  20.222  0.00  0.00    +0.000 C 
ATOM     17  C   UNL     1       1.374   8.449  20.754  0.00  0.00    +0.000 C 
BRANCH  16  18
ATOM     18  C   UNL     1       1.432   5.938  20.878  0.00  0.00    +0.000 C 
BRANCH  18  19
ATOM     19  C   UNL     1       2.468   4.899  21.327  0.00  0.00    +0.000 C 
BRANCH  19  20
ATOM     20  C   UNL     1       1.852   3.535  21.652  0.00  0.00    +0.000 C 
BRANCH  20  21
ATOM     21  N   UNL     1       2.858   2.484  21.755  0.00  0.00    +0.000 NA
ATOM     22  H   UNL     1       2.909   2.158  22.724  0.00  0.00    +0.000 HD
ATOM     23  H   UNL     1       3.770   2.876  21.533  0.00  0.00    +0.000 HD
ENDBRANCH  20  21
ENDBRANCH  19  20
ENDBRANCH  18  19
ENDBRANCH  16  18
ENDBRANCH  14  16
ENDBRANCH   3  14
BRANCH  11  24
ATOM     24  O   UNL     1       6.080   4.273  16.458  0.00  0.00    +0.000 OA
BRANCH  24  25
ATOM     25  C   UNL     1       6.533   4.311  15.157  0.00  0.00    +0.000 A 
ATOM     26  C   UNL     1       5.727   3.574  14.271  0.00  0.00    +0.000 A 
ATOM     27  C   UNL     1       5.952   3.613  12.896  0.00  0.00    +0.000 A 
ATOM     28  C   UNL     1       6.994   4.389  12.409  0.00  0.00    +0.000 A 
ATOM     29  F   UNL     1       7.180   4.475  11.085  0.00  0.00    +0.000 F 
ATOM     30  C   UNL     1       7.822   5.087  13.286  0.00  0.00    +0.000 A 
ATOM     31  F   UNL     1       8.804   5.858  12.797  0.00  0.00    +0.000 F 
ATOM     32  C   UNL     1       7.617   5.036  14.667  0.00  0.00    +0.000 A 
ENDBRANCH  24  25
ENDBRANCH  11  24
TORSDOF 9
ENDMDL
MODEL 5
REMARK VINA RESULT:      -6.8      6.237      9.654
REMARK  Name = 
REMARK  12 active torsions:
REMARK  status: ('A' for Active; 'I' for Inactive)
REMARK    1  A    between atoms: C_1  and  O_2
REMARK    2  A    between atoms: O_2  and  C_3
REMARK    3  A    between atoms: C_5  and  N_6
REMARK    4  A    between atoms: N_6  and  C_7
REMARK    5  A    between atoms: C_7  and  C_8
REMARK    6  A    between atoms: C_7  and  C_9
REMARK    7  A    between atoms: C_9  and  C_10
REMARK    8  A    between atoms: C_10  and  C_11
REMARK    9  A    between atoms: C_11  and  N_12
REMARK   10  A    between atoms: C_17  and  C_18
REMARK   11  A    between atoms: C_20  and  O_21
REMARK   12  A    between atoms: O_21  and  C_22
REMARK                            x       y       z     vdW  Elec       q    Type
REMARK                         _______ _______ _______ _____ _____    ______ ____
ROOT
ATOM      1  C   UNL     1      -2.001  10.848  17.967  0.00  0.00    +0.000 A 
ATOM      2  C   UNL     1      -3.298  11.315  18.112  0.00  0.00    +0.000 A 
ATOM      3  C   UNL     1      -3.637  12.176  19.156  0.00  0.00    +0.000 A 
ATOM      4  C   UNL     1      -2.697  12.486  20.156  0.00  0.00    +0.000 A 
ATOM      5  N   UNL     1      -3.159  13.184  21.220  0.00  0.00    +0.000 NA
ATOM      6  C   UNL     1      -2.298  13.566  22.173  0.00  0.00    +0.000 A 
ATOM      7  C   UNL     1      -0.940  13.405  22.057  0.00  0.00    +0.000 A 
ATOM      8  C   UNL     1      -0.433  12.756  20.923  0.00  0.00    +0.000 A 
ATOM      9  C   UNL     1       1.064  12.817  20.771  0.00  0.00    +0.000 C 
ATOM     10  C   UNL     1      -1.328  12.133  19.984  0.00  0.00    +0.000 A 
ATOM     11  C   UNL     1      -1.009  11.258  18.877  0.00  0.00    +0.000 A 
ENDROOT
BRANCH   1  13
ATOM     12  C   UNL     1      -2.667  10.470  15.725  0.00  0.00    +0.000 C 
ATOM     13  O   UNL     1      -1.797  10.152  16.803  0.00  0.00    +0.000 OA
ENDBRANCH   1  13
BRANCH   3  14
ATOM     14  N   UNL     1      -4.941  12.757  19.207  0.00  0.00    +0.000 N 
ATOM     15  H   UNL     1      -4.973  13.499  18.498  0.00  0.00    +0.000 HD
BRANCH  14  16
ATOM     16  C   UNL     1      -6.081  11.822  19.151  0.00  0.00    +0.000 C 
ATOM     17  C   UNL     1      -6.616  11.654  20.575  0.00  0.00    +0.000 C 
BRANCH  16  18
ATOM     18  C   UNL     1      -7.206  12.310  18.220  0.00  0.00    +0.000 C 
BRANCH  18  19
ATOM     19  C   UNL     1      -7.134  13.810  17.904  0.00  0.00    +0.000 C 
BRANCH  19  20
ATOM     20  C   UNL     1      -7.202  14.113  16.404  0.00  0.00    +0.000 C 
BRANCH  20  21
ATOM     21  N   UNL     1      -6.906  15.511  16.108  0.00  0.00    +0.000 NA
ATOM     22  H   UNL     1      -5.968  15.580  15.704  0.00  0.00    +0.000 HD
ATOM     23  H   UNL     1      -6.885  16.036  16.979  0.00  0.00    +0.000 HD
ENDBRANCH  20  21
ENDBRANCH  19  20
ENDBRANCH  18  19
ENDBRANCH  16  18
ENDBRANCH  14  16
ENDBRANCH   3  14
BRANCH  11  24
ATOM     24  O   UNL     1       0.284  10.933  18.530  0.00  0.00    +0.000 OA
BRANCH  24  25
ATOM     25  C   UNL     1       0.850   9.729  18.890  0.00  0.00    +0.000 A 
ATOM     26  C   UNL     1       1.587   9.134  17.851  0.00  0.00    +0.000 A 
ATOM     27  C   UNL     1       2.343   7.984  18.076  0.00  0.00    +0.000 A 
ATOM     28  C   UNL     1       2.353   7.426  19.346  0.00  0.00    +0.000 A 
ATOM     29  F   UNL     1       3.121   6.354  19.583  0.00  0.00    +0.000 F 
ATOM     30  C   UNL     1       1.589   7.987  20.369  0.00  0.00    +0.000 A 
ATOM     31  F   UNL     1       1.635   7.455  21.598  0.00  0.00    +0.000 F 
ATOM     32  C   UNL     1       0.812   9.127  20.146  0.00  0.00    +0.000 A 
ENDBRANCH  24  25
ENDBRANCH  11  24
TORSDOF 9
ENDMDL
MODEL 6
REMARK VINA RESULT:      -6.8      1.081      1.237
REMARK  Name = 
REMARK  12 active torsions:
REMARK  status: ('A' for Active; 'I' for Inactive)
REMARK    1  A    between atoms: C_1  and  O_2
REMARK    2  A    between atoms: O_2  and  C_3
REMARK    3  A    between atoms: C_5  and  N_6
REMARK    4  A    between atoms: N_6  and  C_7
REMARK    5  A    between atoms: C_7  and  C_8
REMARK    6  A    between atoms: C_7  and  C_9
REMARK    7  A    between atoms: C_9  and  C_10
REMARK    8  A    between atoms: C_10  and  C_11
REMARK    9  A    between atoms: C_11  and  N_12
REMARK   10  A    between atoms: C_17  and  C_18
REMARK   11  A    between atoms: C_20  and  O_21
REMARK   12  A    between atoms: O_21  and  C_22
REMARK                            x       y       z     vdW  Elec       q    Type
REMARK                         _______ _______ _______ _____ _____    ______ ____
ROOT
ATOM      1  C   UNL     1       4.934   6.397  17.079  0.00  0.00    +0.000 A 
ATOM      2  C   UNL     1       4.058   7.179  17.816  0.00  0.00    +0.000 A 
ATOM      3  C   UNL     1       2.958   6.611  18.459  0.00  0.00    +0.000 A 
ATOM      4  C   UNL     1       2.645   5.253  18.267  0.00  0.00    +0.000 A 
ATOM      5  N   UNL     1       1.469   4.827  18.784  0.00  0.00    +0.000 NA
ATOM      6  C   UNL     1       1.146   3.530  18.692  0.00  0.00    +0.000 A 
ATOM      7  C   UNL     1       2.015   2.580  18.218  0.00  0.00    +0.000 A 
ATOM      8  C   UNL     1       3.272   2.988  17.751  0.00  0.00    +0.000 A 
ATOM      9  C   UNL     1       4.236   1.869  17.458  0.00  0.00    +0.000 C 
ATOM     10  C   UNL     1       3.577   4.389  17.624  0.00  0.00    +0.000 A 
ATOM     11  C   UNL     1       4.719   5.010  16.989  0.00  0.00    +0.000 A 
ENDROOT
BRANCH   1  13
ATOM     12  C   UNL     1       7.049   7.307  17.635  0.00  0.00    +0.000 C 
ATOM     13  O   UNL     1       6.048   7.075  16.654  0.00  0.00    +0.000 OA
ENDBRANCH   1  13
BRANCH   3  14
ATOM     14  N   UNL     1       2.150   7.407  19.328  0.00  0.00    +0.000 N 
ATOM     15  H   UNL     1       2.533   7.310  20.275  0.00  0.00    +0.000 HD
BRANCH  14  16
ATOM     16  C   UNL     1       1.915   8.803  18.912  0.00  0.00    +0.000 C 
ATOM     17  C   UNL     1       1.279   8.773  17.520  0.00  0.00    +0.000 C 
BRANCH  16  18
ATOM     18  C   UNL     1       1.005   9.570  19.890  0.00  0.00    +0.000 C 
BRANCH  18  19
ATOM     19  C   UNL     1       0.369  10.827  19.281  0.00  0.00    +0.000 C 
BRANCH  19  20
ATOM     20  C   UNL     1      -1.158  10.842  19.391  0.00  0.00    +0.000 C 
BRANCH  20  21
ATOM     21  N   UNL     1      -1.660  12.094  19.946  0.00  0.00    +0.000 NA
ATOM     22  H   UNL     1      -1.462  12.857  19.293  0.00  0.00    +0.000 HD
ATOM     23  H   UNL     1      -1.151  12.304  20.801  0.00  0.00    +0.000 HD
ENDBRANCH  20  21
ENDBRANCH  19  20
ENDBRANCH  18  19
ENDBRANCH  16  18
ENDBRANCH  14  16
ENDBRANCH   3  14
BRANCH  11  24
ATOM     24  O   UNL     1       5.750   4.285  16.434  0.00  0.00    +0.000 OA
BRANCH  24  25
ATOM     25  C   UNL     1       5.984   4.280  15.075  0.00  0.00    +0.000 A 
ATOM     26  C   UNL     1       7.179   4.931  14.720  0.00  0.00    +0.000 A 
ATOM     27  C   UNL     1       7.646   4.903  13.406  0.00  0.00    +0.000 A 
ATOM     28  C   UNL     1       6.908   4.227  12.446  0.00  0.00    +0.000 A 
ATOM     29  F   UNL     1       7.380   4.149  11.194  0.00  0.00    +0.000 F 
ATOM     30  C   UNL     1       5.701   3.617  12.785  0.00  0.00    +0.000 A 
ATOM     31  F   UNL     1       5.016   2.940  11.852  0.00  0.00    +0.000 F 
ATOM     32  C   UNL     1       5.214   3.659  14.095  0.00  0.00    +0.000 A 
ENDBRANCH  24  25
ENDBRANCH  11  24
TORSDOF 9
ENDMDL
MODEL 7
REMARK VINA RESULT:      -6.7      4.762      8.308
REMARK  Name = 
REMARK  12 active torsions:
REMARK  status: ('A' for Active; 'I' for Inactive)
REMARK    1  A    between atoms: C_1  and  O_2
REMARK    2  A    between atoms: O_2  and  C_3
REMARK    3  A    between atoms: C_5  and  N_6
REMARK    4  A    between atoms: N_6  and  C_7
REMARK    5  A    between atoms: C_7  and  C_8
REMARK    6  A    between atoms: C_7  and  C_9
REMARK    7  A    between atoms: C_9  and  C_10
REMARK    8  A    between atoms: C_10  and  C_11
REMARK    9  A    between atoms: C_11  and  N_12
REMARK   10  A    between atoms: C_17  and  C_18
REMARK   11  A    between atoms: C_20  and  O_21
REMARK   12  A    between atoms: O_21  and  C_22
REMARK                            x       y       z     vdW  Elec       q    Type
REMARK                         _______ _______ _______ _____ _____    ______ ____
ROOT
ATOM      1  C   UNL     1       0.394   8.179  21.080  0.00  0.00    +0.000 A 
ATOM      2  C   UNL     1       0.965   6.973  21.457  0.00  0.00    +0.000 A 
ATOM      3  C   UNL     1       1.994   6.402  20.707  0.00  0.00    +0.000 A 
ATOM      4  C   UNL     1       2.385   6.976  19.484  0.00  0.00    +0.000 A 
ATOM      5  N   UNL     1       3.265   6.265  18.740  0.00  0.00    +0.000 NA
ATOM      6  C   UNL     1       3.726   6.790  17.596  0.00  0.00    +0.000 A 
ATOM      7  C   UNL     1       3.456   8.077  17.207  0.00  0.00    +0.000 A 
ATOM      8  C   UNL     1       2.611   8.861  18.005  0.00  0.00    +0.000 A 
ATOM      9  C   UNL     1       2.546  10.317  17.626  0.00  0.00    +0.000 C 
ATOM     10  C   UNL     1       1.917   8.271  19.119  0.00  0.00    +0.000 A 
ATOM     11  C   UNL     1       0.867   8.843  19.933  0.00  0.00    +0.000 A 
ENDROOT
BRANCH   1  13
ATOM     12  C   UNL     1       0.097   9.435  23.066  0.00  0.00    +0.000 C 
ATOM     13  O   UNL     1      -0.481   8.683  22.008  0.00  0.00    +0.000 OA
ENDBRANCH   1  13
BRANCH   3  14
ATOM     14  N   UNL     1       2.665   5.236  21.187  0.00  0.00    +0.000 N 
ATOM     15  H   UNL     1       3.084   5.475  22.093  0.00  0.00    +0.000 HD
BRANCH  14  16
ATOM     16  C   UNL     1       1.881   3.985  21.198  0.00  0.00    +0.000 C 
ATOM     17  C   UNL     1       0.812   4.096  20.109  0.00  0.00    +0.000 C 
BRANCH  16  18
ATOM     18  C   UNL     1       2.752   2.737  20.956  0.00  0.00    +0.000 C 
BRANCH  18  19
ATOM     19  C   UNL     1       2.694   2.218  19.513  0.00  0.00    +0.000 C 
BRANCH  19  20
ATOM     20  C   UNL     1       3.852   2.720  18.646  0.00  0.00    +0.000 C 
BRANCH  20  21
ATOM     21  N   UNL     1       4.907   3.343  19.439  0.00  0.00    +0.000 NA
ATOM     22  H   UNL     1       5.386   4.047  18.871  0.00  0.00    +0.000 HD
ATOM     23  H   UNL     1       5.603   2.639  19.675  0.00  0.00    +0.000 HD
ENDBRANCH  20  21
ENDBRANCH  19  20
ENDBRANCH  18  19
ENDBRANCH  16  18
ENDBRANCH  14  16
ENDBRANCH   3  14
BRANCH  11  24
ATOM     24  O   UNL     1       0.406  10.129  19.762  0.00  0.00    +0.000 OA
BRANCH  24  25
ATOM     25  C   UNL     1      -0.724  10.402  19.021  0.00  0.00    +0.000 A 
ATOM     26  C   UNL     1      -1.538  11.391  19.600  0.00  0.00    +0.000 A 
ATOM     27  C   UNL     1      -2.649  11.893  18.923  0.00  0.00    +0.000 A 
ATOM     28  C   UNL     1      -2.947  11.395  17.663  0.00  0.00    +0.000 A 
ATOM     29  F   UNL     1      -3.979  11.913  16.984  0.00  0.00    +0.000 F 
ATOM     30  C   UNL     1      -2.169  10.383  17.103  0.00  0.00    +0.000 A 
ATOM     31  F   UNL     1      -2.452   9.935  15.871  0.00  0.00    +0.000 F 
ATOM     32  C   UNL     1      -1.067   9.859  17.785  0.00  0.00    +0.000 A 
ENDBRANCH  24  25
ENDBRANCH  11  24
TORSDOF 9
ENDMDL
MODEL 8
REMARK VINA RESULT:      -6.6      1.141      1.272
REMARK  Name = 
REMARK  12 active torsions:
REMARK  status: ('A' for Active; 'I' for Inactive)
REMARK    1  A    between atoms: C_1  and  O_2
REMARK    2  A    between atoms: O_2  and  C_3
REMARK    3  A    between atoms: C_5  and  N_6
REMARK    4  A    between atoms: N_6  and  C_7
REMARK    5  A    between atoms: C_7  and  C_8
REMARK    6  A    between atoms: C_7  and  C_9
REMARK    7  A    between atoms: C_9  and  C_10
REMARK    8  A    between atoms: C_10  and  C_11
REMARK    9  A    between atoms: C_11  and  N_12
REMARK   10  A    between atoms: C_17  and  C_18
REMARK   11  A    between atoms: C_20  and  O_21
REMARK   12  A    between atoms: O_21  and  C_22
REMARK                            x       y       z     vdW  Elec       q    Type
REMARK                         _______ _______ _______ _____ _____    ______ ____
ROOT
ATOM      1  C   UNL     1       4.671   5.841  18.468  0.00  0.00    +0.000 A 
ATOM      2  C   UNL     1       3.826   6.543  19.314  0.00  0.00    +0.000 A 
ATOM      3  C   UNL     1       2.672   5.950  19.827  0.00  0.00    +0.000 A 
ATOM      4  C   UNL     1       2.277   4.671  19.395  0.00  0.00    +0.000 A 
ATOM      5  N   UNL     1       1.060   4.245  19.808  0.00  0.00    +0.000 NA
ATOM      6  C   UNL     1       0.657   3.009  19.485  0.00  0.00    +0.000 A 
ATOM      7  C   UNL     1       1.476   2.097  18.869  0.00  0.00    +0.000 A 
ATOM      8  C   UNL     1       2.770   2.491  18.504  0.00  0.00    +0.000 A 
ATOM      9  C   UNL     1       3.669   1.375  18.039  0.00  0.00    +0.000 C 
ATOM     10  C   UNL     1       3.170   3.868  18.629  0.00  0.00    +0.000 A 
ATOM     11  C   UNL     1       4.369   4.508  18.133  0.00  0.00    +0.000 A 
ENDROOT
BRANCH   1  13
ATOM     12  C   UNL     1       5.764   7.500  17.179  0.00  0.00    +0.000 C 
ATOM     13  O   UNL     1       5.839   6.504  18.189  0.00  0.00    +0.000 OA
ENDBRANCH   1  13
BRANCH   3  14
ATOM     14  N   UNL     1       1.891   6.638  20.806  0.00  0.00    +0.000 N 
ATOM     15  H   UNL     1       2.315   6.453  21.722  0.00  0.00    +0.000 HD
BRANCH  14  16
ATOM     16  C   UNL     1       1.620   8.065  20.545  0.00  0.00    +0.000 C 
ATOM     17  C   UNL     1       1.656   8.278  19.030  0.00  0.00    +0.000 C 
BRANCH  16  18
ATOM     18  C   UNL     1       0.261   8.525  21.109  0.00  0.00    +0.000 C 
BRANCH  18  19
ATOM     19  C   UNL     1       0.261   9.978  21.603  0.00  0.00    +0.000 C 
BRANCH  19  20
ATOM     20  C   UNL     1      -0.538  10.175  22.894  0.00  0.00    +0.000 C 
BRANCH  20  21
ATOM     21  N   UNL     1       0.137   9.603  24.054  0.00  0.00    +0.000 NA
ATOM     22  H   UNL     1       0.666   8.776  23.765  0.00  0.00    +0.000 HD
ATOM     23  H   UNL     1      -0.564   9.281  24.718  0.00  0.00    +0.000 HD
ENDBRANCH  20  21
ENDBRANCH  19  20
ENDBRANCH  18  19
ENDBRANCH  16  18
ENDBRANCH  14  16
ENDBRANCH   3  14
BRANCH  11  24
ATOM     24  O   UNL     1       5.368   3.821  17.481  0.00  0.00    +0.000 OA
BRANCH  24  25
ATOM     25  C   UNL     1       5.686   4.080  16.165  0.00  0.00    +0.000 A 
ATOM     26  C   UNL     1       7.010   4.520  15.994  0.00  0.00    +0.000 A 
ATOM     27  C   UNL     1       7.548   4.697  14.720  0.00  0.00    +0.000 A 
ATOM     28  C   UNL     1       6.752   4.438  13.614  0.00  0.00    +0.000 A 
ATOM     29  F   UNL     1       7.280   4.552  12.388  0.00  0.00    +0.000 F 
ATOM     30  C   UNL     1       5.425   4.044  13.778  0.00  0.00    +0.000 A 
ATOM     31  F   UNL     1       4.678   3.767  12.699  0.00  0.00    +0.000 F 
ATOM     32  C   UNL     1       4.871   3.886  15.051  0.00  0.00    +0.000 A 
ENDBRANCH  24  25
ENDBRANCH  11  24
TORSDOF 9
ENDMDL
MODEL 9
REMARK VINA RESULT:      -6.6      0.947      1.624
REMARK  Name = 
REMARK  12 active torsions:
REMARK  status: ('A' for Active; 'I' for Inactive)
REMARK    1  A    between atoms: C_1  and  O_2
REMARK    2  A    between atoms: O_2  and  C_3
REMARK    3  A    between atoms: C_5  and  N_6
REMARK    4  A    between atoms: N_6  and  C_7
REMARK    5  A    between atoms: C_7  and  C_8
REMARK    6  A    between atoms: C_7  and  C_9
REMARK    7  A    between atoms: C_9  and  C_10
REMARK    8  A    between atoms: C_10  and  C_11
REMARK    9  A    between atoms: C_11  and  N_12
REMARK   10  A    between atoms: C_17  and  C_18
REMARK   11  A    between atoms: C_20  and  O_21
REMARK   12  A    between atoms: O_21  and  C_22
REMARK                            x       y       z     vdW  Elec       q    Type
REMARK                         _______ _______ _______ _____ _____    ______ ____
ROOT
ATOM      1  C   UNL     1       5.160   6.306  17.382  0.00  0.00    +0.000 A 
ATOM      2  C   UNL     1       4.218   7.082  18.039  0.00  0.00    +0.000 A 
ATOM      3  C   UNL     1       3.041   6.519  18.530  0.00  0.00    +0.000 A 
ATOM      4  C   UNL     1       2.727   5.175  18.256  0.00  0.00    +0.000 A 
ATOM      5  N   UNL     1       1.491   4.760  18.619  0.00  0.00    +0.000 NA
ATOM      6  C   UNL     1       1.157   3.474  18.444  0.00  0.00    +0.000 A 
ATOM      7  C   UNL     1       2.058   2.520  18.042  0.00  0.00    +0.000 A 
ATOM      8  C   UNL     1       3.368   2.914  17.738  0.00  0.00    +0.000 A 
ATOM      9  C   UNL     1       4.339   1.784  17.521  0.00  0.00    +0.000 C 
ATOM     10  C   UNL     1       3.711   4.312  17.696  0.00  0.00    +0.000 A 
ATOM     11  C   UNL     1       4.931   4.927  17.219  0.00  0.00    +0.000 A 
ENDROOT
BRANCH   1  13
ATOM     12  C   UNL     1       7.355   6.849  18.086  0.00  0.00    +0.000 C 
ATOM     13  O   UNL     1       6.328   6.972  17.112  0.00  0.00    +0.000 OA
ENDBRANCH   1  13
BRANCH   3  14
ATOM     14  N   UNL     1       2.151   7.304  19.326  0.00  0.00    +0.000 N 
ATOM     15  H   UNL     1       2.432   7.186  20.306  0.00  0.00    +0.000 HD
BRANCH  14  16
ATOM     16  C   UNL     1       1.971   8.711  18.917  0.00  0.00    +0.000 C 
ATOM     17  C   UNL     1       1.413   8.713  17.492  0.00  0.00    +0.000 C 
BRANCH  16  18
ATOM     18  C   UNL     1       1.025   9.486  19.854  0.00  0.00    +0.000 C 
BRANCH  18  19
ATOM     19  C   UNL     1       0.779  10.936  19.416  0.00  0.00    +0.000 C 
BRANCH  19  20
ATOM     20  C   UNL     1       1.086  11.956  20.516  0.00  0.00    +0.000 C 
BRANCH  20  21
ATOM     21  N   UNL     1       0.462  11.604  21.787  0.00  0.00    +0.000 NA
ATOM     22  H   UNL     1      -0.367  12.187  21.930  0.00  0.00    +0.000 HD
ATOM     23  H   UNL     1       1.106  11.825  22.543  0.00  0.00    +0.000 HD
ENDBRANCH  20  21
ENDBRANCH  19  20
ENDBRANCH  18  19
ENDBRANCH  16  18
ENDBRANCH  14  16
ENDBRANCH   3  14
BRANCH  11  24
ATOM     24  O   UNL     1       6.007   4.198  16.763  0.00  0.00    +0.000 OA
BRANCH  24  25
ATOM     25  C   UNL     1       6.409   4.246  15.445  0.00  0.00    +0.000 A 
ATOM     26  C   UNL     1       5.533   3.569  14.578  0.00  0.00    +0.000 A 
ATOM     27  C   UNL     1       5.706   3.629  13.195  0.00  0.00    +0.000 A 
ATOM     28  C   UNL     1       6.764   4.365  12.683  0.00  0.00    +0.000 A 
ATOM     29  F   UNL     1       6.902   4.474  11.355  0.00  0.00    +0.000 F 
ATOM     30  C   UNL     1       7.660   5.002  13.541  0.00  0.00    +0.000 A 
ATOM     31  F   UNL     1       8.659   5.736  13.029  0.00  0.00    +0.000 F 
ATOM     32  C   UNL     1       7.507   4.928  14.928  0.00  0.00    +0.000 A 
ENDBRANCH  24  25
ENDBRANCH  11  24
TORSDOF 9
ENDMDL
