MODEL 1
REMARK VINA RESULT:      -5.9      0.000      0.000
REMARK  Name = 
REMARK  9 active torsions:
REMARK  status: ('A' for Active; 'I' for Inactive)
REMARK    1  A    between atoms: C_1  and  C_2
REMARK    2  A    between atoms: C_4  and  C_5
REMARK    3  A    between atoms: C_6  and  C_7
REMARK    4  A    between atoms: C_8  and  N_9
REMARK    5  A    between atoms: N_9  and  C_10
REMARK    6  A    between atoms: N_9  and  C_11
REMARK    7  A    between atoms: C_11  and  C_12
REMARK    8  A    between atoms: C_12  and  C_13
REMARK    9  A    between atoms: C_13  and  O_15
REMARK                            x       y       z     vdW  Elec       q    Type
REMARK                         _______ _______ _______ _____ _____    ______ ____
ROOT
ATOM      1  C   UNL     1       6.296   4.134  13.797  0.00  0.00    +0.000 C 
ATOM      2  C   UNL     1       5.952   4.579  15.184  0.00  0.00    +0.000 A 
ATOM      3  N   UNL     1       6.771   5.450  15.770  0.00  0.00    +0.000 NA
ATOM      4  C   UNL     1       6.467   5.813  17.034  0.00  0.00    +0.000 A 
ATOM      5  C   UNL     1       7.469   6.740  17.665  0.00  0.00    +0.000 C 
ATOM      6  C   UNL     1       5.349   5.331  17.719  0.00  0.00    +0.000 A 
ATOM      7  C   UNL     1       5.093   5.740  19.143  0.00  0.00    +0.000 C 
ATOM      8  C   UNL     1       4.538   4.422  17.027  0.00  0.00    +0.000 A 
ATOM      9  N   UNL     1       4.866   4.045  15.765  0.00  0.00    +0.000 NA
ENDROOT
BRANCH   8  10
ATOM     10  N   UNL     1       3.470   3.745  17.621  0.00  0.00    +0.000 N 
ATOM     11  C   UNL     1       2.092   4.189  17.466  0.00  0.00    +0.000 C 
BRANCH  10  12
ATOM     12  C   UNL     1       3.631   2.289  17.808  0.00  0.00    +0.000 C 
BRANCH  12  13
ATOM     13  C   UNL     1       2.978   1.885  19.122  0.00  0.00    +0.000 C 
BRANCH  13  14
ATOM     14  C   UNL     1       3.858   2.201  20.292  0.00  0.00    +0.000 C 
ATOM     15  O   UNL     1       3.492   2.465  21.428  0.00  0.00    +0.000 OA
BRANCH  14  16
ATOM     16  O   UNL     1       5.176   2.181  19.950  0.00  0.00    +0.000 OA
ATOM     17  H   UNL     1       5.332   2.404  19.016  0.00  0.00    +0.000 HD
ENDBRANCH  14  16
ENDBRANCH  13  14
ENDBRANCH  12  13
ENDBRANCH  10  12
ENDBRANCH   8  10
TORSDOF 5
ENDMDL
MODEL 2
REMARK VINA RESULT:      -5.9      3.050      5.541
REMARK  Name = 
REMARK  9 active torsions:
REMARK  status: ('A' for Active; 'I' for Inactive)
REMARK    1  A    between atoms: C_1  and  C_2
REMARK    2  A    between atoms: C_4  and  C_5
REMARK    3  A    between atoms: C_6  and  C_7
REMARK    4  A    between atoms: C_8  and  N_9
REMARK    5  A    between atoms: N_9  and  C_10
REMARK    6  A    between atoms: N_9  and  C_11
REMARK    7  A    between atoms: C_11  and  C_12
REMARK    8  A    between atoms: C_12  and  C_13
REMARK    9  A    between atoms: C_13  and  O_15
REMARK                            x       y       z     vdW  Elec       q    Type
REMARK                         _______ _______ _______ _____ _____    ______ ____
ROOT
ATOM      1  C   UNL     1       2.070   7.623  19.749  0.00  0.00    +0.000 C 
ATOM      2  C   UNL     1       2.593   6.220  19.729  0.00  0.00    +0.000 A 
ATOM      3  N   UNL     1       2.032   5.345  20.562  0.00  0.00    +0.000 NA
ATOM      4  C   UNL     1       2.540   4.094  20.556  0.00  0.00    +0.000 A 
ATOM      5  C   UNL     1       1.915   3.174  21.570  0.00  0.00    +0.000 C 
ATOM      6  C   UNL     1       3.589   3.698  19.723  0.00  0.00    +0.000 A 
ATOM      7  C   UNL     1       4.138   2.301  19.801  0.00  0.00    +0.000 C 
ATOM      8  C   UNL     1       4.117   4.680  18.876  0.00  0.00    +0.000 A 
ATOM      9  N   UNL     1       3.615   5.942  18.905  0.00  0.00    +0.000 NA
ENDROOT
BRANCH   8  10
ATOM     10  N   UNL     1       5.254   4.482  18.090  0.00  0.00    +0.000 N 
ATOM     11  C   UNL     1       5.178   4.337  16.643  0.00  0.00    +0.000 C 
BRANCH  10  12
ATOM     12  C   UNL     1       6.512   5.075  18.584  0.00  0.00    +0.000 C 
BRANCH  12  13
ATOM     13  C   UNL     1       7.226   5.758  17.425  0.00  0.00    +0.000 C 
BRANCH  13  14
ATOM     14  C   UNL     1       7.698   7.128  17.803  0.00  0.00    +0.000 C 
ATOM     15  O   UNL     1       7.511   8.161  17.178  0.00  0.00    +0.000 OA
BRANCH  14  16
ATOM     16  O   UNL     1       8.409   7.113  18.964  0.00  0.00    +0.000 OA
ATOM     17  H   UNL     1       7.928   6.699  19.701  0.00  0.00    +0.000 HD
ENDBRANCH  14  16
ENDBRANCH  13  14
ENDBRANCH  12  13
ENDBRANCH  10  12
ENDBRANCH   8  10
TORSDOF 5
ENDMDL
MODEL 3
REMARK VINA RESULT:      -5.9      2.057      3.323
REMARK  Name = 
REMARK  9 active torsions:
REMARK  status: ('A' for Active; 'I' for Inactive)
REMARK    1  A    between atoms: C_1  and  C_2
REMARK    2  A    between atoms: C_4  and  C_5
REMARK    3  A    between atoms: C_6  and  C_7
REMARK    4  A    between atoms: C_8  and  N_9
REMARK    5  A    between atoms: N_9  and  C_10
REMARK    6  A    between atoms: N_9  and  C_11
REMARK    7  A    between atoms: C_11  and  C_12
REMARK    8  A    between atoms: C_12  and  C_13
REMARK    9  A    between atoms: C_13  and  O_15
REMARK                            x       y       z     vdW  Elec       q    Type
REMARK                         _______ _______ _______ _____ _____    ______ ____
ROOT
ATOM      1  C   UNL     1       8.080   6.033  19.159  0.00  0.00    +0.000 C 
ATOM      2  C   UNL     1       6.914   5.364  18.502  0.00  0.00    +0.000 A 
ATOM      3  N   UNL     1       6.773   5.527  17.187  0.00  0.00    +0.000 NA
ATOM      4  C   UNL     1       5.696   4.947  16.617  0.00  0.00    +0.000 A 
ATOM      5  C   UNL     1       5.553   5.231  15.146  0.00  0.00    +0.000 C 
ATOM      6  C   UNL     1       4.764   4.194  17.335  0.00  0.00    +0.000 A 
ATOM      7  C   UNL     1       3.561   3.614  16.644  0.00  0.00    +0.000 C 
ATOM      8  C   UNL     1       4.990   4.068  18.711  0.00  0.00    +0.000 A 
ATOM      9  N   UNL     1       6.064   4.675  19.279  0.00  0.00    +0.000 NA
ENDROOT
BRANCH   8  10
ATOM     10  N   UNL     1       4.080   3.470  19.585  0.00  0.00    +0.000 N 
ATOM     11  C   UNL     1       4.371   2.216  20.266  0.00  0.00    +0.000 C 
BRANCH  10  12
ATOM     12  C   UNL     1       3.176   4.376  20.321  0.00  0.00    +0.000 C 
BRANCH  12  13
ATOM     13  C   UNL     1       1.775   4.260  19.736  0.00  0.00    +0.000 C 
BRANCH  13  14
ATOM     14  C   UNL     1       1.001   3.151  20.380  0.00  0.00    +0.000 C 
ATOM     15  O   UNL     1       1.144   2.729  21.517  0.00  0.00    +0.000 OA
BRANCH  14  16
ATOM     16  O   UNL     1       0.083   2.617  19.527  0.00  0.00    +0.000 OA
ATOM     17  H   UNL     1      -0.759   3.105  19.519  0.00  0.00    +0.000 HD
ENDBRANCH  14  16
ENDBRANCH  13  14
ENDBRANCH  12  13
ENDBRANCH  10  12
ENDBRANCH   8  10
TORSDOF 5
ENDMDL
MODEL 4
REMARK VINA RESULT:      -5.8      1.563      1.979
REMARK  Name = 
REMARK  9 active torsions:
REMARK  status: ('A' for Active; 'I' for Inactive)
REMARK    1  A    between atoms: C_1  and  C_2
REMARK    2  A    between atoms: C_4  and  C_5
REMARK    3  A    between atoms: C_6  and  C_7
REMARK    4  A    between atoms: C_8  and  N_9
REMARK    5  A    between atoms: N_9  and  C_10
REMARK    6  A    between atoms: N_9  and  C_11
REMARK    7  A    between atoms: C_11  and  C_12
REMARK    8  A    between atoms: C_12  and  C_13
REMARK    9  A    between atoms: C_13  and  O_15
REMARK                            x       y       z     vdW  Elec       q    Type
REMARK                         _______ _______ _______ _____ _____    ______ ____
ROOT
ATOM      1  C   UNL     1       6.688   4.456  13.817  0.00  0.00    +0.000 C 
ATOM      2  C   UNL     1       6.246   4.746  15.218  0.00  0.00    +0.000 A 
ATOM      3  N   UNL     1       7.030   5.526  15.959  0.00  0.00    +0.000 NA
ATOM      4  C   UNL     1       6.635   5.747  17.231  0.00  0.00    +0.000 A 
ATOM      5  C   UNL     1       7.599   6.573  18.038  0.00  0.00    +0.000 C 
ATOM      6  C   UNL     1       5.462   5.215  17.771  0.00  0.00    +0.000 A 
ATOM      7  C   UNL     1       5.104   5.463  19.210  0.00  0.00    +0.000 C 
ATOM      8  C   UNL     1       4.694   4.410  16.920  0.00  0.00    +0.000 A 
ATOM      9  N   UNL     1       5.112   4.173  15.650  0.00  0.00    +0.000 NA
ENDROOT
BRANCH   8  10
ATOM     10  N   UNL     1       3.574   3.693  17.350  0.00  0.00    +0.000 N 
ATOM     11  C   UNL     1       3.690   2.402  18.015  0.00  0.00    +0.000 C 
BRANCH  10  12
ATOM     12  C   UNL     1       2.393   4.485  17.745  0.00  0.00    +0.000 C 
BRANCH  12  13
ATOM     13  C   UNL     1       1.415   3.581  18.483  0.00  0.00    +0.000 C 
BRANCH  13  14
ATOM     14  C   UNL     1       1.243   4.007  19.909  0.00  0.00    +0.000 C 
ATOM     15  O   UNL     1       1.591   5.071  20.398  0.00  0.00    +0.000 OA
BRANCH  14  16
ATOM     16  O   UNL     1       0.643   3.038  20.654  0.00  0.00    +0.000 OA
ATOM     17  H   UNL     1       0.555   2.192  20.182  0.00  0.00    +0.000 HD
ENDBRANCH  14  16
ENDBRANCH  13  14
ENDBRANCH  12  13
ENDBRANCH  10  12
ENDBRANCH   8  10
TORSDOF 5
ENDMDL
MODEL 5
REMARK VINA RESULT:      -5.8      3.160      5.247
REMARK  Name = 
REMARK  9 active torsions:
REMARK  status: ('A' for Active; 'I' for Inactive)
REMARK    1  A    between atoms: C_1  and  C_2
REMARK    2  A    between atoms: C_4  and  C_5
REMARK    3  A    between atoms: C_6  and  C_7
REMARK    4  A    between atoms: C_8  and  N_9
REMARK    5  A    between atoms: N_9  and  C_10
REMARK    6  A    between atoms: N_9  and  C_11
REMARK    7  A    between atoms: C_11  and  C_12
REMARK    8  A    between atoms: C_12  and  C_13
REMARK    9  A    between atoms: C_13  and  O_15
REMARK                            x       y       z     vdW  Elec       q    Type
REMARK                         _______ _______ _______ _____ _____    ______ ____
ROOT
ATOM      1  C   UNL     1       4.211   2.259  20.388  0.00  0.00    +0.000 C 
ATOM      2  C   UNL     1       4.297   3.530  19.603  0.00  0.00    +0.000 A 
ATOM      3  N   UNL     1       3.154   4.144  19.301  0.00  0.00    +0.000 NA
ATOM      4  C   UNL     1       3.248   5.269  18.562  0.00  0.00    +0.000 A 
ATOM      5  C   UNL     1       1.921   5.873  18.192  0.00  0.00    +0.000 C 
ATOM      6  C   UNL     1       4.466   5.802  18.132  0.00  0.00    +0.000 A 
ATOM      7  C   UNL     1       4.496   7.035  17.272  0.00  0.00    +0.000 C 
ATOM      8  C   UNL     1       5.619   5.097  18.499  0.00  0.00    +0.000 A 
ATOM      9  N   UNL     1       5.512   3.952  19.222  0.00  0.00    +0.000 NA
ENDROOT
BRANCH   8  10
ATOM     10  N   UNL     1       6.895   5.419  18.030  0.00  0.00    +0.000 N 
ATOM     11  C   UNL     1       7.851   6.161  18.839  0.00  0.00    +0.000 C 
BRANCH  10  12
ATOM     12  C   UNL     1       7.500   4.483  17.062  0.00  0.00    +0.000 C 
BRANCH  12  13
ATOM     13  C   UNL     1       6.485   4.174  15.971  0.00  0.00    +0.000 C 
BRANCH  13  14
ATOM     14  C   UNL     1       6.941   4.679  14.637  0.00  0.00    +0.000 C 
ATOM     15  O   UNL     1       7.787   5.537  14.434  0.00  0.00    +0.000 OA
BRANCH  14  16
ATOM     16  O   UNL     1       6.278   4.071  13.615  0.00  0.00    +0.000 OA
ATOM     17  H   UNL     1       5.329   4.286  13.594  0.00  0.00    +0.000 HD
ENDBRANCH  14  16
ENDBRANCH  13  14
ENDBRANCH  12  13
ENDBRANCH  10  12
ENDBRANCH   8  10
TORSDOF 5
ENDMDL
MODEL 6
REMARK VINA RESULT:      -5.7      3.114      5.486
REMARK  Name = 
REMARK  9 active torsions:
REMARK  status: ('A' for Active; 'I' for Inactive)
REMARK    1  A    between atoms: C_1  and  C_2
REMARK    2  A    between atoms: C_4  and  C_5
REMARK    3  A    between atoms: C_6  and  C_7
REMARK    4  A    between atoms: C_8  and  N_9
REMARK    5  A    between atoms: N_9  and  C_10
REMARK    6  A    between atoms: N_9  and  C_11
REMARK    7  A    between atoms: C_11  and  C_12
REMARK    8  A    between atoms: C_12  and  C_13
REMARK    9  A    between atoms: C_13  and  O_15
REMARK                            x       y       z     vdW  Elec       q    Type
REMARK                         _______ _______ _______ _____ _____    ______ ____
ROOT
ATOM      1  C   UNL     1       5.018   1.447  20.808  0.00  0.00    +0.000 C 
ATOM      2  C   UNL     1       4.291   2.578  20.152  0.00  0.00    +0.000 A 
ATOM      3  N   UNL     1       3.003   2.736  20.452  0.00  0.00    +0.000 NA
ATOM      4  C   UNL     1       2.354   3.739  19.824  0.00  0.00    +0.000 A 
ATOM      5  C   UNL     1       0.887   3.818  20.148  0.00  0.00    +0.000 C 
ATOM      6  C   UNL     1       2.973   4.597  18.911  0.00  0.00    +0.000 A 
ATOM      7  C   UNL     1       2.179   5.666  18.212  0.00  0.00    +0.000 C 
ATOM      8  C   UNL     1       4.330   4.364  18.658  0.00  0.00    +0.000 A 
ATOM      9  N   UNL     1       4.969   3.337  19.277  0.00  0.00    +0.000 NA
ENDROOT
BRANCH   8  10
ATOM     10  N   UNL     1       5.052   5.041  17.672  0.00  0.00    +0.000 N 
ATOM     11  C   UNL     1       6.204   5.871  17.990  0.00  0.00    +0.000 C 
BRANCH  10  12
ATOM     12  C   UNL     1       5.093   4.414  16.335  0.00  0.00    +0.000 C 
BRANCH  12  13
ATOM     13  C   UNL     1       6.546   4.170  15.949  0.00  0.00    +0.000 C 
BRANCH  13  14
ATOM     14  C   UNL     1       6.795   4.505  14.511  0.00  0.00    +0.000 C 
ATOM     15  O   UNL     1       6.253   3.998  13.541  0.00  0.00    +0.000 OA
BRANCH  14  16
ATOM     16  O   UNL     1       7.746   5.471  14.376  0.00  0.00    +0.000 OA
ATOM     17  H   UNL     1       8.626   5.113  14.166  0.00  0.00    +0.000 HD
ENDBRANCH  14  16
ENDBRANCH  13  14
ENDBRANCH  12  13
ENDBRANCH  10  12
ENDBRANCH   8  10
TORSDOF 5
ENDMDL
MODEL 7
REMARK VINA RESULT:      -5.7      2.250      3.254
REMARK  Name = 
REMARK  9 active torsions:
REMARK  status: ('A' for Active; 'I' for Inactive)
REMARK    1  A    between atoms: C_1  and  C_2
REMARK    2  A    between atoms: C_4  and  C_5
REMARK    3  A    between atoms: C_6  and  C_7
REMARK    4  A    between atoms: C_8  and  N_9
REMARK    5  A    between atoms: N_9  and  C_10
REMARK    6  A    between atoms: N_9  and  C_11
REMARK    7  A    between atoms: C_11  and  C_12
REMARK    8  A    between atoms: C_12  and  C_13
REMARK    9  A    between atoms: C_13  and  O_15
REMARK                            x       y       z     vdW  Elec       q    Type
REMARK                         _______ _______ _______ _____ _____    ______ ____
ROOT
ATOM      1  C   UNL     1       8.357   5.772  19.651  0.00  0.00    +0.000 C 
ATOM      2  C   UNL     1       7.164   5.244  18.917  0.00  0.00    +0.000 A 
ATOM      3  N   UNL     1       7.319   4.944  17.629  0.00  0.00    +0.000 NA
ATOM      4  C   UNL     1       6.224   4.504  16.974  0.00  0.00    +0.000 A 
ATOM      5  C   UNL     1       6.446   4.254  15.507  0.00  0.00    +0.000 C 
ATOM      6  C   UNL     1       4.979   4.343  17.587  0.00  0.00    +0.000 A 
ATOM      7  C   UNL     1       3.789   3.892  16.787  0.00  0.00    +0.000 C 
ATOM      8  C   UNL     1       4.906   4.677  18.945  0.00  0.00    +0.000 A 
ATOM      9  N   UNL     1       6.007   5.142  19.589  0.00  0.00    +0.000 NA
ENDROOT
BRANCH   8  10
ATOM     10  N   UNL     1       3.707   4.706  19.661  0.00  0.00    +0.000 N 
ATOM     11  C   UNL     1       2.704   5.740  19.448  0.00  0.00    +0.000 C 
BRANCH  10  12
ATOM     12  C   UNL     1       3.167   3.405  20.102  0.00  0.00    +0.000 C 
BRANCH  12  13
ATOM     13  C   UNL     1       1.665   3.383  19.854  0.00  0.00    +0.000 C 
BRANCH  13  14
ATOM     14  C   UNL     1       1.275   2.256  18.948  0.00  0.00    +0.000 C 
ATOM     15  O   UNL     1       0.180   2.080  18.434  0.00  0.00    +0.000 OA
BRANCH  14  16
ATOM     16  O   UNL     1       2.306   1.389  18.751  0.00  0.00    +0.000 OA
ATOM     17  H   UNL     1       3.095   1.607  19.278  0.00  0.00    +0.000 HD
ENDBRANCH  14  16
ENDBRANCH  13  14
ENDBRANCH  12  13
ENDBRANCH  10  12
ENDBRANCH   8  10
TORSDOF 5
ENDMDL
MODEL 8
REMARK VINA RESULT:      -5.7      1.060      1.407
REMARK  Name = 
REMARK  9 active torsions:
REMARK  status: ('A' for Active; 'I' for Inactive)
REMARK    1  A    between atoms: C_1  and  C_2
REMARK    2  A    between atoms: C_4  and  C_5
REMARK    3  A    between atoms: C_6  and  C_7
REMARK    4  A    between atoms: C_8  and  N_9
REMARK    5  A    between atoms: N_9  and  C_10
REMARK    6  A    between atoms: N_9  and  C_11
REMARK    7  A    between atoms: C_11  and  C_12
REMARK    8  A    between atoms: C_12  and  C_13
REMARK    9  A    between atoms: C_13  and  O_15
REMARK                            x       y       z     vdW  Elec       q    Type
REMARK                         _______ _______ _______ _____ _____    ______ ____
ROOT
ATOM      1  C   UNL     1       6.075   3.900  14.205  0.00  0.00    +0.000 C 
ATOM      2  C   UNL     1       5.747   4.296  15.610  0.00  0.00    +0.000 A 
ATOM      3  N   UNL     1       6.690   4.928  16.306  0.00  0.00    +0.000 NA
ATOM      4  C   UNL     1       6.390   5.245  17.583  0.00  0.00    +0.000 A 
ATOM      5  C   UNL     1       7.522   5.890  18.337  0.00  0.00    +0.000 C 
ATOM      6  C   UNL     1       5.158   4.955  18.174  0.00  0.00    +0.000 A 
ATOM      7  C   UNL     1       4.907   5.296  19.617  0.00  0.00    +0.000 C 
ATOM      8  C   UNL     1       4.222   4.293  17.370  0.00  0.00    +0.000 A 
ATOM      9  N   UNL     1       4.542   3.957  16.094  0.00  0.00    +0.000 NA
ENDROOT
BRANCH   8  10
ATOM     10  N   UNL     1       3.004   3.810  17.854  0.00  0.00    +0.000 N 
ATOM     11  C   UNL     1       1.733   4.427  17.502  0.00  0.00    +0.000 C 
BRANCH  10  12
ATOM     12  C   UNL     1       2.931   2.362  18.132  0.00  0.00    +0.000 C 
BRANCH  12  13
ATOM     13  C   UNL     1       1.732   2.091  19.031  0.00  0.00    +0.000 C 
BRANCH  13  14
ATOM     14  C   UNL     1       1.978   2.564  20.431  0.00  0.00    +0.000 C 
ATOM     15  O   UNL     1       3.049   2.571  21.019  0.00  0.00    +0.000 OA
BRANCH  14  16
ATOM     16  O   UNL     1       0.831   2.995  21.025  0.00  0.00    +0.000 OA
ATOM     17  H   UNL     1       0.583   2.467  21.804  0.00  0.00    +0.000 HD
ENDBRANCH  14  16
ENDBRANCH  13  14
ENDBRANCH  12  13
ENDBRANCH  10  12
ENDBRANCH   8  10
TORSDOF 5
ENDMDL
MODEL 9
REMARK VINA RESULT:      -5.7      1.575      2.830
REMARK  Name = 
REMARK  9 active torsions:
REMARK  status: ('A' for Active; 'I' for Inactive)
REMARK    1  A    between atoms: C_1  and  C_2
REMARK    2  A    between atoms: C_4  and  C_5
REMARK    3  A    between atoms: C_6  and  C_7
REMARK    4  A    between atoms: C_8  and  N_9
REMARK    5  A    between atoms: N_9  and  C_10
REMARK    6  A    between atoms: N_9  and  C_11
REMARK    7  A    between atoms: C_11  and  C_12
REMARK    8  A    between atoms: C_12  and  C_13
REMARK    9  A    between atoms: C_13  and  O_15
REMARK                            x       y       z     vdW  Elec       q    Type
REMARK                         _______ _______ _______ _____ _____    ______ ____
ROOT
ATOM      1  C   UNL     1       7.831   7.637  17.720  0.00  0.00    +0.000 C 
ATOM      2  C   UNL     1       6.930   6.490  17.386  0.00  0.00    +0.000 A 
ATOM      3  N   UNL     1       7.121   5.879  16.218  0.00  0.00    +0.000 NA
ATOM      4  C   UNL     1       6.276   4.870  15.917  0.00  0.00    +0.000 A 
ATOM      5  C   UNL     1       6.497   4.271  14.555  0.00  0.00    +0.000 C 
ATOM      6  C   UNL     1       5.252   4.450  16.769  0.00  0.00    +0.000 A 
ATOM      7  C   UNL     1       4.317   3.350  16.351  0.00  0.00    +0.000 C 
ATOM      8  C   UNL     1       5.124   5.144  17.979  0.00  0.00    +0.000 A 
ATOM      9  N   UNL     1       5.964   6.173  18.262  0.00  0.00    +0.000 NA
ENDROOT
BRANCH   8  10
ATOM     10  N   UNL     1       4.068   4.940  18.870  0.00  0.00    +0.000 N 
ATOM     11  C   UNL     1       2.747   5.512  18.647  0.00  0.00    +0.000 C 
BRANCH  10  12
ATOM     12  C   UNL     1       4.070   3.668  19.619  0.00  0.00    +0.000 C 
BRANCH  12  13
ATOM     13  C   UNL     1       2.664   3.085  19.607  0.00  0.00    +0.000 C 
BRANCH  13  14
ATOM     14  C   UNL     1       2.157   2.846  20.996  0.00  0.00    +0.000 C 
ATOM     15  O   UNL     1       2.814   2.480  21.958  0.00  0.00    +0.000 OA
BRANCH  14  16
ATOM     16  O   UNL     1       0.817   3.074  21.088  0.00  0.00    +0.000 OA
ATOM     17  H   UNL     1       0.297   2.258  21.193  0.00  0.00    +0.000 HD
ENDBRANCH  14  16
ENDBRANCH  13  14
ENDBRANCH  12  13
ENDBRANCH  10  12
ENDBRANCH   8  10
TORSDOF 5
ENDMDL
