MODEL 1
REMARK VINA RESULT:      -9.2      0.000      0.000
REMARK  Name = 
REMARK  3 active torsions:
REMARK  status: ('A' for Active; 'I' for Inactive)
REMARK    1  A    between atoms: C_4  and  C_5
REMARK    2  A    between atoms: C_5  and  N_6
REMARK    3  A    between atoms: C_8  and  C_9
REMARK                            x       y       z     vdW  Elec       q    Type
REMARK                         _______ _______ _______ _____ _____    ______ ____
ROOT
ATOM      1  C   UNL     1       2.056   6.674  19.944  0.00  0.00    +0.000 A 
ATOM      2  C   UNL     1       1.807   5.701  20.923  0.00  0.00    +0.000 A 
ATOM      3  C   UNL     1       2.360   4.407  20.837  0.00  0.00    +0.000 A 
ATOM      4  C   UNL     1       3.207   4.142  19.752  0.00  0.00    +0.000 A 
ATOM      5  N   UNL     1       3.908   3.035  19.354  0.00  0.00    +0.000 N 
ATOM      6  N   UNL     1       4.649   3.210  18.239  0.00  0.00    +0.000 NA
ATOM      7  C   UNL     1       4.456   4.494  17.923  0.00  0.00    +0.000 A 
ATOM      8  N   UNL     1       5.052   5.191  16.922  0.00  0.00    +0.000 N 
ATOM      9  C   UNL     1       5.503   4.551  15.687  0.00  0.00    +0.000 C 
ATOM     10  C   UNL     1       7.031   4.621  15.542  0.00  0.00    +0.000 C 
ATOM     11  O   UNL     1       7.543   5.952  15.737  0.00  0.00    +0.000 OA
ATOM     12  C   UNL     1       7.179   6.428  17.040  0.00  0.00    +0.000 C 
ATOM     13  C   UNL     1       5.656   6.507  17.184  0.00  0.00    +0.000 C 
ATOM     14  C   UNL     1       3.501   5.093  18.791  0.00  0.00    +0.000 A 
ATOM     15  C   UNL     1       2.879   6.348  18.861  0.00  0.00    +0.000 A 
ATOM     16  H   UNL     1       3.931   2.126  19.798  0.00  0.00    +0.000 HD
ENDROOT
BRANCH   1  19
ATOM     17  N   UNL     1       0.893  10.041  19.609  0.00  0.00    +0.000 N 
ATOM     18  C   UNL     1       1.386   8.932  18.981  0.00  0.00    +0.000 A 
ATOM     19  C   UNL     1       1.570   8.037  20.007  0.00  0.00    +0.000 A 
ATOM     20  N   UNL     1       1.198   8.628  21.192  0.00  0.00    +0.000 NA
ATOM     21  N   UNL     1       0.774   9.853  20.934  0.00  0.00    +0.000 NA
BRANCH  17  22
ATOM     22  C   UNL     1       0.392  11.265  19.012  0.00  0.00    +0.000 C 
BRANCH  22  26
ATOM     23  C   UNL     1      -3.741  10.857  17.848  0.00  0.00    +0.000 A 
ATOM     24  C   UNL     1      -2.767  10.041  17.277  0.00  0.00    +0.000 A 
ATOM     25  C   UNL     1      -1.429  10.186  17.646  0.00  0.00    +0.000 A 
ATOM     26  C   UNL     1      -1.051  11.150  18.589  0.00  0.00    +0.000 A 
ATOM     27  C   UNL     1      -2.040  11.967  19.160  0.00  0.00    +0.000 A 
ATOM     28  C   UNL     1      -3.378  11.822  18.787  0.00  0.00    +0.000 A 
ENDBRANCH  22  26
ENDBRANCH  17  22
ENDBRANCH   1  19
TORSDOF 3
ENDMDL
MODEL 2
REMARK VINA RESULT:      -9.2      0.402      1.011
REMARK  Name = 
REMARK  3 active torsions:
REMARK  status: ('A' for Active; 'I' for Inactive)
REMARK    1  A    between atoms: C_4  and  C_5
REMARK    2  A    between atoms: C_5  and  N_6
REMARK    3  A    between atoms: C_8  and  C_9
REMARK                            x       y       z     vdW  Elec       q    Type
REMARK                         _______ _______ _______ _____ _____    ______ ____
ROOT
ATOM      1  C   UNL     1       2.097   6.404  19.922  0.00  0.00    +0.000 A 
ATOM      2  C   UNL     1       1.817   5.351  20.805  0.00  0.00    +0.000 A 
ATOM      3  C   UNL     1       2.315   4.050  20.587  0.00  0.00    +0.000 A 
ATOM      4  C   UNL     1       3.141   3.858  19.471  0.00  0.00    +0.000 A 
ATOM      5  N   UNL     1       3.792   2.769  18.958  0.00  0.00    +0.000 N 
ATOM      6  N   UNL     1       4.530   3.022  17.855  0.00  0.00    +0.000 NA
ATOM      7  C   UNL     1       4.387   4.337  17.668  0.00  0.00    +0.000 A 
ATOM      8  N   UNL     1       5.002   5.103  16.732  0.00  0.00    +0.000 N 
ATOM      9  C   UNL     1       5.415   4.570  15.435  0.00  0.00    +0.000 C 
ATOM     10  C   UNL     1       6.943   4.592  15.277  0.00  0.00    +0.000 C 
ATOM     11  O   UNL     1       7.512   5.877  15.593  0.00  0.00    +0.000 OA
ATOM     12  C   UNL     1       7.178   6.238  16.942  0.00  0.00    +0.000 C 
ATOM     13  C   UNL     1       5.661   6.363  17.112  0.00  0.00    +0.000 C 
ATOM     14  C   UNL     1       3.465   4.886  18.602  0.00  0.00    +0.000 A 
ATOM     15  C   UNL     1       2.895   6.153  18.802  0.00  0.00    +0.000 A 
ATOM     16  H   UNL     1       3.782   1.821  19.312  0.00  0.00    +0.000 HD
ENDROOT
BRANCH   1  19
ATOM     17  N   UNL     1       1.093   9.838  19.933  0.00  0.00    +0.000 N 
ATOM     18  C   UNL     1       1.561   8.784  19.199  0.00  0.00    +0.000 A 
ATOM     19  C   UNL     1       1.668   7.772  20.123  0.00  0.00    +0.000 A 
ATOM     20  N   UNL     1       1.277   8.244  21.354  0.00  0.00    +0.000 NA
ATOM     21  N   UNL     1       0.916   9.509  21.223  0.00  0.00    +0.000 NA
BRANCH  17  22
ATOM     22  C   UNL     1       0.667  11.143  19.462  0.00  0.00    +0.000 C 
BRANCH  22  26
ATOM     23  C   UNL     1      -3.446  11.261  18.173  0.00  0.00    +0.000 A 
ATOM     24  C   UNL     1      -3.014  12.076  19.217  0.00  0.00    +0.000 A 
ATOM     25  C   UNL     1      -1.686  12.025  19.640  0.00  0.00    +0.000 A 
ATOM     26  C   UNL     1      -0.775  11.155  19.025  0.00  0.00    +0.000 A 
ATOM     27  C   UNL     1      -1.221  10.339  17.973  0.00  0.00    +0.000 A 
ATOM     28  C   UNL     1      -2.552  10.391  17.553  0.00  0.00    +0.000 A 
ENDBRANCH  22  26
ENDBRANCH  17  22
ENDBRANCH   1  19
TORSDOF 3
ENDMDL
MODEL 3
REMARK VINA RESULT:      -8.8      1.673      2.187
REMARK  Name = 
REMARK  3 active torsions:
REMARK  status: ('A' for Active; 'I' for Inactive)
REMARK    1  A    between atoms: C_4  and  C_5
REMARK    2  A    between atoms: C_5  and  N_6
REMARK    3  A    between atoms: C_8  and  C_9
REMARK                            x       y       z     vdW  Elec       q    Type
REMARK                         _______ _______ _______ _____ _____    ______ ____
ROOT
ATOM      1  C   UNL     1       1.933   7.174  19.822  0.00  0.00    +0.000 A 
ATOM      2  C   UNL     1       1.587   6.245  20.814  0.00  0.00    +0.000 A 
ATOM      3  C   UNL     1       2.062   4.918  20.783  0.00  0.00    +0.000 A 
ATOM      4  C   UNL     1       2.932   4.572  19.741  0.00  0.00    +0.000 A 
ATOM      5  N   UNL     1       3.579   3.415  19.399  0.00  0.00    +0.000 N 
ATOM      6  N   UNL     1       4.371   3.514  18.310  0.00  0.00    +0.000 NA
ATOM      7  C   UNL     1       4.271   4.798  17.955  0.00  0.00    +0.000 A 
ATOM      8  N   UNL     1       4.946   5.429  16.961  0.00  0.00    +0.000 N 
ATOM      9  C   UNL     1       5.404   4.730  15.762  0.00  0.00    +0.000 C 
ATOM     10  C   UNL     1       6.938   4.704  15.676  0.00  0.00    +0.000 C 
ATOM     11  O   UNL     1       7.523   6.006  15.858  0.00  0.00    +0.000 OA
ATOM     12  C   UNL     1       7.138   6.539  17.133  0.00  0.00    +0.000 C 
ATOM     13  C   UNL     1       5.619   6.714  17.214  0.00  0.00    +0.000 C 
ATOM     14  C   UNL     1       3.321   5.477  18.768  0.00  0.00    +0.000 A 
ATOM     15  C   UNL     1       2.775   6.770  18.782  0.00  0.00    +0.000 A 
ATOM     16  H   UNL     1       3.529   2.519  19.867  0.00  0.00    +0.000 HD
ENDROOT
BRANCH   1  19
ATOM     17  N   UNL     1       0.970  10.582  20.334  0.00  0.00    +0.000 N 
ATOM     18  C   UNL     1       1.296   9.386  20.908  0.00  0.00    +0.000 A 
ATOM     19  C   UNL     1       1.529   8.565  19.831  0.00  0.00    +0.000 A 
ATOM     20  N   UNL     1       1.331   9.277  18.671  0.00  0.00    +0.000 NA
ATOM     21  N   UNL     1       0.999  10.516  18.993  0.00  0.00    +0.000 NA
BRANCH  17  22
ATOM     22  C   UNL     1       0.746  11.860  20.983  0.00  0.00    +0.000 C 
BRANCH  22  26
ATOM     23  C   UNL     1      -3.322  12.452  22.285  0.00  0.00    +0.000 A 
ATOM     24  C   UNL     1      -2.377  11.914  23.156  0.00  0.00    +0.000 A 
ATOM     25  C   UNL     1      -1.066  11.711  22.727  0.00  0.00    +0.000 A 
ATOM     26  C   UNL     1      -0.685  12.042  21.419  0.00  0.00    +0.000 A 
ATOM     27  C   UNL     1      -1.644  12.585  20.550  0.00  0.00    +0.000 A 
ATOM     28  C   UNL     1      -2.957  12.785  20.981  0.00  0.00    +0.000 A 
ENDBRANCH  22  26
ENDBRANCH  17  22
ENDBRANCH   1  19
TORSDOF 3
ENDMDL
MODEL 4
REMARK VINA RESULT:      -8.7      1.677      2.961
REMARK  Name = 
REMARK  3 active torsions:
REMARK  status: ('A' for Active; 'I' for Inactive)
REMARK    1  A    between atoms: C_4  and  C_5
REMARK    2  A    between atoms: C_5  and  N_6
REMARK    3  A    between atoms: C_8  and  C_9
REMARK                            x       y       z     vdW  Elec       q    Type
REMARK                         _______ _______ _______ _____ _____    ______ ____
ROOT
ATOM      1  C   UNL     1       1.973   6.732  20.003  0.00  0.00    +0.000 A 
ATOM      2  C   UNL     1       1.636   5.660  20.841  0.00  0.00    +0.000 A 
ATOM      3  C   UNL     1       2.113   4.355  20.602  0.00  0.00    +0.000 A 
ATOM      4  C   UNL     1       2.976   4.177  19.512  0.00  0.00    +0.000 A 
ATOM      5  N   UNL     1       3.622   3.089  18.991  0.00  0.00    +0.000 N 
ATOM      6  N   UNL     1       4.407   3.357  17.925  0.00  0.00    +0.000 NA
ATOM      7  C   UNL     1       4.301   4.680  17.773  0.00  0.00    +0.000 A 
ATOM      8  N   UNL     1       4.968   5.460  16.885  0.00  0.00    +0.000 N 
ATOM      9  C   UNL     1       5.419   4.956  15.588  0.00  0.00    +0.000 C 
ATOM     10  C   UNL     1       6.951   4.947  15.489  0.00  0.00    +0.000 C 
ATOM     11  O   UNL     1       7.536   6.208  15.866  0.00  0.00    +0.000 OA
ATOM     12  C   UNL     1       7.160   6.536  17.211  0.00  0.00    +0.000 C 
ATOM     13  C   UNL     1       5.641   6.691  17.328  0.00  0.00    +0.000 C 
ATOM     14  C   UNL     1       3.356   5.222  18.689  0.00  0.00    +0.000 A 
ATOM     15  C   UNL     1       2.808   6.496  18.906  0.00  0.00    +0.000 A 
ATOM     16  H   UNL     1       3.577   2.131  19.315  0.00  0.00    +0.000 HD
ENDROOT
BRANCH   1  19
ATOM     17  N   UNL     1       0.947  10.159  20.073  0.00  0.00    +0.000 N 
ATOM     18  C   UNL     1       1.301   9.086  19.306  0.00  0.00    +0.000 A 
ATOM     19  C   UNL     1       1.567   8.103  20.229  0.00  0.00    +0.000 A 
ATOM     20  N   UNL     1       1.375   8.611  21.493  0.00  0.00    +0.000 NA
ATOM     21  N   UNL     1       0.984   9.869  21.384  0.00  0.00    +0.000 NA
BRANCH  17  22
ATOM     22  C   UNL     1       0.437  11.446  19.639  0.00  0.00    +0.000 C 
BRANCH  22  26
ATOM     23  C   UNL     1       3.591  14.375  19.377  0.00  0.00    +0.000 A 
ATOM     24  C   UNL     1       2.907  14.184  20.577  0.00  0.00    +0.000 A 
ATOM     25  C   UNL     1       1.878  13.246  20.653  0.00  0.00    +0.000 A 
ATOM     26  C   UNL     1       1.520  12.488  19.530  0.00  0.00    +0.000 A 
ATOM     27  C   UNL     1       2.216  12.687  18.327  0.00  0.00    +0.000 A 
ATOM     28  C   UNL     1       3.243  13.629  18.252  0.00  0.00    +0.000 A 
ENDBRANCH  22  26
ENDBRANCH  17  22
ENDBRANCH   1  19
TORSDOF 3
ENDMDL
MODEL 5
REMARK VINA RESULT:      -8.7      4.818      8.173
REMARK  Name = 
REMARK  3 active torsions:
REMARK  status: ('A' for Active; 'I' for Inactive)
REMARK    1  A    between atoms: C_4  and  C_5
REMARK    2  A    between atoms: C_5  and  N_6
REMARK    3  A    between atoms: C_8  and  C_9
REMARK                            x       y       z     vdW  Elec       q    Type
REMARK                         _______ _______ _______ _____ _____    ______ ____
ROOT
ATOM      1  C   UNL     1       6.856   5.992  17.297  0.00  0.00    +0.000 A 
ATOM      2  C   UNL     1       6.987   5.444  16.013  0.00  0.00    +0.000 A 
ATOM      3  C   UNL     1       6.294   4.277  15.632  0.00  0.00    +0.000 A 
ATOM      4  C   UNL     1       5.431   3.706  16.577  0.00  0.00    +0.000 A 
ATOM      5  N   UNL     1       4.614   2.608  16.563  0.00  0.00    +0.000 N 
ATOM      6  N   UNL     1       3.906   2.419  17.697  0.00  0.00    +0.000 NA
ATOM      7  C   UNL     1       4.243   3.460  18.463  0.00  0.00    +0.000 A 
ATOM      8  N   UNL     1       3.736   3.779  19.681  0.00  0.00    +0.000 N 
ATOM      9  C   UNL     1       3.226   2.767  20.605  0.00  0.00    +0.000 C 
ATOM     10  C   UNL     1       1.717   2.930  20.841  0.00  0.00    +0.000 C 
ATOM     11  O   UNL     1       1.355   4.279  21.189  0.00  0.00    +0.000 OA
ATOM     12  C   UNL     1       1.761   5.176  20.144  0.00  0.00    +0.000 C 
ATOM     13  C   UNL     1       3.281   5.150  19.966  0.00  0.00    +0.000 C 
ATOM     14  C   UNL     1       5.252   4.244  17.839  0.00  0.00    +0.000 A 
ATOM     15  C   UNL     1       6.010   5.363  18.217  0.00  0.00    +0.000 A 
ATOM     16  H   UNL     1       4.486   1.943  15.810  0.00  0.00    +0.000 HD
ENDROOT
BRANCH   1  19
ATOM     17  N   UNL     1       8.143   9.249  18.028  0.00  0.00    +0.000 N 
ATOM     18  C   UNL     1       7.321   8.493  17.241  0.00  0.00    +0.000 A 
ATOM     19  C   UNL     1       7.491   7.219  17.729  0.00  0.00    +0.000 A 
ATOM     20  N   UNL     1       8.395   7.251  18.765  0.00  0.00    +0.000 NA
ATOM     21  N   UNL     1       8.780   8.503  18.946  0.00  0.00    +0.000 NA
BRANCH  17  22
ATOM     22  C   UNL     1       8.280  10.693  18.059  0.00  0.00    +0.000 C 
BRANCH  22  26
ATOM     23  C   UNL     1      11.994  12.040  19.788  0.00  0.00    +0.000 A 
ATOM     24  C   UNL     1      11.912  11.768  18.424  0.00  0.00    +0.000 A 
ATOM     25  C   UNL     1      10.714  11.319  17.871  0.00  0.00    +0.000 A 
ATOM     26  C   UNL     1       9.582  11.135  18.677  0.00  0.00    +0.000 A 
ATOM     27  C   UNL     1       9.674  11.414  20.050  0.00  0.00    +0.000 A 
ATOM     28  C   UNL     1      10.876  11.860  20.602  0.00  0.00    +0.000 A 
ENDBRANCH  22  26
ENDBRANCH  17  22
ENDBRANCH   1  19
TORSDOF 3
ENDMDL
MODEL 6
REMARK VINA RESULT:      -8.6      1.070      1.296
REMARK  Name = 
REMARK  3 active torsions:
REMARK  status: ('A' for Active; 'I' for Inactive)
REMARK    1  A    between atoms: C_4  and  C_5
REMARK    2  A    between atoms: C_5  and  N_6
REMARK    3  A    between atoms: C_8  and  C_9
REMARK                            x       y       z     vdW  Elec       q    Type
REMARK                         _______ _______ _______ _____ _____    ______ ____
ROOT
ATOM      1  C   UNL     1       1.895   7.602  19.384  0.00  0.00    +0.000 A 
ATOM      2  C   UNL     1       1.519   6.850  20.506  0.00  0.00    +0.000 A 
ATOM      3  C   UNL     1       1.988   5.535  20.707  0.00  0.00    +0.000 A 
ATOM      4  C   UNL     1       2.883   5.021  19.759  0.00  0.00    +0.000 A 
ATOM      5  N   UNL     1       3.532   3.823  19.630  0.00  0.00    +0.000 N 
ATOM      6  N   UNL     1       4.352   3.740  18.561  0.00  0.00    +0.000 NA
ATOM      7  C   UNL     1       4.267   4.948  17.996  0.00  0.00    +0.000 A 
ATOM      8  N   UNL     1       4.971   5.406  16.930  0.00  0.00    +0.000 N 
ATOM      9  C   UNL     1       5.456   4.518  15.875  0.00  0.00    +0.000 C 
ATOM     10  C   UNL     1       6.991   4.476  15.835  0.00  0.00    +0.000 C 
ATOM     11  O   UNL     1       7.579   5.790  15.814  0.00  0.00    +0.000 OA
ATOM     12  C   UNL     1       7.164   6.526  16.974  0.00  0.00    +0.000 C 
ATOM     13  C   UNL     1       5.644   6.713  16.984  0.00  0.00    +0.000 C 
ATOM     14  C   UNL     1       3.301   5.753  18.661  0.00  0.00    +0.000 A 
ATOM     15  C   UNL     1       2.761   7.030  18.447  0.00  0.00    +0.000 A 
ATOM     16  H   UNL     1       3.465   3.017  20.238  0.00  0.00    +0.000 HD
ENDROOT
BRANCH   1  19
ATOM     17  N   UNL     1       0.599  10.931  19.183  0.00  0.00    +0.000 N 
ATOM     18  C   UNL     1       0.517   9.705  19.780  0.00  0.00    +0.000 A 
ATOM     19  C   UNL     1       1.499   8.975  19.153  0.00  0.00    +0.000 A 
ATOM     20  N   UNL     1       2.117   9.768  18.214  0.00  0.00    +0.000 NA
ATOM     21  N   UNL     1       1.564  10.968  18.249  0.00  0.00    +0.000 NA
BRANCH  17  22
ATOM     22  C   UNL     1      -0.110  12.149  19.529  0.00  0.00    +0.000 C 
BRANCH  22  26
ATOM     23  C   UNL     1      -4.305  11.850  18.578  0.00  0.00    +0.000 A 
ATOM     24  C   UNL     1      -3.345  11.449  17.651  0.00  0.00    +0.000 A 
ATOM     25  C   UNL     1      -1.989  11.561  17.957  0.00  0.00    +0.000 A 
ATOM     26  C   UNL     1      -1.578  12.076  19.194  0.00  0.00    +0.000 A 
ATOM     27  C   UNL     1      -2.553  12.475  20.121  0.00  0.00    +0.000 A 
ATOM     28  C   UNL     1      -3.910  12.365  19.812  0.00  0.00    +0.000 A 
ENDBRANCH  22  26
ENDBRANCH  17  22
ENDBRANCH   1  19
TORSDOF 3
ENDMDL
MODEL 7
REMARK VINA RESULT:      -8.6      0.967      1.584
REMARK  Name = 
REMARK  3 active torsions:
REMARK  status: ('A' for Active; 'I' for Inactive)
REMARK    1  A    between atoms: C_4  and  C_5
REMARK    2  A    between atoms: C_5  and  N_6
REMARK    3  A    between atoms: C_8  and  C_9
REMARK                            x       y       z     vdW  Elec       q    Type
REMARK                         _______ _______ _______ _____ _____    ______ ____
ROOT
ATOM      1  C   UNL     1       1.957   7.307  19.525  0.00  0.00    +0.000 A 
ATOM      2  C   UNL     1       1.617   6.483  20.608  0.00  0.00    +0.000 A 
ATOM      3  C   UNL     1       2.103   5.164  20.717  0.00  0.00    +0.000 A 
ATOM      4  C   UNL     1       2.979   4.720  19.717  0.00  0.00    +0.000 A 
ATOM      5  N   UNL     1       3.637   3.539  19.499  0.00  0.00    +0.000 N 
ATOM      6  N   UNL     1       4.432   3.531  18.408  0.00  0.00    +0.000 NA
ATOM      7  C   UNL     1       4.321   4.770  17.920  0.00  0.00    +0.000 A 
ATOM      8  N   UNL     1       4.993   5.300  16.868  0.00  0.00    +0.000 N 
ATOM      9  C   UNL     1       5.461   4.484  15.748  0.00  0.00    +0.000 C 
ATOM     10  C   UNL     1       6.995   4.462  15.669  0.00  0.00    +0.000 C 
ATOM     11  O   UNL     1       7.569   5.782  15.715  0.00  0.00    +0.000 OA
ATOM     12  C   UNL     1       7.175   6.441  16.927  0.00  0.00    +0.000 C 
ATOM     13  C   UNL     1       5.654   6.610  16.986  0.00  0.00    +0.000 C 
ATOM     14  C   UNL     1       3.363   5.521  18.657  0.00  0.00    +0.000 A 
ATOM     15  C   UNL     1       2.806   6.803  18.534  0.00  0.00    +0.000 A 
ATOM     16  H   UNL     1       3.593   2.696  20.058  0.00  0.00    +0.000 HD
ENDROOT
BRANCH   1  19
ATOM     17  N   UNL     1       0.713  10.660  19.624  0.00  0.00    +0.000 N 
ATOM     18  C   UNL     1       0.759   9.437  20.232  0.00  0.00    +0.000 A 
ATOM     19  C   UNL     1       1.541   8.687  19.388  0.00  0.00    +0.000 A 
ATOM     20  N   UNL     1       1.924   9.465  18.320  0.00  0.00    +0.000 NA
ATOM     21  N   UNL     1       1.419  10.676  18.481  0.00  0.00    +0.000 NA
BRANCH  17  22
ATOM     22  C   UNL     1       0.134  11.893  20.124  0.00  0.00    +0.000 C 
BRANCH  22  26
ATOM     23  C   UNL     1      -4.095  12.238  19.357  0.00  0.00    +0.000 A 
ATOM     24  C   UNL     1      -3.548  12.765  20.525  0.00  0.00    +0.000 A 
ATOM     25  C   UNL     1      -2.182  12.639  20.776  0.00  0.00    +0.000 A 
ATOM     26  C   UNL     1      -1.348  11.982  19.862  0.00  0.00    +0.000 A 
ATOM     27  C   UNL     1      -1.909  11.456  18.687  0.00  0.00    +0.000 A 
ATOM     28  C   UNL     1      -3.277  11.581  18.440  0.00  0.00    +0.000 A 
ENDBRANCH  22  26
ENDBRANCH  17  22
ENDBRANCH   1  19
TORSDOF 3
ENDMDL
MODEL 8
REMARK VINA RESULT:      -8.5      3.682      8.460
REMARK  Name = 
REMARK  3 active torsions:
REMARK  status: ('A' for Active; 'I' for Inactive)
REMARK    1  A    between atoms: C_4  and  C_5
REMARK    2  A    between atoms: C_5  and  N_6
REMARK    3  A    between atoms: C_8  and  C_9
REMARK                            x       y       z     vdW  Elec       q    Type
REMARK                         _______ _______ _______ _____ _____    ______ ____
ROOT
ATOM      1  C   UNL     1       0.713  10.233  18.705  0.00  0.00    +0.000 A 
ATOM      2  C   UNL     1      -0.664  10.156  18.452  0.00  0.00    +0.000 A 
ATOM      3  C   UNL     1      -1.497  11.291  18.533  0.00  0.00    +0.000 A 
ATOM      4  C   UNL     1      -0.884  12.515  18.835  0.00  0.00    +0.000 A 
ATOM      5  N   UNL     1      -1.356  13.791  18.988  0.00  0.00    +0.000 N 
ATOM      6  N   UNL     1      -0.406  14.714  19.254  0.00  0.00    +0.000 NA
ATOM      7  C   UNL     1       0.734  14.018  19.230  0.00  0.00    +0.000 A 
ATOM      8  N   UNL     1       1.994  14.504  19.356  0.00  0.00    +0.000 N 
ATOM      9  C   UNL     1       2.292  15.709  20.128  0.00  0.00    +0.000 C 
ATOM     10  C   UNL     1       2.823  16.837  19.230  0.00  0.00    +0.000 C 
ATOM     11  O   UNL     1       3.899  16.404  18.378  0.00  0.00    +0.000 OA
ATOM     12  C   UNL     1       3.456  15.319  17.549  0.00  0.00    +0.000 C 
ATOM     13  C   UNL     1       3.045  14.115  18.402  0.00  0.00    +0.000 C 
ATOM     14  C   UNL     1       0.477  12.629  19.054  0.00  0.00    +0.000 A 
ATOM     15  C   UNL     1       1.270  11.471  19.040  0.00  0.00    +0.000 A 
ATOM     16  H   UNL     1      -2.315  14.107  18.921  0.00  0.00    +0.000 HD
ENDROOT
BRANCH   1  19
ATOM     17  N   UNL     1       2.848   7.366  18.853  0.00  0.00    +0.000 N 
ATOM     18  C   UNL     1       1.976   8.179  19.520  0.00  0.00    +0.000 A 
ATOM     19  C   UNL     1       1.629   9.119  18.579  0.00  0.00    +0.000 A 
ATOM     20  N   UNL     1       2.296   8.849  17.406  0.00  0.00    +0.000 NA
ATOM     21  N   UNL     1       3.032   7.765  17.584  0.00  0.00    +0.000 NA
BRANCH  17  22
ATOM     22  C   UNL     1       3.444   6.123  19.306  0.00  0.00    +0.000 C 
BRANCH  22  26
ATOM     23  C   UNL     1       0.669   2.824  19.423  0.00  0.00    +0.000 A 
ATOM     24  C   UNL     1       1.222   3.234  18.212  0.00  0.00    +0.000 A 
ATOM     25  C   UNL     1       2.108   4.311  18.176  0.00  0.00    +0.000 A 
ATOM     26  C   UNL     1       2.450   4.991  19.353  0.00  0.00    +0.000 A 
ATOM     27  C   UNL     1       1.889   4.568  20.569  0.00  0.00    +0.000 A 
ATOM     28  C   UNL     1       1.000   3.493  20.601  0.00  0.00    +0.000 A 
ENDBRANCH  22  26
ENDBRANCH  17  22
ENDBRANCH   1  19
TORSDOF 3
ENDMDL
MODEL 9
REMARK VINA RESULT:      -8.4      1.783      2.466
REMARK  Name = 
REMARK  3 active torsions:
REMARK  status: ('A' for Active; 'I' for Inactive)
REMARK    1  A    between atoms: C_4  and  C_5
REMARK    2  A    between atoms: C_5  and  N_6
REMARK    3  A    between atoms: C_8  and  C_9
REMARK                            x       y       z     vdW  Elec       q    Type
REMARK                         _______ _______ _______ _____ _____    ______ ____
ROOT
ATOM      1  C   UNL     1       1.948   6.749  20.088  0.00  0.00    +0.000 A 
ATOM      2  C   UNL     1       1.557   5.638  20.849  0.00  0.00    +0.000 A 
ATOM      3  C   UNL     1       1.984   4.333  20.527  0.00  0.00    +0.000 A 
ATOM      4  C   UNL     1       2.853   4.194  19.436  0.00  0.00    +0.000 A 
ATOM      5  N   UNL     1       3.461   3.117  18.849  0.00  0.00    +0.000 N 
ATOM      6  N   UNL     1       4.268   3.423  17.811  0.00  0.00    +0.000 NA
ATOM      7  C   UNL     1       4.218   4.757  17.748  0.00  0.00    +0.000 A 
ATOM      8  N   UNL     1       4.927   5.566  16.921  0.00  0.00    +0.000 N 
ATOM      9  C   UNL     1       5.373   5.132  15.597  0.00  0.00    +0.000 C 
ATOM     10  C   UNL     1       6.906   5.066  15.513  0.00  0.00    +0.000 C 
ATOM     11  O   UNL     1       7.536   6.274  15.979  0.00  0.00    +0.000 OA
ATOM     12  C   UNL     1       7.157   6.526  17.340  0.00  0.00    +0.000 C 
ATOM     13  C   UNL     1       5.644   6.736  17.452  0.00  0.00    +0.000 C 
ATOM     14  C   UNL     1       3.285   5.275  18.689  0.00  0.00    +0.000 A 
ATOM     15  C   UNL     1       2.786   6.553  18.986  0.00  0.00    +0.000 A 
ATOM     16  H   UNL     1       3.373   2.142  19.107  0.00  0.00    +0.000 HD
ENDROOT
BRANCH   1  19
ATOM     17  N   UNL     1       0.995  10.185  20.383  0.00  0.00    +0.000 N 
ATOM     18  C   UNL     1       1.237   9.132  19.547  0.00  0.00    +0.000 A 
ATOM     19  C   UNL     1       1.595   8.118  20.402  0.00  0.00    +0.000 A 
ATOM     20  N   UNL     1       1.565   8.588  21.695  0.00  0.00    +0.000 NA
ATOM     21  N   UNL     1       1.185   9.854  21.671  0.00  0.00    +0.000 NA
BRANCH  17  22
ATOM     22  C   UNL     1       0.458  11.492  20.052  0.00  0.00    +0.000 C 
BRANCH  22  26
ATOM     23  C   UNL     1      -1.533  13.431  23.349  0.00  0.00    +0.000 A 
ATOM     24  C   UNL     1      -0.475  14.063  22.698  0.00  0.00    +0.000 A 
ATOM     25  C   UNL     1       0.175  13.426  21.642  0.00  0.00    +0.000 A 
ATOM     26  C   UNL     1      -0.224  12.148  21.225  0.00  0.00    +0.000 A 
ATOM     27  C   UNL     1      -1.292  11.522  21.887  0.00  0.00    +0.000 A 
ATOM     28  C   UNL     1      -1.939  12.160  22.946  0.00  0.00    +0.000 A 
ENDBRANCH  22  26
ENDBRANCH  17  22
ENDBRANCH   1  19
TORSDOF 3
ENDMDL
