MODEL 1
REMARK VINA RESULT:      -7.1      0.000      0.000
REMARK  Name = 
REMARK  7 active torsions:
REMARK  status: ('A' for Active; 'I' for Inactive)
REMARK    1  A    between atoms: C_1  and  C_2
REMARK    2  A    between atoms: C_2  and  C_3
REMARK    3  A    between atoms: C_2  and  C_4
REMARK    4  A    between atoms: C_2  and  C_5
REMARK    5  A    between atoms: C_9  and  C_10
REMARK    6  A    between atoms: N_12  and  C_13
REMARK    7  A    between atoms: C_13  and  C_14
REMARK                            x       y       z     vdW  Elec       q    Type
REMARK                         _______ _______ _______ _____ _____    ______ ____
ROOT
ATOM      1  C   UNL     1       1.925   4.297  17.505  0.00  0.00    +0.000 C 
ATOM      2  O   UNL     1       0.807   4.279  16.998  0.00  0.00    +0.000 OA
ATOM      3  N   UNL     1       2.947   3.668  16.826  0.00  0.00    +0.000 N 
ATOM      4  H   UNL     1       2.630   3.186  15.991  0.00  0.00    +0.000 HD
ENDROOT
BRANCH   1   9
ATOM      5  C   UNL     1       2.385   4.296  20.089  0.00  0.00    +0.000 A 
ATOM      6  N   UNL     1       2.730   5.208  21.016  0.00  0.00    +0.000 NA
ATOM      7  N   UNL     1       2.702   6.373  20.382  0.00  0.00    +0.000 N 
ATOM      8  C   UNL     1       2.305   6.267  19.089  0.00  0.00    +0.000 A 
ATOM      9  C   UNL     1       2.200   4.914  18.806  0.00  0.00    +0.000 A 
ATOM     10  H   UNL     1       2.954   7.210  20.897  0.00  0.00    +0.000 HD
BRANCH   5  12
ATOM     11  C   UNL     1       1.615   2.702  21.905  0.00  0.00    +0.000 C 
ATOM     12  C   UNL     1       2.294   2.831  20.514  0.00  0.00    +0.000 C 
ATOM     13  C   UNL     1       3.694   2.201  20.628  0.00  0.00    +0.000 C 
ATOM     14  C   UNL     1       1.424   2.020  19.534  0.00  0.00    +0.000 C 
ENDBRANCH   5  12
ENDBRANCH   1   9
BRANCH   3  15
ATOM     15  C   UNL     1       4.286   3.446  17.303  0.00  0.00    +0.000 C 
BRANCH  15  16
ATOM     16  C   UNL     1       5.336   4.272  16.633  0.00  0.00    +0.000 A 
ATOM     17  C   UNL     1       5.503   4.161  15.247  0.00  0.00    +0.000 A 
ATOM     18  C   UNL     1       6.560   4.821  14.644  0.00  0.00    +0.000 A 
ATOM     19  N   UNL     1       7.445   5.586  15.316  0.00  0.00    +0.000 NA
ATOM     20  C   UNL     1       7.256   5.709  16.649  0.00  0.00    +0.000 A 
ATOM     21  C   UNL     1       6.225   5.091  17.346  0.00  0.00    +0.000 A 
ATOM     22 BR   UNL     1       6.122   5.360  19.219  0.00  0.00    +0.000 Br
ENDBRANCH  15  16
ENDBRANCH   3  15
TORSDOF 4
ENDMDL
MODEL 2
REMARK VINA RESULT:      -6.9      1.695      2.353
REMARK  Name = 
REMARK  7 active torsions:
REMARK  status: ('A' for Active; 'I' for Inactive)
REMARK    1  A    between atoms: C_1  and  C_2
REMARK    2  A    between atoms: C_2  and  C_3
REMARK    3  A    between atoms: C_2  and  C_4
REMARK    4  A    between atoms: C_2  and  C_5
REMARK    5  A    between atoms: C_9  and  C_10
REMARK    6  A    between atoms: N_12  and  C_13
REMARK    7  A    between atoms: C_13  and  C_14
REMARK                            x       y       z     vdW  Elec       q    Type
REMARK                         _______ _______ _______ _____ _____    ______ ____
ROOT
ATOM      1  C   UNL     1       2.719   2.805  17.613  0.00  0.00    +0.000 C 
ATOM      2  O   UNL     1       2.004   1.971  17.062  0.00  0.00    +0.000 OA
ATOM      3  N   UNL     1       2.840   4.041  17.015  0.00  0.00    +0.000 N 
ATOM      4  H   UNL     1       2.363   4.097  16.121  0.00  0.00    +0.000 HD
ENDROOT
BRANCH   1   9
ATOM      5  C   UNL     1       3.101   2.752  20.209  0.00  0.00    +0.000 A 
ATOM      6  N   UNL     1       4.027   2.250  21.047  0.00  0.00    +0.000 NA
ATOM      7  N   UNL     1       4.985   1.780  20.260  0.00  0.00    +0.000 N 
ATOM      8  C   UNL     1       4.748   1.997  18.942  0.00  0.00    +0.000 A 
ATOM      9  C   UNL     1       3.470   2.523  18.841  0.00  0.00    +0.000 A 
ATOM     10  H   UNL     1       5.786   1.329  20.690  0.00  0.00    +0.000 HD
BRANCH   5  12
ATOM     11  C   UNL     1       0.617   3.175  19.909  0.00  0.00    +0.000 C 
ATOM     12  C   UNL     1       1.859   3.409  20.812  0.00  0.00    +0.000 C 
ATOM     13  C   UNL     1       2.049   4.932  20.943  0.00  0.00    +0.000 C 
ATOM     14  C   UNL     1       1.516   2.796  22.184  0.00  0.00    +0.000 C 
ENDBRANCH   5  12
ENDBRANCH   1   9
BRANCH   3  15
ATOM     15  C   UNL     1       3.729   5.102  17.408  0.00  0.00    +0.000 C 
BRANCH  15  16
ATOM     16  C   UNL     1       5.069   5.076  16.746  0.00  0.00    +0.000 A 
ATOM     17  C   UNL     1       5.134   4.913  15.356  0.00  0.00    +0.000 A 
ATOM     18  C   UNL     1       6.372   4.753  14.758  0.00  0.00    +0.000 A 
ATOM     19  N   UNL     1       7.538   4.756  15.438  0.00  0.00    +0.000 NA
ATOM     20  C   UNL     1       7.463   4.942  16.774  0.00  0.00    +0.000 A 
ATOM     21  C   UNL     1       6.272   5.116  17.467  0.00  0.00    +0.000 A 
ATOM     22 BR   UNL     1       6.353   5.348  19.347  0.00  0.00    +0.000 Br
ENDBRANCH  15  16
ENDBRANCH   3  15
TORSDOF 4
ENDMDL
MODEL 3
REMARK VINA RESULT:      -6.9      2.276      3.056
REMARK  Name = 
REMARK  7 active torsions:
REMARK  status: ('A' for Active; 'I' for Inactive)
REMARK    1  A    between atoms: C_1  and  C_2
REMARK    2  A    between atoms: C_2  and  C_3
REMARK    3  A    between atoms: C_2  and  C_4
REMARK    4  A    between atoms: C_2  and  C_5
REMARK    5  A    between atoms: C_9  and  C_10
REMARK    6  A    between atoms: N_12  and  C_13
REMARK    7  A    between atoms: C_13  and  C_14
REMARK                            x       y       z     vdW  Elec       q    Type
REMARK                         _______ _______ _______ _____ _____    ______ ____
ROOT
ATOM      1  C   UNL     1       4.788   2.626  19.733  0.00  0.00    +0.000 C 
ATOM      2  O   UNL     1       5.232   1.901  20.619  0.00  0.00    +0.000 OA
ATOM      3  N   UNL     1       5.486   3.779  19.437  0.00  0.00    +0.000 N 
ATOM      4  H   UNL     1       6.275   3.933  20.056  0.00  0.00    +0.000 HD
ENDROOT
BRANCH   1   9
ATOM      5  C   UNL     1       2.196   2.731  19.339  0.00  0.00    +0.000 A 
ATOM      6  N   UNL     1       1.343   2.358  18.367  0.00  0.00    +0.000 NA
ATOM      7  N   UNL     1       2.086   1.696  17.491  0.00  0.00    +0.000 N 
ATOM      8  C   UNL     1       3.383   1.576  17.873  0.00  0.00    +0.000 A 
ATOM      9  C   UNL     1       3.540   2.340  19.019  0.00  0.00    +0.000 A 
ATOM     10  H   UNL     1       1.642   1.338  16.652  0.00  0.00    +0.000 HD
BRANCH   5  12
ATOM     11  C   UNL     1       2.493   4.764  20.827  0.00  0.00    +0.000 C 
ATOM     12  C   UNL     1       1.637   3.500  20.535  0.00  0.00    +0.000 C 
ATOM     13  C   UNL     1       1.656   2.632  21.807  0.00  0.00    +0.000 C 
ATOM     14  C   UNL     1       0.208   4.004  20.256  0.00  0.00    +0.000 C 
ENDBRANCH   5  12
ENDBRANCH   1   9
BRANCH   3  15
ATOM     15  C   UNL     1       5.071   4.830  18.547  0.00  0.00    +0.000 C 
BRANCH  15  16
ATOM     16  C   UNL     1       5.725   4.808  17.203  0.00  0.00    +0.000 A 
ATOM     17  C   UNL     1       5.217   3.953  16.217  0.00  0.00    +0.000 A 
ATOM     18  C   UNL     1       5.900   3.832  15.019  0.00  0.00    +0.000 A 
ATOM     19  N   UNL     1       7.034   4.504  14.733  0.00  0.00    +0.000 NA
ATOM     20  C   UNL     1       7.498   5.348  15.681  0.00  0.00    +0.000 A 
ATOM     21  C   UNL     1       6.884   5.544  16.912  0.00  0.00    +0.000 A 
ATOM     22 BR   UNL     1       7.684   6.755  18.131  0.00  0.00    +0.000 Br
ENDBRANCH  15  16
ENDBRANCH   3  15
TORSDOF 4
ENDMDL
MODEL 4
REMARK VINA RESULT:      -6.8      2.742      3.631
REMARK  Name = 
REMARK  7 active torsions:
REMARK  status: ('A' for Active; 'I' for Inactive)
REMARK    1  A    between atoms: C_1  and  C_2
REMARK    2  A    between atoms: C_2  and  C_3
REMARK    3  A    between atoms: C_2  and  C_4
REMARK    4  A    between atoms: C_2  and  C_5
REMARK    5  A    between atoms: C_9  and  C_10
REMARK    6  A    between atoms: N_12  and  C_13
REMARK    7  A    between atoms: C_13  and  C_14
REMARK                            x       y       z     vdW  Elec       q    Type
REMARK                         _______ _______ _______ _____ _____    ______ ____
ROOT
ATOM      1  C   UNL     1       4.851   2.540  19.723  0.00  0.00    +0.000 C 
ATOM      2  O   UNL     1       5.181   1.901  20.718  0.00  0.00    +0.000 OA
ATOM      3  N   UNL     1       5.713   3.519  19.275  0.00  0.00    +0.000 N 
ATOM      4  H   UNL     1       6.515   3.649  19.883  0.00  0.00    +0.000 HD
ENDROOT
BRANCH   1   9
ATOM      5  C   UNL     1       2.281   2.884  19.318  0.00  0.00    +0.000 A 
ATOM      6  N   UNL     1       1.389   2.533  18.374  0.00  0.00    +0.000 NA
ATOM      7  N   UNL     1       2.055   1.736  17.549  0.00  0.00    +0.000 N 
ATOM      8  C   UNL     1       3.334   1.510  17.941  0.00  0.00    +0.000 A 
ATOM      9  C   UNL     1       3.576   2.333  19.030  0.00  0.00    +0.000 A 
ATOM     10  H   UNL     1       1.570   1.367  16.737  0.00  0.00    +0.000 HD
BRANCH   5  12
ATOM     11  C   UNL     1       2.647   5.100  20.497  0.00  0.00    +0.000 C 
ATOM     12  C   UNL     1       1.812   3.791  20.455  0.00  0.00    +0.000 C 
ATOM     13  C   UNL     1       1.982   3.097  21.820  0.00  0.00    +0.000 C 
ATOM     14  C   UNL     1       0.346   4.222  20.255  0.00  0.00    +0.000 C 
ENDBRANCH   5  12
ENDBRANCH   1   9
BRANCH   3  15
ATOM     15  C   UNL     1       5.460   4.472  18.228  0.00  0.00    +0.000 C 
BRANCH  15  16
ATOM     16  C   UNL     1       6.454   5.585  18.138  0.00  0.00    +0.000 A 
ATOM     17  C   UNL     1       7.461   5.672  19.109  0.00  0.00    +0.000 A 
ATOM     18  C   UNL     1       8.298   6.774  19.107  0.00  0.00    +0.000 A 
ATOM     19  N   UNL     1       8.213   7.779  18.209  0.00  0.00    +0.000 NA
ATOM     20  C   UNL     1       7.256   7.668  17.261  0.00  0.00    +0.000 A 
ATOM     21  C   UNL     1       6.370   6.601  17.175  0.00  0.00    +0.000 A 
ATOM     22 BR   UNL     1       5.078   6.619  15.788  0.00  0.00    +0.000 Br
ENDBRANCH  15  16
ENDBRANCH   3  15
TORSDOF 4
ENDMDL
MODEL 5
REMARK VINA RESULT:      -6.8      1.563      2.311
REMARK  Name = 
REMARK  7 active torsions:
REMARK  status: ('A' for Active; 'I' for Inactive)
REMARK    1  A    between atoms: C_1  and  C_2
REMARK    2  A    between atoms: C_2  and  C_3
REMARK    3  A    between atoms: C_2  and  C_4
REMARK    4  A    between atoms: C_2  and  C_5
REMARK    5  A    between atoms: C_9  and  C_10
REMARK    6  A    between atoms: N_12  and  C_13
REMARK    7  A    between atoms: C_13  and  C_14
REMARK                            x       y       z     vdW  Elec       q    Type
REMARK                         _______ _______ _______ _____ _____    ______ ____
ROOT
ATOM      1  C   UNL     1       2.301   4.559  17.596  0.00  0.00    +0.000 C 
ATOM      2  O   UNL     1       1.215   4.416  17.041  0.00  0.00    +0.000 OA
ATOM      3  N   UNL     1       2.881   5.810  17.558  0.00  0.00    +0.000 N 
ATOM      4  H   UNL     1       2.356   6.472  16.995  0.00  0.00    +0.000 HD
ENDROOT
BRANCH   1   9
ATOM      5  C   UNL     1       2.880   2.950  19.587  0.00  0.00    +0.000 A 
ATOM      6  N   UNL     1       3.638   1.852  19.762  0.00  0.00    +0.000 NA
ATOM      7  N   UNL     1       4.288   1.695  18.616  0.00  0.00    +0.000 N 
ATOM      8  C   UNL     1       4.022   2.672  17.714  0.00  0.00    +0.000 A 
ATOM      9  C   UNL     1       3.013   3.457  18.250  0.00  0.00    +0.000 A 
ATOM     10  H   UNL     1       4.911   0.900  18.519  0.00  0.00    +0.000 HD
BRANCH   5  12
ATOM     11  C   UNL     1       0.508   3.327  20.403  0.00  0.00    +0.000 C 
ATOM     12  C   UNL     1       2.017   3.427  20.755  0.00  0.00    +0.000 C 
ATOM     13  C   UNL     1       2.311   4.902  21.091  0.00  0.00    +0.000 C 
ATOM     14  C   UNL     1       2.229   2.545  22.000  0.00  0.00    +0.000 C 
ENDBRANCH   5  12
ENDBRANCH   1   9
BRANCH   3  15
ATOM     15  C   UNL     1       4.200   6.159  18.012  0.00  0.00    +0.000 C 
BRANCH  15  16
ATOM     16  C   UNL     1       5.309   5.748  17.096  0.00  0.00    +0.000 A 
ATOM     17  C   UNL     1       5.054   5.666  15.721  0.00  0.00    +0.000 A 
ATOM     18  C   UNL     1       6.036   5.157  14.889  0.00  0.00    +0.000 A 
ATOM     19  N   UNL     1       7.245   4.741  15.323  0.00  0.00    +0.000 NA
ATOM     20  C   UNL     1       7.487   4.854  16.648  0.00  0.00    +0.000 A 
ATOM     21  C   UNL     1       6.571   5.354  17.564  0.00  0.00    +0.000 A 
ATOM     22 BR   UNL     1       7.076   5.423  19.390  0.00  0.00    +0.000 Br
ENDBRANCH  15  16
ENDBRANCH   3  15
TORSDOF 4
ENDMDL
MODEL 6
REMARK VINA RESULT:      -6.8      2.293      3.099
REMARK  Name = 
REMARK  7 active torsions:
REMARK  status: ('A' for Active; 'I' for Inactive)
REMARK    1  A    between atoms: C_1  and  C_2
REMARK    2  A    between atoms: C_2  and  C_3
REMARK    3  A    between atoms: C_2  and  C_4
REMARK    4  A    between atoms: C_2  and  C_5
REMARK    5  A    between atoms: C_9  and  C_10
REMARK    6  A    between atoms: N_12  and  C_13
REMARK    7  A    between atoms: C_13  and  C_14
REMARK                            x       y       z     vdW  Elec       q    Type
REMARK                         _______ _______ _______ _____ _____    ______ ____
ROOT
ATOM      1  C   UNL     1       4.903   2.880  19.585  0.00  0.00    +0.000 C 
ATOM      2  O   UNL     1       5.136   1.859  20.228  0.00  0.00    +0.000 OA
ATOM      3  N   UNL     1       5.778   3.937  19.721  0.00  0.00    +0.000 N 
ATOM      4  H   UNL     1       6.499   3.767  20.415  0.00  0.00    +0.000 HD
ENDROOT
BRANCH   1   9
ATOM      5  C   UNL     1       2.408   3.497  19.056  0.00  0.00    +0.000 A 
ATOM      6  N   UNL     1       1.640   3.588  17.955  0.00  0.00    +0.000 NA
ATOM      7  N   UNL     1       2.399   3.134  16.966  0.00  0.00    +0.000 N 
ATOM      8  C   UNL     1       3.616   2.703  17.383  0.00  0.00    +0.000 A 
ATOM      9  C   UNL     1       3.724   3.028  18.726  0.00  0.00    +0.000 A 
ATOM     10  H   UNL     1       2.019   3.134  16.025  0.00  0.00    +0.000 HD
BRANCH   5  12
ATOM     11  C   UNL     1       0.265   4.079  20.282  0.00  0.00    +0.000 C 
ATOM     12  C   UNL     1       1.806   3.922  20.395  0.00  0.00    +0.000 C 
ATOM     13  C   UNL     1       2.371   5.281  20.848  0.00  0.00    +0.000 C 
ATOM     14  C   UNL     1       2.052   2.856  21.480  0.00  0.00    +0.000 C 
ENDBRANCH   5  12
ENDBRANCH   1   9
BRANCH   3  15
ATOM     15  C   UNL     1       5.617   5.260  19.180  0.00  0.00    +0.000 C 
BRANCH  15  16
ATOM     16  C   UNL     1       5.765   5.353  17.695  0.00  0.00    +0.000 A 
ATOM     17  C   UNL     1       6.839   4.697  17.080  0.00  0.00    +0.000 A 
ATOM     18  C   UNL     1       7.056   4.892  15.727  0.00  0.00    +0.000 A 
ATOM     19  N   UNL     1       6.279   5.675  14.949  0.00  0.00    +0.000 NA
ATOM     20  C   UNL     1       5.230   6.279  15.549  0.00  0.00    +0.000 A 
ATOM     21  C   UNL     1       4.925   6.144  16.897  0.00  0.00    +0.000 A 
ATOM     22 BR   UNL     1       3.422   7.080  17.575  0.00  0.00    +0.000 Br
ENDBRANCH  15  16
ENDBRANCH   3  15
TORSDOF 4
ENDMDL
MODEL 7
REMARK VINA RESULT:      -6.7      2.280      2.998
REMARK  Name = 
REMARK  7 active torsions:
REMARK  status: ('A' for Active; 'I' for Inactive)
REMARK    1  A    between atoms: C_1  and  C_2
REMARK    2  A    between atoms: C_2  and  C_3
REMARK    3  A    between atoms: C_2  and  C_4
REMARK    4  A    between atoms: C_2  and  C_5
REMARK    5  A    between atoms: C_9  and  C_10
REMARK    6  A    between atoms: N_12  and  C_13
REMARK    7  A    between atoms: C_13  and  C_14
REMARK                            x       y       z     vdW  Elec       q    Type
REMARK                         _______ _______ _______ _____ _____    ______ ____
ROOT
ATOM      1  C   UNL     1       4.736   2.779  19.472  0.00  0.00    +0.000 C 
ATOM      2  O   UNL     1       4.917   1.728  20.080  0.00  0.00    +0.000 OA
ATOM      3  N   UNL     1       5.687   3.769  19.604  0.00  0.00    +0.000 N 
ATOM      4  H   UNL     1       6.417   3.529  20.268  0.00  0.00    +0.000 HD
ENDROOT
BRANCH   1   9
ATOM      5  C   UNL     1       2.256   3.533  19.058  0.00  0.00    +0.000 A 
ATOM      6  N   UNL     1       1.465   3.730  17.988  0.00  0.00    +0.000 NA
ATOM      7  N   UNL     1       2.177   3.314  16.950  0.00  0.00    +0.000 N 
ATOM      8  C   UNL     1       3.385   2.806  17.301  0.00  0.00    +0.000 A 
ATOM      9  C   UNL     1       3.542   3.034  18.659  0.00  0.00    +0.000 A 
ATOM     10  H   UNL     1       1.773   3.394  16.022  0.00  0.00    +0.000 HD
BRANCH   5  12
ATOM     11  C   UNL     1       2.649   4.886  21.167  0.00  0.00    +0.000 C 
ATOM     12  C   UNL     1       1.707   3.889  20.439  0.00  0.00    +0.000 C 
ATOM     13  C   UNL     1       1.594   2.636  21.328  0.00  0.00    +0.000 C 
ATOM     14  C   UNL     1       0.339   4.589  20.331  0.00  0.00    +0.000 C 
ENDBRANCH   5  12
ENDBRANCH   1   9
BRANCH   3  15
ATOM     15  C   UNL     1       5.603   5.114  19.103  0.00  0.00    +0.000 C 
BRANCH  15  16
ATOM     16  C   UNL     1       5.773   5.245  17.623  0.00  0.00    +0.000 A 
ATOM     17  C   UNL     1       6.830   4.567  17.002  0.00  0.00    +0.000 A 
ATOM     18  C   UNL     1       7.071   4.792  15.658  0.00  0.00    +0.000 A 
ATOM     19  N   UNL     1       6.335   5.627  14.895  0.00  0.00    +0.000 NA
ATOM     20  C   UNL     1       5.302   6.253  15.500  0.00  0.00    +0.000 A 
ATOM     21  C   UNL     1       4.974   6.091  16.840  0.00  0.00    +0.000 A 
ATOM     22 BR   UNL     1       3.499   7.063  17.527  0.00  0.00    +0.000 Br
ENDBRANCH  15  16
ENDBRANCH   3  15
TORSDOF 4
ENDMDL
MODEL 8
REMARK VINA RESULT:      -6.6      2.883      5.601
REMARK  Name = 
REMARK  7 active torsions:
REMARK  status: ('A' for Active; 'I' for Inactive)
REMARK    1  A    between atoms: C_1  and  C_2
REMARK    2  A    between atoms: C_2  and  C_3
REMARK    3  A    between atoms: C_2  and  C_4
REMARK    4  A    between atoms: C_2  and  C_5
REMARK    5  A    between atoms: C_9  and  C_10
REMARK    6  A    between atoms: N_12  and  C_13
REMARK    7  A    between atoms: C_13  and  C_14
REMARK                            x       y       z     vdW  Elec       q    Type
REMARK                         _______ _______ _______ _____ _____    ______ ____
ROOT
ATOM      1  C   UNL     1       2.467   4.614  17.811  0.00  0.00    +0.000 C 
ATOM      2  O   UNL     1       1.849   3.973  16.965  0.00  0.00    +0.000 OA
ATOM      3  N   UNL     1       1.917   5.802  18.244  0.00  0.00    +0.000 N 
ATOM      4  H   UNL     1       1.069   6.050  17.744  0.00  0.00    +0.000 HD
ENDROOT
BRANCH   1   9
ATOM      5  C   UNL     1       5.087   4.451  17.826  0.00  0.00    +0.000 A 
ATOM      6  N   UNL     1       6.028   3.980  18.665  0.00  0.00    +0.000 NA
ATOM      7  N   UNL     1       5.354   3.381  19.638  0.00  0.00    +0.000 N 
ATOM      8  C   UNL     1       4.011   3.398  19.446  0.00  0.00    +0.000 A 
ATOM      9  C   UNL     1       3.770   4.192  18.336  0.00  0.00    +0.000 A 
ATOM     10  H   UNL     1       5.876   2.967  20.403  0.00  0.00    +0.000 HD
BRANCH   5  12
ATOM     11  C   UNL     1       4.911   6.597  16.484  0.00  0.00    +0.000 C 
ATOM     12  C   UNL     1       5.543   5.180  16.563  0.00  0.00    +0.000 C 
ATOM     13  C   UNL     1       5.110   4.416  15.298  0.00  0.00    +0.000 C 
ATOM     14  C   UNL     1       7.070   5.390  16.562  0.00  0.00    +0.000 C 
ENDBRANCH   5  12
ENDBRANCH   1   9
BRANCH   3  15
ATOM     15  C   UNL     1       2.535   6.769  19.111  0.00  0.00    +0.000 C 
BRANCH  15  16
ATOM     16  C   UNL     1       2.003   8.161  18.978  0.00  0.00    +0.000 A 
ATOM     17  C   UNL     1       2.312   8.896  17.827  0.00  0.00    +0.000 A 
ATOM     18  C   UNL     1       1.936  10.227  17.762  0.00  0.00    +0.000 A 
ATOM     19  N   UNL     1       1.270  10.866  18.746  0.00  0.00    +0.000 NA
ATOM     20  C   UNL     1       0.953  10.136  19.839  0.00  0.00    +0.000 A 
ATOM     21  C   UNL     1       1.281   8.796  19.999  0.00  0.00    +0.000 A 
ATOM     22 BR   UNL     1       0.771   7.934  21.608  0.00  0.00    +0.000 Br
ENDBRANCH  15  16
ENDBRANCH   3  15
TORSDOF 4
ENDMDL
MODEL 9
REMARK VINA RESULT:      -6.5      1.608      2.267
REMARK  Name = 
REMARK  7 active torsions:
REMARK  status: ('A' for Active; 'I' for Inactive)
REMARK    1  A    between atoms: C_1  and  C_2
REMARK    2  A    between atoms: C_2  and  C_3
REMARK    3  A    between atoms: C_2  and  C_4
REMARK    4  A    between atoms: C_2  and  C_5
REMARK    5  A    between atoms: C_9  and  C_10
REMARK    6  A    between atoms: N_12  and  C_13
REMARK    7  A    between atoms: C_13  and  C_14
REMARK                            x       y       z     vdW  Elec       q    Type
REMARK                         _______ _______ _______ _____ _____    ______ ____
ROOT
ATOM      1  C   UNL     1       2.553   4.579  17.688  0.00  0.00    +0.000 C 
ATOM      2  O   UNL     1       1.475   4.289  17.177  0.00  0.00    +0.000 OA
ATOM      3  N   UNL     1       3.084   5.820  17.405  0.00  0.00    +0.000 N 
ATOM      4  H   UNL     1       2.534   6.340  16.728  0.00  0.00    +0.000 HD
ENDROOT
BRANCH   1   9
ATOM      5  C   UNL     1       3.021   3.198  19.869  0.00  0.00    +0.000 A 
ATOM      6  N   UNL     1       3.906   2.260  20.257  0.00  0.00    +0.000 NA
ATOM      7  N   UNL     1       4.767   2.162  19.253  0.00  0.00    +0.000 N 
ATOM      8  C   UNL     1       4.511   3.031  18.243  0.00  0.00    +0.000 A 
ATOM      9  C   UNL     1       3.307   3.653  18.538  0.00  0.00    +0.000 A 
ATOM     10  H   UNL     1       5.519   1.484  19.325  0.00  0.00    +0.000 HD
BRANCH   5  12
ATOM     11  C   UNL     1       2.060   2.831  22.188  0.00  0.00    +0.000 C 
ATOM     12  C   UNL     1       1.897   3.574  20.834  0.00  0.00    +0.000 C 
ATOM     13  C   UNL     1       0.523   3.182  20.259  0.00  0.00    +0.000 C 
ATOM     14  C   UNL     1       1.926   5.079  21.163  0.00  0.00    +0.000 C 
ENDBRANCH   5  12
ENDBRANCH   1   9
BRANCH   3  15
ATOM     15  C   UNL     1       4.387   6.302  17.775  0.00  0.00    +0.000 C 
BRANCH  15  16
ATOM     16  C   UNL     1       5.485   5.930  16.831  0.00  0.00    +0.000 A 
ATOM     17  C   UNL     1       5.194   5.818  15.465  0.00  0.00    +0.000 A 
ATOM     18  C   UNL     1       6.173   5.343  14.609  0.00  0.00    +0.000 A 
ATOM     19  N   UNL     1       7.411   4.988  15.011  0.00  0.00    +0.000 NA
ATOM     20  C   UNL     1       7.688   5.128  16.326  0.00  0.00    +0.000 A 
ATOM     21  C   UNL     1       6.778   5.599  17.264  0.00  0.00    +0.000 A 
ATOM     22 BR   UNL     1       7.333   5.714  19.073  0.00  0.00    +0.000 Br
ENDBRANCH  15  16
ENDBRANCH   3  15
TORSDOF 4
ENDMDL
