MODEL 1
REMARK VINA RESULT:      -6.7      0.000      0.000
REMARK  Name = 
REMARK  3 active torsions:
REMARK  status: ('A' for Active; 'I' for Inactive)
REMARK    1  A    between atoms: C_1  and  O_2
REMARK    2  A    between atoms: O_2  and  C_3
REMARK    3  A    between atoms: N_6  and  C_7
REMARK                            x       y       z     vdW  Elec       q    Type
REMARK                         _______ _______ _______ _____ _____    ______ ____
ROOT
ATOM      1  C   UNL     1       7.062   5.001  15.190  0.00  0.00    +0.000 A 
ATOM      2  C   UNL     1       5.671   4.732  14.882  0.00  0.00    +0.000 A 
ATOM      3  C   UNL     1       4.961   4.348  15.938  0.00  0.00    +0.000 A 
ATOM      4  N   UNL     1       5.512   4.242  17.202  0.00  0.00    +0.000 N 
ATOM      5  C   UNL     1       6.871   4.554  17.415  0.00  0.00    +0.000 A 
ATOM      6  O   UNL     1       7.385   4.487  18.528  0.00  0.00    +0.000 OA
ATOM      7  N   UNL     1       7.642   4.923  16.329  0.00  0.00    +0.000 NA
ENDROOT
BRANCH   4   8
ATOM      8  C   UNL     1       4.711   3.833  18.370  0.00  0.00    +0.000 C 
ATOM      9  C   UNL     1       3.523   2.903  18.097  0.00  0.00    +0.000 C 
ATOM     10  C   UNL     1       2.309   3.608  17.517  0.00  0.00    +0.000 C 
ATOM     11  C   UNL     1       2.022   4.940  18.202  0.00  0.00    +0.000 C 
ATOM     12  C   UNL     1       3.245   5.737  18.653  0.00  0.00    +0.000 C 
ATOM     13  O   UNL     1       4.311   4.955  19.160  0.00  0.00    +0.000 OA
ENDBRANCH   4   8
BRANCH   1  15
ATOM     14  C   UNL     1       7.280   4.647  12.861  0.00  0.00    +0.000 C 
ATOM     15  O   UNL     1       7.687   5.349  14.039  0.00  0.00    +0.000 OA
ENDBRANCH   1  15
TORSDOF 2
ENDMDL
MODEL 2
REMARK VINA RESULT:      -6.7      1.146      1.227
REMARK  Name = 
REMARK  3 active torsions:
REMARK  status: ('A' for Active; 'I' for Inactive)
REMARK    1  A    between atoms: C_1  and  O_2
REMARK    2  A    between atoms: O_2  and  C_3
REMARK    3  A    between atoms: N_6  and  C_7
REMARK                            x       y       z     vdW  Elec       q    Type
REMARK                         _______ _______ _______ _____ _____    ______ ____
ROOT
ATOM      1  C   UNL     1       6.783   5.058  16.304  0.00  0.00    +0.000 A 
ATOM      2  C   UNL     1       5.655   4.294  15.808  0.00  0.00    +0.000 A 
ATOM      3  C   UNL     1       4.872   3.822  16.772  0.00  0.00    +0.000 A 
ATOM      4  N   UNL     1       5.118   4.065  18.112  0.00  0.00    +0.000 N 
ATOM      5  C   UNL     1       6.224   4.847  18.501  0.00  0.00    +0.000 A 
ATOM      6  O   UNL     1       6.459   5.097  19.681  0.00  0.00    +0.000 OA
ATOM      7  N   UNL     1       7.076   5.322  17.522  0.00  0.00    +0.000 NA
ENDROOT
BRANCH   4   8
ATOM      8  C   UNL     1       4.232   3.553  19.173  0.00  0.00    +0.000 C 
ATOM      9  C   UNL     1       3.514   2.228  18.888  0.00  0.00    +0.000 C 
ATOM     10  C   UNL     1       2.317   2.362  17.960  0.00  0.00    +0.000 C 
ATOM     11  C   UNL     1       1.457   3.579  18.287  0.00  0.00    +0.000 C 
ATOM     12  C   UNL     1       2.206   4.816  18.777  0.00  0.00    +0.000 C 
ATOM     13  O   UNL     1       3.309   4.548  19.623  0.00  0.00    +0.000 OA
ENDBRANCH   4   8
BRANCH   1  15
ATOM     14  C   UNL     1       7.176   4.876  13.979  0.00  0.00    +0.000 C 
ATOM     15  O   UNL     1       7.521   5.456  15.240  0.00  0.00    +0.000 OA
ENDBRANCH   1  15
TORSDOF 2
ENDMDL
MODEL 3
REMARK VINA RESULT:      -6.1      2.402      3.648
REMARK  Name = 
REMARK  3 active torsions:
REMARK  status: ('A' for Active; 'I' for Inactive)
REMARK    1  A    between atoms: C_1  and  O_2
REMARK    2  A    between atoms: O_2  and  C_3
REMARK    3  A    between atoms: N_6  and  C_7
REMARK                            x       y       z     vdW  Elec       q    Type
REMARK                         _______ _______ _______ _____ _____    ______ ____
ROOT
ATOM      1  C   UNL     1       5.518   4.299  17.354  0.00  0.00    +0.000 A 
ATOM      2  C   UNL     1       5.479   4.891  18.677  0.00  0.00    +0.000 A 
ATOM      3  C   UNL     1       4.260   4.922  19.205  0.00  0.00    +0.000 A 
ATOM      4  N   UNL     1       3.154   4.415  18.547  0.00  0.00    +0.000 N 
ATOM      5  C   UNL     1       3.292   3.827  17.273  0.00  0.00    +0.000 A 
ATOM      6  O   UNL     1       2.333   3.351  16.671  0.00  0.00    +0.000 OA
ATOM      7  N   UNL     1       4.542   3.812  16.684  0.00  0.00    +0.000 NA
ENDROOT
BRANCH   4   8
ATOM      8  C   UNL     1       1.809   4.438  19.150  0.00  0.00    +0.000 C 
ATOM      9  C   UNL     1       1.702   5.006  20.570  0.00  0.00    +0.000 C 
ATOM     10  C   UNL     1       2.167   4.048  21.654  0.00  0.00    +0.000 C 
ATOM     11  C   UNL     1       1.678   2.621  21.424  0.00  0.00    +0.000 C 
ATOM     12  C   UNL     1       1.597   2.170  19.967  0.00  0.00    +0.000 C 
ATOM     13  O   UNL     1       1.162   3.166  19.059  0.00  0.00    +0.000 OA
ENDBRANCH   4   8
BRANCH   1  15
ATOM     14  C   UNL     1       6.974   4.732  15.541  0.00  0.00    +0.000 C 
ATOM     15  O   UNL     1       6.797   4.352  16.909  0.00  0.00    +0.000 OA
ENDBRANCH   1  15
TORSDOF 2
ENDMDL
MODEL 4
REMARK VINA RESULT:      -6.0      1.808      2.157
REMARK  Name = 
REMARK  3 active torsions:
REMARK  status: ('A' for Active; 'I' for Inactive)
REMARK    1  A    between atoms: C_1  and  O_2
REMARK    2  A    between atoms: O_2  and  C_3
REMARK    3  A    between atoms: N_6  and  C_7
REMARK                            x       y       z     vdW  Elec       q    Type
REMARK                         _______ _______ _______ _____ _____    ______ ____
ROOT
ATOM      1  C   UNL     1       5.931   5.324  15.352  0.00  0.00    +0.000 A 
ATOM      2  C   UNL     1       5.691   3.975  15.827  0.00  0.00    +0.000 A 
ATOM      3  C   UNL     1       4.917   3.926  16.907  0.00  0.00    +0.000 A 
ATOM      4  N   UNL     1       4.387   5.062  17.491  0.00  0.00    +0.000 N 
ATOM      5  C   UNL     1       4.649   6.333  16.941  0.00  0.00    +0.000 A 
ATOM      6  O   UNL     1       4.179   7.359  17.426  0.00  0.00    +0.000 OA
ATOM      7  N   UNL     1       5.479   6.418  15.840  0.00  0.00    +0.000 NA
ENDROOT
BRANCH   4   8
ATOM      8  C   UNL     1       3.514   4.994  18.678  0.00  0.00    +0.000 C 
ATOM      9  C   UNL     1       3.661   3.756  19.569  0.00  0.00    +0.000 C 
ATOM     10  C   UNL     1       2.991   2.511  19.011  0.00  0.00    +0.000 C 
ATOM     11  C   UNL     1       1.613   2.801  18.423  0.00  0.00    +0.000 C 
ATOM     12  C   UNL     1       1.455   4.152  17.726  0.00  0.00    +0.000 C 
ATOM     13  O   UNL     1       2.143   5.224  18.344  0.00  0.00    +0.000 OA
ENDBRANCH   4   8
BRANCH   1  15
ATOM     14  C   UNL     1       6.605   4.094  13.447  0.00  0.00    +0.000 C 
ATOM     15  O   UNL     1       6.752   5.250  14.277  0.00  0.00    +0.000 OA
ENDBRANCH   1  15
TORSDOF 2
ENDMDL
MODEL 5
REMARK VINA RESULT:      -6.0      2.187      2.511
REMARK  Name = 
REMARK  3 active torsions:
REMARK  status: ('A' for Active; 'I' for Inactive)
REMARK    1  A    between atoms: C_1  and  O_2
REMARK    2  A    between atoms: O_2  and  C_3
REMARK    3  A    between atoms: N_6  and  C_7
REMARK                            x       y       z     vdW  Elec       q    Type
REMARK                         _______ _______ _______ _____ _____    ______ ____
ROOT
ATOM      1  C   UNL     1       6.432   6.846  17.342  0.00  0.00    +0.000 A 
ATOM      2  C   UNL     1       5.359   6.514  16.425  0.00  0.00    +0.000 A 
ATOM      3  C   UNL     1       4.670   5.436  16.788  0.00  0.00    +0.000 A 
ATOM      4  N   UNL     1       4.954   4.729  17.942  0.00  0.00    +0.000 N 
ATOM      5  C   UNL     1       6.000   5.145  18.792  0.00  0.00    +0.000 A 
ATOM      6  O   UNL     1       6.265   4.548  19.833  0.00  0.00    +0.000 OA
ATOM      7  N   UNL     1       6.756   6.241  18.423  0.00  0.00    +0.000 NA
ENDROOT
BRANCH   4   8
ATOM      8  C   UNL     1       4.172   3.546  18.344  0.00  0.00    +0.000 C 
ATOM      9  C   UNL     1       2.965   3.191  17.469  0.00  0.00    +0.000 C 
ATOM     10  C   UNL     1       1.749   4.070  17.707  0.00  0.00    +0.000 C 
ATOM     11  C   UNL     1       1.497   4.331  19.189  0.00  0.00    +0.000 C 
ATOM     12  C   UNL     1       2.740   4.465  20.066  0.00  0.00    +0.000 C 
ATOM     13  O   UNL     1       3.805   3.595  19.725  0.00  0.00    +0.000 OA
ENDBRANCH   4   8
BRANCH   1  15
ATOM     14  C   UNL     1       7.990   8.580  17.749  0.00  0.00    +0.000 C 
ATOM     15  O   UNL     1       7.079   7.933  16.855  0.00  0.00    +0.000 OA
ENDBRANCH   1  15
TORSDOF 2
ENDMDL
MODEL 6
REMARK VINA RESULT:      -5.9      2.092      3.317
REMARK  Name = 
REMARK  3 active torsions:
REMARK  status: ('A' for Active; 'I' for Inactive)
REMARK    1  A    between atoms: C_1  and  O_2
REMARK    2  A    between atoms: O_2  and  C_3
REMARK    3  A    between atoms: N_6  and  C_7
REMARK                            x       y       z     vdW  Elec       q    Type
REMARK                         _______ _______ _______ _____ _____    ______ ____
ROOT
ATOM      1  C   UNL     1       6.486   5.533  18.080  0.00  0.00    +0.000 A 
ATOM      2  C   UNL     1       5.563   5.422  19.192  0.00  0.00    +0.000 A 
ATOM      3  C   UNL     1       4.420   4.824  18.872  0.00  0.00    +0.000 A 
ATOM      4  N   UNL     1       4.166   4.345  17.599  0.00  0.00    +0.000 N 
ATOM      5  C   UNL     1       5.137   4.469  16.585  0.00  0.00    +0.000 A 
ATOM      6  O   UNL     1       4.949   4.038  15.451  0.00  0.00    +0.000 OA
ATOM      7  N   UNL     1       6.321   5.118  16.880  0.00  0.00    +0.000 NA
ENDROOT
BRANCH   4   8
ATOM      8  C   UNL     1       2.902   3.666  17.260  0.00  0.00    +0.000 C 
ATOM      9  C   UNL     1       1.621   4.263  17.854  0.00  0.00    +0.000 C 
ATOM     10  C   UNL     1       1.404   3.924  19.319  0.00  0.00    +0.000 C 
ATOM     11  C   UNL     1       1.718   2.465  19.635  0.00  0.00    +0.000 C 
ATOM     12  C   UNL     1       2.876   1.846  18.854  0.00  0.00    +0.000 C 
ATOM     13  O   UNL     1       2.971   2.259  17.503  0.00  0.00    +0.000 OA
ENDBRANCH   4   8
BRANCH   1  15
ATOM     14  C   UNL     1       7.835   7.471  17.942  0.00  0.00    +0.000 C 
ATOM     15  O   UNL     1       7.593   6.183  18.515  0.00  0.00    +0.000 OA
ENDBRANCH   1  15
TORSDOF 2
ENDMDL
MODEL 7
REMARK VINA RESULT:      -5.9      1.808      4.927
REMARK  Name = 
REMARK  3 active torsions:
REMARK  status: ('A' for Active; 'I' for Inactive)
REMARK    1  A    between atoms: C_1  and  O_2
REMARK    2  A    between atoms: O_2  and  C_3
REMARK    3  A    between atoms: N_6  and  C_7
REMARK                            x       y       z     vdW  Elec       q    Type
REMARK                         _______ _______ _______ _____ _____    ______ ____
ROOT
ATOM      1  C   UNL     1       3.072   3.002  19.019  0.00  0.00    +0.000 A 
ATOM      2  C   UNL     1       2.735   3.423  17.672  0.00  0.00    +0.000 A 
ATOM      3  C   UNL     1       3.563   4.341  17.184  0.00  0.00    +0.000 A 
ATOM      4  N   UNL     1       4.645   4.820  17.900  0.00  0.00    +0.000 N 
ATOM      5  C   UNL     1       4.915   4.329  19.194  0.00  0.00    +0.000 A 
ATOM      6  O   UNL     1       5.878   4.721  19.848  0.00  0.00    +0.000 OA
ATOM      7  N   UNL     1       4.051   3.400  19.742  0.00  0.00    +0.000 NA
ENDROOT
BRANCH   4   8
ATOM      8  C   UNL     1       5.567   5.825  17.341  0.00  0.00    +0.000 C 
ATOM      9  C   UNL     1       5.223   6.376  15.953  0.00  0.00    +0.000 C 
ATOM     10  C   UNL     1       5.567   5.433  14.812  0.00  0.00    +0.000 C 
ATOM     11  C   UNL     1       6.928   4.767  14.992  0.00  0.00    +0.000 C 
ATOM     12  C   UNL     1       7.322   4.430  16.429  0.00  0.00    +0.000 C 
ATOM     13  O   UNL     1       6.928   5.387  17.395  0.00  0.00    +0.000 OA
ENDBRANCH   4   8
BRANCH   1  15
ATOM     14  C   UNL     1       0.827   2.268  18.896  0.00  0.00    +0.000 C 
ATOM     15  O   UNL     1       2.147   2.097  19.420  0.00  0.00    +0.000 OA
ENDBRANCH   1  15
TORSDOF 2
ENDMDL
MODEL 8
REMARK VINA RESULT:      -5.9      2.203      5.386
REMARK  Name = 
REMARK  3 active torsions:
REMARK  status: ('A' for Active; 'I' for Inactive)
REMARK    1  A    between atoms: C_1  and  O_2
REMARK    2  A    between atoms: O_2  and  C_3
REMARK    3  A    between atoms: N_6  and  C_7
REMARK                            x       y       z     vdW  Elec       q    Type
REMARK                         _______ _______ _______ _____ _____    ______ ____
ROOT
ATOM      1  C   UNL     1       1.906   3.883  18.970  0.00  0.00    +0.000 A 
ATOM      2  C   UNL     1       2.761   3.053  18.144  0.00  0.00    +0.000 A 
ATOM      3  C   UNL     1       3.653   3.746  17.444  0.00  0.00    +0.000 A 
ATOM      4  N   UNL     1       3.750   5.124  17.526  0.00  0.00    +0.000 N 
ATOM      5  C   UNL     1       2.894   5.848  18.381  0.00  0.00    +0.000 A 
ATOM      6  O   UNL     1       2.968   7.069  18.490  0.00  0.00    +0.000 OA
ATOM      7  N   UNL     1       1.934   5.156  19.095  0.00  0.00    +0.000 NA
ENDROOT
BRANCH   4   8
ATOM      8  C   UNL     1       4.755   5.881  16.758  0.00  0.00    +0.000 C 
ATOM      9  C   UNL     1       5.352   5.183  15.531  0.00  0.00    +0.000 C 
ATOM     10  C   UNL     1       6.404   4.138  15.867  0.00  0.00    +0.000 C 
ATOM     11  C   UNL     1       7.366   4.604  16.955  0.00  0.00    +0.000 C 
ATOM     12  C   UNL     1       6.763   5.484  18.049  0.00  0.00    +0.000 C 
ATOM     13  O   UNL     1       5.785   6.405  17.601  0.00  0.00    +0.000 OA
ENDBRANCH   4   8
BRANCH   1  15
ATOM     14  C   UNL     1       1.249   2.870  21.005  0.00  0.00    +0.000 C 
ATOM     15  O   UNL     1       1.024   3.074  19.607  0.00  0.00    +0.000 OA
ENDBRANCH   1  15
TORSDOF 2
ENDMDL
MODEL 9
REMARK VINA RESULT:      -5.9      2.068      5.233
REMARK  Name = 
REMARK  3 active torsions:
REMARK  status: ('A' for Active; 'I' for Inactive)
REMARK    1  A    between atoms: C_1  and  O_2
REMARK    2  A    between atoms: O_2  and  C_3
REMARK    3  A    between atoms: N_6  and  C_7
REMARK                            x       y       z     vdW  Elec       q    Type
REMARK                         _______ _______ _______ _____ _____    ______ ____
ROOT
ATOM      1  C   UNL     1       2.282   3.965  19.315  0.00  0.00    +0.000 A 
ATOM      2  C   UNL     1       2.127   4.968  18.279  0.00  0.00    +0.000 A 
ATOM      3  C   UNL     1       3.283   5.406  17.792  0.00  0.00    +0.000 A 
ATOM      4  N   UNL     1       4.503   4.925  18.232  0.00  0.00    +0.000 N 
ATOM      5  C   UNL     1       4.557   3.925  19.224  0.00  0.00    +0.000 A 
ATOM      6  O   UNL     1       5.623   3.464  19.623  0.00  0.00    +0.000 OA
ATOM      7  N   UNL     1       3.372   3.474  19.774  0.00  0.00    +0.000 NA
ENDROOT
BRANCH   4   8
ATOM      8  C   UNL     1       5.779   5.405  17.672  0.00  0.00    +0.000 C 
ATOM      9  C   UNL     1       5.714   6.660  16.792  0.00  0.00    +0.000 C 
ATOM     10  C   UNL     1       5.199   6.401  15.386  0.00  0.00    +0.000 C 
ATOM     11  C   UNL     1       5.786   5.135  14.771  0.00  0.00    +0.000 C 
ATOM     12  C   UNL     1       6.036   3.977  15.736  0.00  0.00    +0.000 C 
ATOM     13  O   UNL     1       6.501   4.359  17.017  0.00  0.00    +0.000 OA
ENDBRANCH   4   8
BRANCH   1  15
ATOM     14  C   UNL     1       0.990   2.947  21.015  0.00  0.00    +0.000 C 
ATOM     15  O   UNL     1       1.047   3.620  19.754  0.00  0.00    +0.000 OA
ENDBRANCH   1  15
TORSDOF 2
ENDMDL
