MODEL 1
REMARK VINA RESULT:      -8.8      0.000      0.000
REMARK  Name = 
REMARK  7 active torsions:
REMARK  status: ('A' for Active; 'I' for Inactive)
REMARK    1  A    between atoms: C_1  and  O_2
REMARK    2  A    between atoms: O_2  and  C_3
REMARK    3  A    between atoms: C_5  and  O_6
REMARK    4  A    between atoms: O_6  and  C_7
REMARK    5  A    between atoms: C_9  and  C_10
REMARK    6  A    between atoms: C_14  and  C_15
REMARK    7  A    between atoms: C_19  and  C_20
REMARK                            x       y       z     vdW  Elec       q    Type
REMARK                         _______ _______ _______ _____ _____    ______ ____
ROOT
ATOM      1  C   UNL     1      -2.717  12.653  20.408  0.00  0.00    +0.000 A 
ATOM      2  C   UNL     1      -2.209  12.053  19.253  0.00  0.00    +0.000 A 
ATOM      3  C   UNL     1      -1.197  11.057  19.294  0.00  0.00    +0.000 A 
ATOM      4  C   UNL     1      -0.621  10.675  20.524  0.00  0.00    +0.000 A 
ATOM      5  C   UNL     1       0.453   9.682  20.787  0.00  0.00    +0.000 A 
ATOM      6  C   UNL     1       0.721   9.350  22.065  0.00  0.00    +0.000 A 
ATOM      7  C   UNL     1       0.065   9.918  23.228  0.00  0.00    +0.000 A 
ATOM      8  O   UNL     1       0.325   9.532  24.361  0.00  0.00    +0.000 OA
ATOM      9  O   UNL     1      -0.822  10.938  22.982  0.00  0.00    +0.000 OA
ATOM     10  C   UNL     1      -1.185  11.287  21.662  0.00  0.00    +0.000 A 
ATOM     11  C   UNL     1      -2.207  12.246  21.628  0.00  0.00    +0.000 A 
ENDROOT
BRANCH   5  12
ATOM     12  C   UNL     1       1.386   8.970  19.888  0.00  0.00    +0.000 A 
ATOM     13  C   UNL     1       1.610   9.467  18.600  0.00  0.00    +0.000 A 
ATOM     14  C   UNL     1       2.247   8.673  17.653  0.00  0.00    +0.000 A 
ATOM     15  C   UNL     1       2.650   7.374  17.982  0.00  0.00    +0.000 A 
ATOM     16  C   UNL     1       2.473   6.840  19.273  0.00  0.00    +0.000 A 
ATOM     17  C   UNL     1       1.843   7.675  20.219  0.00  0.00    +0.000 A 
BRANCH  16  18
ATOM     18  C   UNL     1       2.884   5.441  19.586  0.00  0.00    +0.000 A 
ATOM     19  C   UNL     1       4.005   4.851  18.970  0.00  0.00    +0.000 A 
ATOM     20  C   UNL     1       4.372   3.523  19.216  0.00  0.00    +0.000 A 
ATOM     21  C   UNL     1       3.637   2.749  20.106  0.00  0.00    +0.000 A 
ATOM     22  C   UNL     1       2.529   3.297  20.756  0.00  0.00    +0.000 A 
ATOM     23  C   UNL     1       1.735   2.477  21.731  0.00  0.00    +0.000 C 
ATOM     24  C   UNL     1       2.160   4.629  20.484  0.00  0.00    +0.000 A 
ENDBRANCH  16  18
ENDBRANCH   5  12
BRANCH   1  26
ATOM     25  C   UNL     1      -4.252  14.173  21.413  0.00  0.00    +0.000 C 
ATOM     26  O   UNL     1      -3.716  13.574  20.233  0.00  0.00    +0.000 OA
ENDBRANCH   1  26
BRANCH   3  27
ATOM     27  O   UNL     1      -1.080  10.366  18.116  0.00  0.00    +0.000 OA
ATOM     28  C   UNL     1      -2.279   9.915  17.503  0.00  0.00    +0.000 C 
ENDBRANCH   3  27
TORSDOF 4
ENDMDL
MODEL 2
REMARK VINA RESULT:      -8.4      4.619      7.320
REMARK  Name = 
REMARK  7 active torsions:
REMARK  status: ('A' for Active; 'I' for Inactive)
REMARK    1  A    between atoms: C_1  and  O_2
REMARK    2  A    between atoms: O_2  and  C_3
REMARK    3  A    between atoms: C_5  and  O_6
REMARK    4  A    between atoms: O_6  and  C_7
REMARK    5  A    between atoms: C_9  and  C_10
REMARK    6  A    between atoms: C_14  and  C_15
REMARK    7  A    between atoms: C_19  and  C_20
REMARK                            x       y       z     vdW  Elec       q    Type
REMARK                         _______ _______ _______ _____ _____    ______ ____
ROOT
ATOM      1  C   UNL     1       1.142   7.033  20.637  0.00  0.00    +0.000 A 
ATOM      2  C   UNL     1       2.244   7.520  19.929  0.00  0.00    +0.000 A 
ATOM      3  C   UNL     1       3.138   6.665  19.230  0.00  0.00    +0.000 A 
ATOM      4  C   UNL     1       2.971   5.264  19.279  0.00  0.00    +0.000 A 
ATOM      5  C   UNL     1       3.796   4.201  18.647  0.00  0.00    +0.000 A 
ATOM      6  C   UNL     1       3.342   2.933  18.682  0.00  0.00    +0.000 A 
ATOM      7  C   UNL     1       2.115   2.504  19.328  0.00  0.00    +0.000 A 
ATOM      8  O   UNL     1       1.739   1.340  19.276  0.00  0.00    +0.000 OA
ATOM      9  O   UNL     1       1.436   3.469  20.032  0.00  0.00    +0.000 OA
ATOM     10  C   UNL     1       1.832   4.824  19.982  0.00  0.00    +0.000 A 
ATOM     11  C   UNL     1       0.928   5.666  20.644  0.00  0.00    +0.000 A 
ENDROOT
BRANCH   5  12
ATOM     12  C   UNL     1       5.119   4.233  17.990  0.00  0.00    +0.000 A 
ATOM     13  C   UNL     1       6.232   4.678  18.709  0.00  0.00    +0.000 A 
ATOM     14  C   UNL     1       7.412   4.985  18.041  0.00  0.00    +0.000 A 
ATOM     15  C   UNL     1       7.482   4.863  16.649  0.00  0.00    +0.000 A 
ATOM     16  C   UNL     1       6.398   4.391  15.883  0.00  0.00    +0.000 A 
ATOM     17  C   UNL     1       5.221   4.068  16.590  0.00  0.00    +0.000 A 
BRANCH  16  18
ATOM     18  C   UNL     1       6.491   4.303  14.397  0.00  0.00    +0.000 A 
ATOM     19  C   UNL     1       7.533   4.933  13.689  0.00  0.00    +0.000 A 
ATOM     20  C   UNL     1       7.604   4.900  12.292  0.00  0.00    +0.000 A 
ATOM     21  C   UNL     1       6.642   4.214  11.560  0.00  0.00    +0.000 A 
ATOM     22  C   UNL     1       5.602   3.557  12.219  0.00  0.00    +0.000 A 
ATOM     23  C   UNL     1       4.564   2.800  11.442  0.00  0.00    +0.000 C 
ATOM     24  C   UNL     1       5.531   3.615  13.625  0.00  0.00    +0.000 A 
ENDBRANCH  16  18
ENDBRANCH   5  12
BRANCH   1  26
ATOM     25  C   UNL     1       0.988   9.093  21.823  0.00  0.00    +0.000 C 
ATOM     26  O   UNL     1       0.338   7.965  21.237  0.00  0.00    +0.000 OA
ENDBRANCH   1  26
BRANCH   3  27
ATOM     27  O   UNL     1       3.934   7.338  18.340  0.00  0.00    +0.000 OA
ATOM     28  C   UNL     1       3.287   8.165  17.385  0.00  0.00    +0.000 C 
ENDBRANCH   3  27
TORSDOF 4
ENDMDL
MODEL 3
REMARK VINA RESULT:      -8.3      2.657      5.093
REMARK  Name = 
REMARK  7 active torsions:
REMARK  status: ('A' for Active; 'I' for Inactive)
REMARK    1  A    between atoms: C_1  and  O_2
REMARK    2  A    between atoms: O_2  and  C_3
REMARK    3  A    between atoms: C_5  and  O_6
REMARK    4  A    between atoms: O_6  and  C_7
REMARK    5  A    between atoms: C_9  and  C_10
REMARK    6  A    between atoms: C_14  and  C_15
REMARK    7  A    between atoms: C_19  and  C_20
REMARK                            x       y       z     vdW  Elec       q    Type
REMARK                         _______ _______ _______ _____ _____    ______ ____
ROOT
ATOM      1  C   UNL     1      -6.323  12.248  19.379  0.00  0.00    +0.000 A 
ATOM      2  C   UNL     1      -5.213  12.526  20.181  0.00  0.00    +0.000 A 
ATOM      3  C   UNL     1      -3.880  12.319  19.734  0.00  0.00    +0.000 A 
ATOM      4  C   UNL     1      -3.632  11.761  18.462  0.00  0.00    +0.000 A 
ATOM      5  C   UNL     1      -2.331  11.445  17.816  0.00  0.00    +0.000 A 
ATOM      6  C   UNL     1      -2.332  11.080  16.519  0.00  0.00    +0.000 A 
ATOM      7  C   UNL     1      -3.517  10.932  15.695  0.00  0.00    +0.000 A 
ATOM      8  O   UNL     1      -3.439  10.646  14.507  0.00  0.00    +0.000 OA
ATOM      9  O   UNL     1      -4.721  11.085  16.339  0.00  0.00    +0.000 OA
ATOM     10  C   UNL     1      -4.781  11.524  17.681  0.00  0.00    +0.000 A 
ATOM     11  C   UNL     1      -6.097  11.758  18.105  0.00  0.00    +0.000 A 
ENDROOT
BRANCH   5  12
ATOM     12  C   UNL     1      -0.951  11.392  18.341  0.00  0.00    +0.000 A 
ATOM     13  C   UNL     1      -0.212  12.575  18.448  0.00  0.00    +0.000 A 
ATOM     14  C   UNL     1       1.160  12.517  18.662  0.00  0.00    +0.000 A 
ATOM     15  C   UNL     1       1.804  11.279  18.757  0.00  0.00    +0.000 A 
ATOM     16  C   UNL     1       1.100  10.061  18.685  0.00  0.00    +0.000 A 
ATOM     17  C   UNL     1      -0.293  10.151  18.488  0.00  0.00    +0.000 A 
BRANCH  16  18
ATOM     18  C   UNL     1       1.819   8.756  18.757  0.00  0.00    +0.000 A 
ATOM     19  C   UNL     1       1.636   7.877  19.843  0.00  0.00    +0.000 A 
ATOM     20  C   UNL     1       2.341   6.673  19.948  0.00  0.00    +0.000 A 
ATOM     21  C   UNL     1       3.239   6.301  18.955  0.00  0.00    +0.000 A 
ATOM     22  C   UNL     1       3.438   7.131  17.849  0.00  0.00    +0.000 A 
ATOM     23  C   UNL     1       4.394   6.735  16.761  0.00  0.00    +0.000 C 
ATOM     24  C   UNL     1       2.736   8.349  17.766  0.00  0.00    +0.000 A 
ENDBRANCH  16  18
ENDBRANCH   5  12
BRANCH   1  26
ATOM     25  C   UNL     1      -7.594  12.804  21.316  0.00  0.00    +0.000 C 
ATOM     26  O   UNL     1      -7.552  12.525  19.916  0.00  0.00    +0.000 OA
ENDBRANCH   1  26
BRANCH   3  27
ATOM     27  O   UNL     1      -2.951  12.956  20.515  0.00  0.00    +0.000 OA
ATOM     28  C   UNL     1      -3.378  14.107  21.227  0.00  0.00    +0.000 C 
ENDBRANCH   3  27
TORSDOF 4
ENDMDL
MODEL 4
REMARK VINA RESULT:      -8.2      2.492      4.911
REMARK  Name = 
REMARK  7 active torsions:
REMARK  status: ('A' for Active; 'I' for Inactive)
REMARK    1  A    between atoms: C_1  and  O_2
REMARK    2  A    between atoms: O_2  and  C_3
REMARK    3  A    between atoms: C_5  and  O_6
REMARK    4  A    between atoms: O_6  and  C_7
REMARK    5  A    between atoms: C_9  and  C_10
REMARK    6  A    between atoms: C_14  and  C_15
REMARK    7  A    between atoms: C_19  and  C_20
REMARK                            x       y       z     vdW  Elec       q    Type
REMARK                         _______ _______ _______ _____ _____    ______ ____
ROOT
ATOM      1  C   UNL     1      -6.386  12.360  18.880  0.00  0.00    +0.000 A 
ATOM      2  C   UNL     1      -5.316  12.674  19.722  0.00  0.00    +0.000 A 
ATOM      3  C   UNL     1      -3.967  12.396  19.376  0.00  0.00    +0.000 A 
ATOM      4  C   UNL     1      -3.663  11.726  18.171  0.00  0.00    +0.000 A 
ATOM      5  C   UNL     1      -2.337  11.322  17.634  0.00  0.00    +0.000 A 
ATOM      6  C   UNL     1      -2.274  10.850  16.373  0.00  0.00    +0.000 A 
ATOM      7  C   UNL     1      -3.413  10.665  15.495  0.00  0.00    +0.000 A 
ATOM      8  O   UNL     1      -3.275  10.278  14.341  0.00  0.00    +0.000 OA
ATOM      9  O   UNL     1      -4.647  10.904  16.049  0.00  0.00    +0.000 OA
ATOM     10  C   UNL     1      -4.772  11.455  17.344  0.00  0.00    +0.000 A 
ATOM     11  C   UNL     1      -6.101  11.759  17.667  0.00  0.00    +0.000 A 
ENDROOT
BRANCH   5  12
ATOM     12  C   UNL     1      -0.992  11.276  18.245  0.00  0.00    +0.000 A 
ATOM     13  C   UNL     1      -0.313  12.472  18.498  0.00  0.00    +0.000 A 
ATOM     14  C   UNL     1       1.044  12.448  18.798  0.00  0.00    +0.000 A 
ATOM     15  C   UNL     1       1.733  11.231  18.835  0.00  0.00    +0.000 A 
ATOM     16  C   UNL     1       1.088   9.999  18.616  0.00  0.00    +0.000 A 
ATOM     17  C   UNL     1      -0.293  10.052  18.333  0.00  0.00    +0.000 A 
BRANCH  16  18
ATOM     18  C   UNL     1       1.855   8.719  18.629  0.00  0.00    +0.000 A 
ATOM     19  C   UNL     1       2.817   8.432  17.641  0.00  0.00    +0.000 A 
ATOM     20  C   UNL     1       3.507   7.215  17.612  0.00  0.00    +0.000 A 
ATOM     21  C   UNL     1       3.271   6.254  18.588  0.00  0.00    +0.000 A 
ATOM     22  C   UNL     1       2.341   6.504  19.599  0.00  0.00    +0.000 A 
ATOM     23  C   UNL     1       2.086   5.481  20.669  0.00  0.00    +0.000 C 
ATOM     24  C   UNL     1       1.639   7.725  19.605  0.00  0.00    +0.000 A 
ENDBRANCH  16  18
ENDBRANCH   5  12
BRANCH   1  26
ATOM     25  C   UNL     1      -7.761  13.052  20.698  0.00  0.00    +0.000 C 
ATOM     26  O   UNL     1      -7.635  12.714  19.317  0.00  0.00    +0.000 OA
ENDBRANCH   1  26
BRANCH   3  27
ATOM     27  O   UNL     1      -3.065  13.070  20.157  0.00  0.00    +0.000 OA
ATOM     28  C   UNL     1      -2.788  12.533  21.442  0.00  0.00    +0.000 C 
ENDBRANCH   3  27
TORSDOF 4
ENDMDL
MODEL 5
REMARK VINA RESULT:      -8.1      0.960      1.690
REMARK  Name = 
REMARK  7 active torsions:
REMARK  status: ('A' for Active; 'I' for Inactive)
REMARK    1  A    between atoms: C_1  and  O_2
REMARK    2  A    between atoms: O_2  and  C_3
REMARK    3  A    between atoms: C_5  and  O_6
REMARK    4  A    between atoms: O_6  and  C_7
REMARK    5  A    between atoms: C_9  and  C_10
REMARK    6  A    between atoms: C_14  and  C_15
REMARK    7  A    between atoms: C_19  and  C_20
REMARK                            x       y       z     vdW  Elec       q    Type
REMARK                         _______ _______ _______ _____ _____    ______ ____
ROOT
ATOM      1  C   UNL     1      -2.948  13.031  21.223  0.00  0.00    +0.000 A 
ATOM      2  C   UNL     1      -2.480  12.655  19.962  0.00  0.00    +0.000 A 
ATOM      3  C   UNL     1      -1.458  11.682  19.788  0.00  0.00    +0.000 A 
ATOM      4  C   UNL     1      -0.831  11.098  20.909  0.00  0.00    +0.000 A 
ATOM      5  C   UNL     1       0.261  10.091  20.951  0.00  0.00    +0.000 A 
ATOM      6  C   UNL     1       0.582   9.543  22.139  0.00  0.00    +0.000 A 
ATOM      7  C   UNL     1      -0.034   9.885  23.408  0.00  0.00    +0.000 A 
ATOM      8  O   UNL     1       0.273   9.308  24.444  0.00  0.00    +0.000 OA
ATOM      9  O   UNL     1      -0.939  10.918  23.380  0.00  0.00    +0.000 OA
ATOM     10  C   UNL     1      -1.356  11.490  22.157  0.00  0.00    +0.000 A 
ATOM     11  C   UNL     1      -2.388  12.423  22.332  0.00  0.00    +0.000 A 
ENDROOT
BRANCH   5  12
ATOM     12  C   UNL     1       1.165   9.565  19.907  0.00  0.00    +0.000 A 
ATOM     13  C   UNL     1       1.362  10.303  18.735  0.00  0.00    +0.000 A 
ATOM     14  C   UNL     1       1.968   9.707  17.635  0.00  0.00    +0.000 A 
ATOM     15  C   UNL     1       2.368   8.368  17.694  0.00  0.00    +0.000 A 
ATOM     16  C   UNL     1       2.217   7.592  18.859  0.00  0.00    +0.000 A 
ATOM     17  C   UNL     1       1.618   8.228  19.966  0.00  0.00    +0.000 A 
BRANCH  16  18
ATOM     18  C   UNL     1       2.622   6.157  18.881  0.00  0.00    +0.000 A 
ATOM     19  C   UNL     1       2.270   5.312  19.952  0.00  0.00    +0.000 A 
ATOM     20  C   UNL     1       2.687   3.977  20.009  0.00  0.00    +0.000 A 
ATOM     21  C   UNL     1       3.454   3.440  18.982  0.00  0.00    +0.000 A 
ATOM     22  C   UNL     1       3.810   4.234  17.890  0.00  0.00    +0.000 A 
ATOM     23  C   UNL     1       4.626   3.663  16.767  0.00  0.00    +0.000 C 
ATOM     24  C   UNL     1       3.401   5.581  17.855  0.00  0.00    +0.000 A 
ENDBRANCH  16  18
ENDBRANCH   5  12
BRANCH   1  26
ATOM     25  C   UNL     1      -4.902  13.842  22.319  0.00  0.00    +0.000 C 
ATOM     26  O   UNL     1      -3.961  13.953  21.251  0.00  0.00    +0.000 OA
ENDBRANCH   1  26
BRANCH   3  27
ATOM     27  O   UNL     1      -1.380  11.214  18.502  0.00  0.00    +0.000 OA
ATOM     28  C   UNL     1      -2.533  11.357  17.686  0.00  0.00    +0.000 C 
ENDBRANCH   3  27
TORSDOF 4
ENDMDL
MODEL 6
REMARK VINA RESULT:      -8.1      1.661      2.449
REMARK  Name = 
REMARK  7 active torsions:
REMARK  status: ('A' for Active; 'I' for Inactive)
REMARK    1  A    between atoms: C_1  and  O_2
REMARK    2  A    between atoms: O_2  and  C_3
REMARK    3  A    between atoms: C_5  and  O_6
REMARK    4  A    between atoms: O_6  and  C_7
REMARK    5  A    between atoms: C_9  and  C_10
REMARK    6  A    between atoms: C_14  and  C_15
REMARK    7  A    between atoms: C_19  and  C_20
REMARK                            x       y       z     vdW  Elec       q    Type
REMARK                         _______ _______ _______ _____ _____    ______ ____
ROOT
ATOM      1  C   UNL     1      -4.457  12.258  18.812  0.00  0.00    +0.000 A 
ATOM      2  C   UNL     1      -3.711  11.401  17.999  0.00  0.00    +0.000 A 
ATOM      3  C   UNL     1      -2.418  10.939  18.365  0.00  0.00    +0.000 A 
ATOM      4  C   UNL     1      -1.811  11.387  19.558  0.00  0.00    +0.000 A 
ATOM      5  C   UNL     1      -0.473  11.050  20.110  0.00  0.00    +0.000 A 
ATOM      6  C   UNL     1      -0.174  11.459  21.359  0.00  0.00    +0.000 A 
ATOM      7  C   UNL     1      -1.048  12.244  22.210  0.00  0.00    +0.000 A 
ATOM      8  O   UNL     1      -0.730  12.538  23.356  0.00  0.00    +0.000 OA
ATOM      9  O   UNL     1      -2.221  12.673  21.638  0.00  0.00    +0.000 OA
ATOM     10  C   UNL     1      -2.613  12.228  20.355  0.00  0.00    +0.000 A 
ATOM     11  C   UNL     1      -3.903  12.659  20.014  0.00  0.00    +0.000 A 
ENDROOT
BRANCH   5  12
ATOM     12  C   UNL     1       0.696  10.362  19.525  0.00  0.00    +0.000 A 
ATOM     13  C   UNL     1       1.412  10.980  18.495  0.00  0.00    +0.000 A 
ATOM     14  C   UNL     1       2.322  10.244  17.745  0.00  0.00    +0.000 A 
ATOM     15  C   UNL     1       2.512   8.883  18.010  0.00  0.00    +0.000 A 
ATOM     16  C   UNL     1       1.837   8.223  19.054  0.00  0.00    +0.000 A 
ATOM     17  C   UNL     1       0.935   8.999  19.811  0.00  0.00    +0.000 A 
BRANCH  16  18
ATOM     18  C   UNL     1       2.035   6.763  19.291  0.00  0.00    +0.000 A 
ATOM     19  C   UNL     1       1.839   6.194  20.565  0.00  0.00    +0.000 A 
ATOM     20  C   UNL     1       2.070   4.837  20.813  0.00  0.00    +0.000 A 
ATOM     21  C   UNL     1       2.487   4.000  19.784  0.00  0.00    +0.000 A 
ATOM     22  C   UNL     1       2.675   4.515  18.500  0.00  0.00    +0.000 A 
ATOM     23  C   UNL     1       3.109   3.620  17.375  0.00  0.00    +0.000 C 
ATOM     24  C   UNL     1       2.457   5.888  18.269  0.00  0.00    +0.000 A 
ENDBRANCH  16  18
ENDBRANCH   5  12
BRANCH   1  26
ATOM     25  C   UNL     1      -6.683  11.562  18.327  0.00  0.00    +0.000 C 
ATOM     26  O   UNL     1      -5.704  12.601  18.360  0.00  0.00    +0.000 OA
ENDBRANCH   1  26
BRANCH   3  27
ATOM     27  O   UNL     1      -2.004   9.866  17.619  0.00  0.00    +0.000 OA
ATOM     28  C   UNL     1      -2.430   9.811  16.266  0.00  0.00    +0.000 C 
ENDBRANCH   3  27
TORSDOF 4
ENDMDL
MODEL 7
REMARK VINA RESULT:      -8.1      0.758      1.266
REMARK  Name = 
REMARK  7 active torsions:
REMARK  status: ('A' for Active; 'I' for Inactive)
REMARK    1  A    between atoms: C_1  and  O_2
REMARK    2  A    between atoms: O_2  and  C_3
REMARK    3  A    between atoms: C_5  and  O_6
REMARK    4  A    between atoms: O_6  and  C_7
REMARK    5  A    between atoms: C_9  and  C_10
REMARK    6  A    between atoms: C_14  and  C_15
REMARK    7  A    between atoms: C_19  and  C_20
REMARK                            x       y       z     vdW  Elec       q    Type
REMARK                         _______ _______ _______ _____ _____    ______ ____
ROOT
ATOM      1  C   UNL     1      -2.362  12.593  20.200  0.00  0.00    +0.000 A 
ATOM      2  C   UNL     1      -1.884  11.880  19.097  0.00  0.00    +0.000 A 
ATOM      3  C   UNL     1      -0.951  10.816  19.225  0.00  0.00    +0.000 A 
ATOM      4  C   UNL     1      -0.424  10.477  20.489  0.00  0.00    +0.000 A 
ATOM      5  C   UNL     1       0.568   9.426  20.837  0.00  0.00    +0.000 A 
ATOM      6  C   UNL     1       0.792   9.163  22.140  0.00  0.00    +0.000 A 
ATOM      7  C   UNL     1       0.164   9.856  23.249  0.00  0.00    +0.000 A 
ATOM      8  O   UNL     1       0.377   9.529  24.410  0.00  0.00    +0.000 OA
ATOM      9  O   UNL     1      -0.639  10.920  22.919  0.00  0.00    +0.000 OA
ATOM     10  C   UNL     1      -0.956  11.205  21.571  0.00  0.00    +0.000 A 
ATOM     11  C   UNL     1      -1.902  12.233  21.454  0.00  0.00    +0.000 A 
ENDROOT
BRANCH   5  12
ATOM     12  C   UNL     1       1.457   8.588  20.006  0.00  0.00    +0.000 A 
ATOM     13  C   UNL     1       1.994   9.116  18.827  0.00  0.00    +0.000 A 
ATOM     14  C   UNL     1       2.588   8.271  17.898  0.00  0.00    +0.000 A 
ATOM     15  C   UNL     1       2.638   6.892  18.133  0.00  0.00    +0.000 A 
ATOM     16  C   UNL     1       2.138   6.317  19.317  0.00  0.00    +0.000 A 
ATOM     17  C   UNL     1       1.559   7.200  20.251  0.00  0.00    +0.000 A 
BRANCH  16  18
ATOM     18  C   UNL     1       2.176   4.840  19.525  0.00  0.00    +0.000 A 
ATOM     19  C   UNL     1       0.995   4.072  19.548  0.00  0.00    +0.000 A 
ATOM     20  C   UNL     1       1.012   2.695  19.793  0.00  0.00    +0.000 A 
ATOM     21  C   UNL     1       2.219   2.038  20.002  0.00  0.00    +0.000 A 
ATOM     22  C   UNL     1       3.417   2.754  19.967  0.00  0.00    +0.000 A 
ATOM     23  C   UNL     1       4.730   2.054  20.176  0.00  0.00    +0.000 C 
ATOM     24  C   UNL     1       3.384   4.143  19.739  0.00  0.00    +0.000 A 
ENDBRANCH  16  18
ENDBRANCH   5  12
BRANCH   1  26
ATOM     25  C   UNL     1      -4.064  14.025  21.052  0.00  0.00    +0.000 C 
ATOM     26  O   UNL     1      -3.285  13.572  19.945  0.00  0.00    +0.000 OA
ENDBRANCH   1  26
BRANCH   3  27
ATOM     27  O   UNL     1      -0.870  10.040  18.097  0.00  0.00    +0.000 OA
ATOM     28  C   UNL     1      -1.918  10.161  17.147  0.00  0.00    +0.000 C 
ENDBRANCH   3  27
TORSDOF 4
ENDMDL
MODEL 8
REMARK VINA RESULT:      -8.0      1.145      1.172
REMARK  Name = 
REMARK  7 active torsions:
REMARK  status: ('A' for Active; 'I' for Inactive)
REMARK    1  A    between atoms: C_1  and  O_2
REMARK    2  A    between atoms: O_2  and  C_3
REMARK    3  A    between atoms: C_5  and  O_6
REMARK    4  A    between atoms: O_6  and  C_7
REMARK    5  A    between atoms: C_9  and  C_10
REMARK    6  A    between atoms: C_14  and  C_15
REMARK    7  A    between atoms: C_19  and  C_20
REMARK                            x       y       z     vdW  Elec       q    Type
REMARK                         _______ _______ _______ _____ _____    ______ ____
ROOT
ATOM      1  C   UNL     1      -1.456  13.450  20.312  0.00  0.00    +0.000 A 
ATOM      2  C   UNL     1      -1.052  12.798  19.145  0.00  0.00    +0.000 A 
ATOM      3  C   UNL     1      -0.349  11.563  19.168  0.00  0.00    +0.000 A 
ATOM      4  C   UNL     1       0.021  10.975  20.396  0.00  0.00    +0.000 A 
ATOM      5  C   UNL     1       0.770   9.715  20.642  0.00  0.00    +0.000 A 
ATOM      6  C   UNL     1       0.854   9.256  21.906  0.00  0.00    +0.000 A 
ATOM      7  C   UNL     1       0.298   9.918  23.071  0.00  0.00    +0.000 A 
ATOM      8  O   UNL     1       0.370   9.416  24.187  0.00  0.00    +0.000 OA
ATOM      9  O   UNL     1      -0.264  11.152  22.853  0.00  0.00    +0.000 OA
ATOM     10  C   UNL     1      -0.432  11.656  21.543  0.00  0.00    +0.000 A 
ATOM     11  C   UNL     1      -1.156  12.857  21.525  0.00  0.00    +0.000 A 
ENDROOT
BRANCH   5  12
ATOM     12  C   UNL     1       1.536   8.825  19.744  0.00  0.00    +0.000 A 
ATOM     13  C   UNL     1       2.037   9.332  18.541  0.00  0.00    +0.000 A 
ATOM     14  C   UNL     1       2.503   8.461  17.562  0.00  0.00    +0.000 A 
ATOM     15  C   UNL     1       2.457   7.079  17.774  0.00  0.00    +0.000 A 
ATOM     16  C   UNL     1       1.989   6.521  18.979  0.00  0.00    +0.000 A 
ATOM     17  C   UNL     1       1.542   7.429  19.962  0.00  0.00    +0.000 A 
BRANCH  16  18
ATOM     18  C   UNL     1       1.922   5.042  19.164  0.00  0.00    +0.000 A 
ATOM     19  C   UNL     1       1.942   4.165  18.062  0.00  0.00    +0.000 A 
ATOM     20  C   UNL     1       1.829   2.779  18.218  0.00  0.00    +0.000 A 
ATOM     21  C   UNL     1       1.713   2.226  19.488  0.00  0.00    +0.000 A 
ATOM     22  C   UNL     1       1.709   3.056  20.611  0.00  0.00    +0.000 A 
ATOM     23  C   UNL     1       1.600   2.471  21.990  0.00  0.00    +0.000 C 
ATOM     24  C   UNL     1       1.804   4.450  20.439  0.00  0.00    +0.000 A 
ENDBRANCH  16  18
ENDBRANCH   5  12
BRANCH   1  26
ATOM     25  C   UNL     1      -2.701  15.207  21.332  0.00  0.00    +0.000 C 
ATOM     26  O   UNL     1      -2.158  14.615  20.152  0.00  0.00    +0.000 OA
ENDBRANCH   1  26
BRANCH   3  27
ATOM     27  O   UNL     1      -0.343  10.930  17.952  0.00  0.00    +0.000 OA
ATOM     28  C   UNL     1      -1.526  10.246  17.568  0.00  0.00    +0.000 C 
ENDBRANCH   3  27
TORSDOF 4
ENDMDL
MODEL 9
REMARK VINA RESULT:      -7.8      4.615      9.154
REMARK  Name = 
REMARK  7 active torsions:
REMARK  status: ('A' for Active; 'I' for Inactive)
REMARK    1  A    between atoms: C_1  and  O_2
REMARK    2  A    between atoms: O_2  and  C_3
REMARK    3  A    between atoms: C_5  and  O_6
REMARK    4  A    between atoms: O_6  and  C_7
REMARK    5  A    between atoms: C_9  and  C_10
REMARK    6  A    between atoms: C_14  and  C_15
REMARK    7  A    between atoms: C_19  and  C_20
REMARK                            x       y       z     vdW  Elec       q    Type
REMARK                         _______ _______ _______ _____ _____    ______ ____
ROOT
ATOM      1  C   UNL     1       6.228   3.852  14.186  0.00  0.00    +0.000 A 
ATOM      2  C   UNL     1       5.013   3.608  14.831  0.00  0.00    +0.000 A 
ATOM      3  C   UNL     1       4.631   4.288  16.019  0.00  0.00    +0.000 A 
ATOM      4  C   UNL     1       5.510   5.207  16.629  0.00  0.00    +0.000 A 
ATOM      5  C   UNL     1       5.320   5.999  17.872  0.00  0.00    +0.000 A 
ATOM      6  C   UNL     1       6.226   6.951  18.170  0.00  0.00    +0.000 A 
ATOM      7  C   UNL     1       7.411   7.248  17.387  0.00  0.00    +0.000 A 
ATOM      8  O   UNL     1       8.166   8.163  17.691  0.00  0.00    +0.000 OA
ATOM      9  O   UNL     1       7.653   6.415  16.322  0.00  0.00    +0.000 OA
ATOM     10  C   UNL     1       6.710   5.439  15.928  0.00  0.00    +0.000 A 
ATOM     11  C   UNL     1       7.076   4.796  14.737  0.00  0.00    +0.000 A 
ENDROOT
BRANCH   5  12
ATOM     12  C   UNL     1       4.310   5.927  18.949  0.00  0.00    +0.000 A 
ATOM     13  C   UNL     1       4.002   4.688  19.519  0.00  0.00    +0.000 A 
ATOM     14  C   UNL     1       2.871   4.554  20.316  0.00  0.00    +0.000 A 
ATOM     15  C   UNL     1       2.034   5.653  20.537  0.00  0.00    +0.000 A 
ATOM     16  C   UNL     1       2.317   6.927  20.009  0.00  0.00    +0.000 A 
ATOM     17  C   UNL     1       3.482   7.039  19.222  0.00  0.00    +0.000 A 
BRANCH  16  18
ATOM     18  C   UNL     1       1.388   8.073  20.235  0.00  0.00    +0.000 A 
ATOM     19  C   UNL     1       1.042   8.952  19.191  0.00  0.00    +0.000 A 
ATOM     20  C   UNL     1       0.212  10.060  19.401  0.00  0.00    +0.000 A 
ATOM     21  C   UNL     1      -0.314  10.309  20.663  0.00  0.00    +0.000 A 
ATOM     22  C   UNL     1      -0.015   9.452  21.724  0.00  0.00    +0.000 A 
ATOM     23  C   UNL     1      -0.590   9.700  23.089  0.00  0.00    +0.000 C 
ATOM     24  C   UNL     1       0.837   8.352  21.503  0.00  0.00    +0.000 A 
ENDBRANCH  16  18
ENDBRANCH   5  12
BRANCH   1  26
ATOM     25  C   UNL     1       5.449   3.227  12.024  0.00  0.00    +0.000 C 
ATOM     26  O   UNL     1       6.460   3.157  13.030  0.00  0.00    +0.000 OA
ENDBRANCH   1  26
BRANCH   3  27
ATOM     27  O   UNL     1       3.295   4.162  16.299  0.00  0.00    +0.000 OA
ATOM     28  C   UNL     1       2.880   2.989  16.982  0.00  0.00    +0.000 C 
ENDBRANCH   3  27
TORSDOF 4
ENDMDL
