MODEL 1
REMARK VINA RESULT:      -9.5      0.000      0.000
REMARK  Name = 
REMARK  8 active torsions:
REMARK  status: ('A' for Active; 'I' for Inactive)
REMARK    1  A    between atoms: C_2  and  O_3
REMARK    2  A    between atoms: C_2  and  C_4
REMARK    3  A    between atoms: C_6  and  C_7
REMARK    4  A    between atoms: C_10  and  C_11
REMARK    5  A    between atoms: C_11  and  C_12
REMARK    6  A    between atoms: C_12  and  C_13
REMARK    7  A    between atoms: C_12  and  C_21
REMARK    8  A    between atoms: C_13  and  C_15
REMARK                            x       y       z     vdW  Elec       q    Type
REMARK                         _______ _______ _______ _____ _____    ______ ____
ROOT
ATOM      1  C   UNL     1       3.192   7.009  18.995  0.00  0.00    +0.000 C 
ENDROOT
BRANCH   1   5
ATOM      2  C   UNL     1      -0.029   9.897  18.981  0.00  0.00    +0.000 A 
ATOM      3  C   UNL     1       0.687   9.646  17.804  0.00  0.00    +0.000 A 
ATOM      4  C   UNL     1       1.779   8.764  17.810  0.00  0.00    +0.000 A 
ATOM      5  C   UNL     1       2.179   8.132  18.996  0.00  0.00    +0.000 A 
ATOM      6  C   UNL     1       1.529   8.470  20.190  0.00  0.00    +0.000 A 
ATOM      7  C   UNL     1       0.437   9.337  20.180  0.00  0.00    +0.000 A 
BRANCH   2  10
ATOM      8  C   UNL     1      -3.307  11.399  18.414  0.00  0.00    +0.000 A 
ATOM      9  C   UNL     1      -2.374  10.458  18.064  0.00  0.00    +0.000 A 
ATOM     10  C   UNL     1      -1.293  10.641  18.969  0.00  0.00    +0.000 A 
ATOM     11  N   UNL     1      -1.565  11.653  19.809  0.00  0.00    +0.000 NA
ATOM     12  O   UNL     1      -2.824  12.118  19.466  0.00  0.00    +0.000 OA
BRANCH   8  14
ATOM     13  O   UNL     1      -5.667  11.567  18.454  0.00  0.00    +0.000 OA
ATOM     14  C   UNL     1      -4.600  11.700  17.865  0.00  0.00    +0.000 C 
BRANCH  14  15
ATOM     15  O   UNL     1      -4.533  12.156  16.589  0.00  0.00    +0.000 OA
ATOM     16  H   UNL     1      -4.928  11.526  15.948  0.00  0.00    +0.000 HD
ENDBRANCH  14  15
ENDBRANCH   8  14
ENDBRANCH   2  10
ENDBRANCH   1   5
BRANCH   1  17
ATOM     17  C   UNL     1       2.947   5.787  18.081  0.00  0.00    +0.000 C 
BRANCH  17  18
ATOM     18  C   UNL     1       2.277   4.680  18.908  0.00  0.00    +0.000 A 
ATOM     19  C   UNL     1       1.506   3.697  18.270  0.00  0.00    +0.000 A 
ATOM     20  C   UNL     1       0.838   2.720  19.012  0.00  0.00    +0.000 A 
ATOM     21  C   UNL     1       0.930   2.707  20.402  0.00  0.00    +0.000 A 
ATOM     22  C   UNL     1       1.705   3.663  21.053  0.00  0.00    +0.000 A 
ATOM     23  C   UNL     1       2.379   4.635  20.312  0.00  0.00    +0.000 A 
ENDBRANCH  17  18
BRANCH  17  24
ATOM     24  C   UNL     1       4.238   5.280  17.420  0.00  0.00    +0.000 C 
ATOM     25  O   UNL     1       4.241   4.427  16.530  0.00  0.00    +0.000 OA
BRANCH  24  26
ATOM     26  C   UNL     1       5.555   5.840  17.856  0.00  0.00    +0.000 A 
ATOM     27  C   UNL     1       6.274   5.293  18.923  0.00  0.00    +0.000 A 
ATOM     28  C   UNL     1       7.539   5.781  19.251  0.00  0.00    +0.000 A 
ATOM     29  C   UNL     1       8.090   6.835  18.530  0.00  0.00    +0.000 A 
ATOM     30  C   UNL     1       7.372   7.409  17.482  0.00  0.00    +0.000 A 
ATOM     31  C   UNL     1       6.111   6.910  17.140  0.00  0.00    +0.000 A 
ENDBRANCH  24  26
ENDBRANCH  17  24
ENDBRANCH   1  17
TORSDOF 8
ENDMDL
MODEL 2
REMARK VINA RESULT:      -9.4      0.263      1.269
REMARK  Name = 
REMARK  8 active torsions:
REMARK  status: ('A' for Active; 'I' for Inactive)
REMARK    1  A    between atoms: C_2  and  O_3
REMARK    2  A    between atoms: C_2  and  C_4
REMARK    3  A    between atoms: C_6  and  C_7
REMARK    4  A    between atoms: C_10  and  C_11
REMARK    5  A    between atoms: C_11  and  C_12
REMARK    6  A    between atoms: C_12  and  C_13
REMARK    7  A    between atoms: C_12  and  C_21
REMARK    8  A    between atoms: C_13  and  C_15
REMARK                            x       y       z     vdW  Elec       q    Type
REMARK                         _______ _______ _______ _____ _____    ______ ____
ROOT
ATOM      1  C   UNL     1       3.263   6.940  19.032  0.00  0.00    +0.000 C 
ENDROOT
BRANCH   1   5
ATOM      2  C   UNL     1       0.128   9.921  18.958  0.00  0.00    +0.000 A 
ATOM      3  C   UNL     1       0.913   9.706  17.818  0.00  0.00    +0.000 A 
ATOM      4  C   UNL     1       1.978   8.792  17.849  0.00  0.00    +0.000 A 
ATOM      5  C   UNL     1       2.282   8.091  19.025  0.00  0.00    +0.000 A 
ATOM      6  C   UNL     1       1.565   8.390  20.191  0.00  0.00    +0.000 A 
ATOM      7  C   UNL     1       0.500   9.290  20.154  0.00  0.00    +0.000 A 
BRANCH   2  10
ATOM      8  C   UNL     1      -3.162  11.402  18.406  0.00  0.00    +0.000 A 
ATOM      9  C   UNL     1      -2.298  10.358  18.199  0.00  0.00    +0.000 A 
ATOM     10  C   UNL     1      -1.111  10.703  18.902  0.00  0.00    +0.000 A 
ATOM     11  N   UNL     1      -1.258  11.902  19.488  0.00  0.00    +0.000 NA
ATOM     12  O   UNL     1      -2.539  12.332  19.183  0.00  0.00    +0.000 OA
BRANCH   8  14
ATOM     13  O   UNL     1      -5.521  11.282  18.542  0.00  0.00    +0.000 OA
ATOM     14  C   UNL     1      -4.505  11.625  17.948  0.00  0.00    +0.000 C 
BRANCH  14  15
ATOM     15  O   UNL     1      -4.550  12.267  16.753  0.00  0.00    +0.000 OA
ATOM     16  H   UNL     1      -3.906  13.005  16.703  0.00  0.00    +0.000 HD
ENDBRANCH  14  15
ENDBRANCH   8  14
ENDBRANCH   2  10
ENDBRANCH   1   5
BRANCH   1  17
ATOM     17  C   UNL     1       2.937   5.680  18.199  0.00  0.00    +0.000 C 
BRANCH  17  18
ATOM     18  C   UNL     1       2.281   4.638  19.117  0.00  0.00    +0.000 A 
ATOM     19  C   UNL     1       2.560   4.640  20.493  0.00  0.00    +0.000 A 
ATOM     20  C   UNL     1       2.022   3.662  21.331  0.00  0.00    +0.000 A 
ATOM     21  C   UNL     1       1.196   2.666  20.812  0.00  0.00    +0.000 A 
ATOM     22  C   UNL     1       0.893   2.658  19.453  0.00  0.00    +0.000 A 
ATOM     23  C   UNL     1       1.424   3.640  18.616  0.00  0.00    +0.000 A 
ENDBRANCH  17  18
BRANCH  17  24
ATOM     24  C   UNL     1       4.177   5.100  17.500  0.00  0.00    +0.000 C 
ATOM     25  O   UNL     1       4.111   4.188  16.674  0.00  0.00    +0.000 OA
BRANCH  24  26
ATOM     26  C   UNL     1       5.527   5.661  17.818  0.00  0.00    +0.000 A 
ATOM     27  C   UNL     1       6.094   6.694  17.067  0.00  0.00    +0.000 A 
ATOM     28  C   UNL     1       7.316   7.255  17.440  0.00  0.00    +0.000 A 
ATOM     29  C   UNL     1       7.994   6.774  18.555  0.00  0.00    +0.000 A 
ATOM     30  C   UNL     1       7.454   5.724  19.296  0.00  0.00    +0.000 A 
ATOM     31  C   UNL     1       6.221   5.172  18.935  0.00  0.00    +0.000 A 
ENDBRANCH  24  26
ENDBRANCH  17  24
ENDBRANCH   1  17
TORSDOF 8
ENDMDL
MODEL 3
REMARK VINA RESULT:      -9.1      1.017      1.805
REMARK  Name = 
REMARK  8 active torsions:
REMARK  status: ('A' for Active; 'I' for Inactive)
REMARK    1  A    between atoms: C_2  and  O_3
REMARK    2  A    between atoms: C_2  and  C_4
REMARK    3  A    between atoms: C_6  and  C_7
REMARK    4  A    between atoms: C_10  and  C_11
REMARK    5  A    between atoms: C_11  and  C_12
REMARK    6  A    between atoms: C_12  and  C_13
REMARK    7  A    between atoms: C_12  and  C_21
REMARK    8  A    between atoms: C_13  and  C_15
REMARK                            x       y       z     vdW  Elec       q    Type
REMARK                         _______ _______ _______ _____ _____    ______ ____
ROOT
ATOM      1  C   UNL     1       3.169   7.013  19.035  0.00  0.00    +0.000 C 
ENDROOT
BRANCH   1   5
ATOM      2  C   UNL     1       0.017   9.977  19.068  0.00  0.00    +0.000 A 
ATOM      3  C   UNL     1       0.711   9.710  17.880  0.00  0.00    +0.000 A 
ATOM      4  C   UNL     1       1.782   8.802  17.871  0.00  0.00    +0.000 A 
ATOM      5  C   UNL     1       2.183   8.160  19.051  0.00  0.00    +0.000 A 
ATOM      6  C   UNL     1       1.558   8.511  20.254  0.00  0.00    +0.000 A 
ATOM      7  C   UNL     1       0.487   9.405  20.259  0.00  0.00    +0.000 A 
BRANCH   2  10
ATOM      8  C   UNL     1      -2.869  12.133  19.656  0.00  0.00    +0.000 A 
ATOM      9  C   UNL     1      -1.625  11.709  20.046  0.00  0.00    +0.000 A 
ATOM     10  C   UNL     1      -1.229  10.750  19.073  0.00  0.00    +0.000 A 
ATOM     11  N   UNL     1      -2.198  10.601  18.156  0.00  0.00    +0.000 NA
ATOM     12  O   UNL     1      -3.215  11.470  18.517  0.00  0.00    +0.000 OA
BRANCH   8  14
ATOM     13  O   UNL     1      -4.900  12.838  20.642  0.00  0.00    +0.000 OA
ATOM     14  C   UNL     1      -3.770  13.088  20.239  0.00  0.00    +0.000 C 
BRANCH  14  15
ATOM     15  O   UNL     1      -3.242  14.336  20.300  0.00  0.00    +0.000 OA
ATOM     16  H   UNL     1      -2.507  14.398  20.948  0.00  0.00    +0.000 HD
ENDBRANCH  14  15
ENDBRANCH   8  14
ENDBRANCH   2  10
ENDBRANCH   1   5
BRANCH   1  17
ATOM     17  C   UNL     1       2.816   5.739  18.237  0.00  0.00    +0.000 C 
BRANCH  17  18
ATOM     18  C   UNL     1       2.207   4.708  19.199  0.00  0.00    +0.000 A 
ATOM     19  C   UNL     1       2.574   4.710  20.554  0.00  0.00    +0.000 A 
ATOM     20  C   UNL     1       2.079   3.742  21.429  0.00  0.00    +0.000 A 
ATOM     21  C   UNL     1       1.209   2.755  20.969  0.00  0.00    +0.000 A 
ATOM     22  C   UNL     1       0.819   2.747  19.632  0.00  0.00    +0.000 A 
ATOM     23  C   UNL     1       1.307   3.720  18.758  0.00  0.00    +0.000 A 
ENDBRANCH  17  18
BRANCH  17  24
ATOM     24  C   UNL     1       4.027   5.155  17.494  0.00  0.00    +0.000 C 
ATOM     25  O   UNL     1       3.924   4.268  16.644  0.00  0.00    +0.000 OA
BRANCH  24  26
ATOM     26  C   UNL     1       5.396   5.678  17.797  0.00  0.00    +0.000 A 
ATOM     27  C   UNL     1       5.973   6.712  17.054  0.00  0.00    +0.000 A 
ATOM     28  C   UNL     1       7.214   7.238  17.414  0.00  0.00    +0.000 A 
ATOM     29  C   UNL     1       7.901   6.722  18.507  0.00  0.00    +0.000 A 
ATOM     30  C   UNL     1       7.350   5.671  19.240  0.00  0.00    +0.000 A 
ATOM     31  C   UNL     1       6.098   5.154  18.892  0.00  0.00    +0.000 A 
ENDBRANCH  24  26
ENDBRANCH  17  24
ENDBRANCH   1  17
TORSDOF 8
ENDMDL
MODEL 4
REMARK VINA RESULT:      -9.1      2.319      4.819
REMARK  Name = 
REMARK  8 active torsions:
REMARK  status: ('A' for Active; 'I' for Inactive)
REMARK    1  A    between atoms: C_2  and  O_3
REMARK    2  A    between atoms: C_2  and  C_4
REMARK    3  A    between atoms: C_6  and  C_7
REMARK    4  A    between atoms: C_10  and  C_11
REMARK    5  A    between atoms: C_11  and  C_12
REMARK    6  A    between atoms: C_12  and  C_13
REMARK    7  A    between atoms: C_12  and  C_21
REMARK    8  A    between atoms: C_13  and  C_15
REMARK                            x       y       z     vdW  Elec       q    Type
REMARK                         _______ _______ _______ _____ _____    ______ ____
ROOT
ATOM      1  C   UNL     1       3.104   6.039  17.838  0.00  0.00    +0.000 C 
ENDROOT
BRANCH   1   5
ATOM      2  C   UNL     1       1.070   9.328  19.778  0.00  0.00    +0.000 A 
ATOM      3  C   UNL     1       1.489   9.455  18.447  0.00  0.00    +0.000 A 
ATOM      4  C   UNL     1       2.212   8.423  17.827  0.00  0.00    +0.000 A 
ATOM      5  C   UNL     1       2.537   7.256  18.534  0.00  0.00    +0.000 A 
ATOM      6  C   UNL     1       2.212   7.181  19.894  0.00  0.00    +0.000 A 
ATOM      7  C   UNL     1       1.484   8.202  20.505  0.00  0.00    +0.000 A 
BRANCH   2  10
ATOM      8  C   UNL     1      -1.081  11.420  21.856  0.00  0.00    +0.000 A 
ATOM      9  C   UNL     1      -0.123  10.443  21.775  0.00  0.00    +0.000 A 
ATOM     10  C   UNL     1       0.141  10.286  20.386  0.00  0.00    +0.000 A 
ATOM     11  N   UNL     1      -0.634  11.120  19.675  0.00  0.00    +0.000 NA
ATOM     12  O   UNL     1      -1.388  11.831  20.594  0.00  0.00    +0.000 OA
BRANCH   8  14
ATOM     13  O   UNL     1      -2.811  11.626  23.457  0.00  0.00    +0.000 OA
ATOM     14  C   UNL     1      -1.743  12.004  22.989  0.00  0.00    +0.000 C 
BRANCH  14  15
ATOM     15  O   UNL     1      -1.060  13.055  23.510  0.00  0.00    +0.000 OA
ATOM     16  H   UNL     1      -0.261  12.770  24.005  0.00  0.00    +0.000 HD
ENDBRANCH  14  15
ENDBRANCH   8  14
ENDBRANCH   2  10
ENDBRANCH   1   5
BRANCH   1  17
ATOM     17  C   UNL     1       4.508   5.538  18.241  0.00  0.00    +0.000 C 
BRANCH  17  18
ATOM     18  C   UNL     1       5.330   5.294  16.967  0.00  0.00    +0.000 A 
ATOM     19  C   UNL     1       4.783   4.549  15.911  0.00  0.00    +0.000 A 
ATOM     20  C   UNL     1       5.538   4.265  14.771  0.00  0.00    +0.000 A 
ATOM     21  C   UNL     1       6.851   4.721  14.665  0.00  0.00    +0.000 A 
ATOM     22  C   UNL     1       7.406   5.477  15.694  0.00  0.00    +0.000 A 
ATOM     23  C   UNL     1       6.648   5.768  16.830  0.00  0.00    +0.000 A 
ENDBRANCH  17  18
BRANCH  17  24
ATOM     24  C   UNL     1       4.454   4.275  19.115  0.00  0.00    +0.000 C 
ATOM     25  O   UNL     1       5.463   3.740  19.577  0.00  0.00    +0.000 OA
BRANCH  24  26
ATOM     26  C   UNL     1       3.128   3.660  19.433  0.00  0.00    +0.000 A 
ATOM     27  C   UNL     1       2.500   3.854  20.667  0.00  0.00    +0.000 A 
ATOM     28  C   UNL     1       1.225   3.341  20.904  0.00  0.00    +0.000 A 
ATOM     29  C   UNL     1       0.572   2.610  19.917  0.00  0.00    +0.000 A 
ATOM     30  C   UNL     1       1.198   2.384  18.692  0.00  0.00    +0.000 A 
ATOM     31  C   UNL     1       2.469   2.913  18.446  0.00  0.00    +0.000 A 
ENDBRANCH  24  26
ENDBRANCH  17  24
ENDBRANCH   1  17
TORSDOF 8
ENDMDL
MODEL 5
REMARK VINA RESULT:      -9.1      1.505      2.106
REMARK  Name = 
REMARK  8 active torsions:
REMARK  status: ('A' for Active; 'I' for Inactive)
REMARK    1  A    between atoms: C_2  and  O_3
REMARK    2  A    between atoms: C_2  and  C_4
REMARK    3  A    between atoms: C_6  and  C_7
REMARK    4  A    between atoms: C_10  and  C_11
REMARK    5  A    between atoms: C_11  and  C_12
REMARK    6  A    between atoms: C_12  and  C_13
REMARK    7  A    between atoms: C_12  and  C_21
REMARK    8  A    between atoms: C_13  and  C_15
REMARK                            x       y       z     vdW  Elec       q    Type
REMARK                         _______ _______ _______ _____ _____    ______ ____
ROOT
ATOM      1  C   UNL     1       3.483   6.529  19.484  0.00  0.00    +0.000 C 
ENDROOT
BRANCH   1   5
ATOM      2  C   UNL     1       0.461   9.522  18.694  0.00  0.00    +0.000 A 
ATOM      3  C   UNL     1       1.351   9.146  17.680  0.00  0.00    +0.000 A 
ATOM      4  C   UNL     1       2.381   8.228  17.942  0.00  0.00    +0.000 A 
ATOM      5  C   UNL     1       2.542   7.685  19.225  0.00  0.00    +0.000 A 
ATOM      6  C   UNL     1       1.719   8.146  20.259  0.00  0.00    +0.000 A 
ATOM      7  C   UNL     1       0.690   9.049  19.995  0.00  0.00    +0.000 A 
BRANCH   2  10
ATOM      8  C   UNL     1      -2.575  11.113  17.439  0.00  0.00    +0.000 A 
ATOM      9  C   UNL     1      -1.631  10.129  17.310  0.00  0.00    +0.000 A 
ATOM     10  C   UNL     1      -0.744  10.308  18.407  0.00  0.00    +0.000 A 
ATOM     11  N   UNL     1      -1.135  11.359  19.145  0.00  0.00    +0.000 NA
ATOM     12  O   UNL     1      -2.281  11.854  18.544  0.00  0.00    +0.000 OA
BRANCH   8  14
ATOM     13  O   UNL     1      -4.862  11.582  17.054  0.00  0.00    +0.000 OA
ATOM     14  C   UNL     1      -3.720  11.439  16.633  0.00  0.00    +0.000 C 
BRANCH  14  15
ATOM     15  O   UNL     1      -3.413  11.571  15.318  0.00  0.00    +0.000 OA
ATOM     16  H   UNL     1      -2.574  11.119  15.084  0.00  0.00    +0.000 HD
ENDBRANCH  14  15
ENDBRANCH   8  14
ENDBRANCH   2  10
ENDBRANCH   1   5
BRANCH   1  17
ATOM     17  C   UNL     1       3.483   5.335  18.504  0.00  0.00    +0.000 C 
BRANCH  17  18
ATOM     18  C   UNL     1       2.431   4.317  18.970  0.00  0.00    +0.000 A 
ATOM     19  C   UNL     1       2.034   4.282  20.315  0.00  0.00    +0.000 A 
ATOM     20  C   UNL     1       1.127   3.322  20.768  0.00  0.00    +0.000 A 
ATOM     21  C   UNL     1       0.599   2.381  19.886  0.00  0.00    +0.000 A 
ATOM     22  C   UNL     1       0.966   2.410  18.543  0.00  0.00    +0.000 A 
ATOM     23  C   UNL     1       1.867   3.375  18.088  0.00  0.00    +0.000 A 
ENDBRANCH  17  18
BRANCH  17  24
ATOM     24  C   UNL     1       4.867   4.681  18.373  0.00  0.00    +0.000 C 
ATOM     25  O   UNL     1       5.475   4.208  19.335  0.00  0.00    +0.000 OA
BRANCH  24  26
ATOM     26  C   UNL     1       5.514   4.598  17.027  0.00  0.00    +0.000 A 
ATOM     27  C   UNL     1       4.785   4.295  15.874  0.00  0.00    +0.000 A 
ATOM     28  C   UNL     1       5.400   4.311  14.621  0.00  0.00    +0.000 A 
ATOM     29  C   UNL     1       6.754   4.608  14.510  0.00  0.00    +0.000 A 
ATOM     30  C   UNL     1       7.499   4.884  15.655  0.00  0.00    +0.000 A 
ATOM     31  C   UNL     1       6.882   4.886  16.911  0.00  0.00    +0.000 A 
ENDBRANCH  24  26
ENDBRANCH  17  24
ENDBRANCH   1  17
TORSDOF 8
ENDMDL
MODEL 6
REMARK VINA RESULT:      -9.1      1.583      2.185
REMARK  Name = 
REMARK  8 active torsions:
REMARK  status: ('A' for Active; 'I' for Inactive)
REMARK    1  A    between atoms: C_2  and  O_3
REMARK    2  A    between atoms: C_2  and  C_4
REMARK    3  A    between atoms: C_6  and  C_7
REMARK    4  A    between atoms: C_10  and  C_11
REMARK    5  A    between atoms: C_11  and  C_12
REMARK    6  A    between atoms: C_12  and  C_13
REMARK    7  A    between atoms: C_12  and  C_21
REMARK    8  A    between atoms: C_13  and  C_15
REMARK                            x       y       z     vdW  Elec       q    Type
REMARK                         _______ _______ _______ _____ _____    ______ ____
ROOT
ATOM      1  C   UNL     1       3.259   6.980  18.802  0.00  0.00    +0.000 C 
ENDROOT
BRANCH   1   5
ATOM      2  C   UNL     1       0.325  10.113  19.339  0.00  0.00    +0.000 A 
ATOM      3  C   UNL     1       0.664   9.285  20.416  0.00  0.00    +0.000 A 
ATOM      4  C   UNL     1       1.563   8.220  20.239  0.00  0.00    +0.000 A 
ATOM      5  C   UNL     1       2.122   7.961  18.979  0.00  0.00    +0.000 A 
ATOM      6  C   UNL     1       1.696   8.724  17.885  0.00  0.00    +0.000 A 
ATOM      7  C   UNL     1       0.813   9.788  18.065  0.00  0.00    +0.000 A 
BRANCH   2  10
ATOM      8  C   UNL     1      -1.780  12.911  20.373  0.00  0.00    +0.000 A 
ATOM      9  C   UNL     1      -1.236  11.686  20.661  0.00  0.00    +0.000 A 
ATOM     10  C   UNL     1      -0.438  11.351  19.532  0.00  0.00    +0.000 A 
ATOM     11  N   UNL     1      -0.515  12.325  18.611  0.00  0.00    +0.000 NA
ATOM     12  O   UNL     1      -1.346  13.299  19.141  0.00  0.00    +0.000 OA
BRANCH   8  14
ATOM     13  O   UNL     1      -2.628  13.916  22.339  0.00  0.00    +0.000 OA
ATOM     14  C   UNL     1      -2.668  13.753  21.125  0.00  0.00    +0.000 C 
BRANCH  14  15
ATOM     15  O   UNL     1      -3.591  14.370  20.344  0.00  0.00    +0.000 OA
ATOM     16  H   UNL     1      -4.502  14.053  20.525  0.00  0.00    +0.000 HD
ENDBRANCH  14  15
ENDBRANCH   8  14
ENDBRANCH   2  10
ENDBRANCH   1   5
BRANCH   1  17
ATOM     17  C   UNL     1       2.984   5.647  18.073  0.00  0.00    +0.000 C 
BRANCH  17  18
ATOM     18  C   UNL     1       2.379   4.653  19.075  0.00  0.00    +0.000 A 
ATOM     19  C   UNL     1       1.409   3.732  18.651  0.00  0.00    +0.000 A 
ATOM     20  C   UNL     1       0.802   2.864  19.562  0.00  0.00    +0.000 A 
ATOM     21  C   UNL     1       1.154   2.899  20.910  0.00  0.00    +0.000 A 
ATOM     22  C   UNL     1       2.127   3.794  21.347  0.00  0.00    +0.000 A 
ATOM     23  C   UNL     1       2.740   4.656  20.436  0.00  0.00    +0.000 A 
ENDBRANCH  17  18
BRANCH  17  24
ATOM     24  C   UNL     1       4.245   5.067  17.411  0.00  0.00    +0.000 C 
ATOM     25  O   UNL     1       4.204   4.150  16.588  0.00  0.00    +0.000 OA
BRANCH  24  26
ATOM     26  C   UNL     1       5.584   5.632  17.764  0.00  0.00    +0.000 A 
ATOM     27  C   UNL     1       6.167   6.666  17.028  0.00  0.00    +0.000 A 
ATOM     28  C   UNL     1       7.377   7.232  17.433  0.00  0.00    +0.000 A 
ATOM     29  C   UNL     1       8.027   6.754  18.566  0.00  0.00    +0.000 A 
ATOM     30  C   UNL     1       7.471   5.704  19.293  0.00  0.00    +0.000 A 
ATOM     31  C   UNL     1       6.250   5.147  18.900  0.00  0.00    +0.000 A 
ENDBRANCH  24  26
ENDBRANCH  17  24
ENDBRANCH   1  17
TORSDOF 8
ENDMDL
MODEL 7
REMARK VINA RESULT:      -9.0      2.342      4.968
REMARK  Name = 
REMARK  8 active torsions:
REMARK  status: ('A' for Active; 'I' for Inactive)
REMARK    1  A    between atoms: C_2  and  O_3
REMARK    2  A    between atoms: C_2  and  C_4
REMARK    3  A    between atoms: C_6  and  C_7
REMARK    4  A    between atoms: C_10  and  C_11
REMARK    5  A    between atoms: C_11  and  C_12
REMARK    6  A    between atoms: C_12  and  C_13
REMARK    7  A    between atoms: C_12  and  C_21
REMARK    8  A    between atoms: C_13  and  C_15
REMARK                            x       y       z     vdW  Elec       q    Type
REMARK                         _______ _______ _______ _____ _____    ______ ____
ROOT
ATOM      1  C   UNL     1       3.137   6.012  17.753  0.00  0.00    +0.000 C 
ENDROOT
BRANCH   1   5
ATOM      2  C   UNL     1       1.160   9.323  19.714  0.00  0.00    +0.000 A 
ATOM      3  C   UNL     1       1.589   9.454  18.388  0.00  0.00    +0.000 A 
ATOM      4  C   UNL     1       2.294   8.414  17.762  0.00  0.00    +0.000 A 
ATOM      5  C   UNL     1       2.591   7.234  18.458  0.00  0.00    +0.000 A 
ATOM      6  C   UNL     1       2.256   7.151  19.815  0.00  0.00    +0.000 A 
ATOM      7  C   UNL     1       1.546   8.181  20.432  0.00  0.00    +0.000 A 
BRANCH   2  10
ATOM      8  C   UNL     1      -0.904  11.488  21.807  0.00  0.00    +0.000 A 
ATOM      9  C   UNL     1       0.075  10.533  21.718  0.00  0.00    +0.000 A 
ATOM     10  C   UNL     1       0.247  10.294  20.327  0.00  0.00    +0.000 A 
ATOM     11  N   UNL     1      -0.600  11.061  19.622  0.00  0.00    +0.000 NA
ATOM     12  O   UNL     1      -1.310  11.810  20.547  0.00  0.00    +0.000 OA
BRANCH   8  14
ATOM     13  O   UNL     1      -2.571  11.806  23.455  0.00  0.00    +0.000 OA
ATOM     14  C   UNL     1      -1.504  12.127  22.945  0.00  0.00    +0.000 C 
BRANCH  14  15
ATOM     15  O   UNL     1      -0.759  13.157  23.420  0.00  0.00    +0.000 OA
ATOM     16  H   UNL     1      -1.268  13.995  23.462  0.00  0.00    +0.000 HD
ENDBRANCH  14  15
ENDBRANCH   8  14
ENDBRANCH   2  10
ENDBRANCH   1   5
BRANCH   1  17
ATOM     17  C   UNL     1       4.511   5.456  18.186  0.00  0.00    +0.000 C 
BRANCH  17  18
ATOM     18  C   UNL     1       5.346   5.172  16.928  0.00  0.00    +0.000 A 
ATOM     19  C   UNL     1       6.674   5.616  16.852  0.00  0.00    +0.000 A 
ATOM     20  C   UNL     1       7.427   5.422  15.692  0.00  0.00    +0.000 A 
ATOM     21  C   UNL     1       6.867   4.780  14.588  0.00  0.00    +0.000 A 
ATOM     22  C   UNL     1       5.556   4.316  14.651  0.00  0.00    +0.000 A 
ATOM     23  C   UNL     1       4.806   4.503  15.813  0.00  0.00    +0.000 A 
ENDBRANCH  17  18
BRANCH  17  24
ATOM     24  C   UNL     1       4.389   4.200  19.063  0.00  0.00    +0.000 C 
ATOM     25  O   UNL     1       5.367   3.621  19.539  0.00  0.00    +0.000 OA
BRANCH  24  26
ATOM     26  C   UNL     1       3.032   3.649  19.370  0.00  0.00    +0.000 A 
ATOM     27  C   UNL     1       2.281   2.959  18.415  0.00  0.00    +0.000 A 
ATOM     28  C   UNL     1       1.058   2.381  18.755  0.00  0.00    +0.000 A 
ATOM     29  C   UNL     1       0.561   2.506  20.048  0.00  0.00    +0.000 A 
ATOM     30  C   UNL     1       1.286   3.218  21.003  0.00  0.00    +0.000 A 
ATOM     31  C   UNL     1       2.521   3.782  20.670  0.00  0.00    +0.000 A 
ENDBRANCH  24  26
ENDBRANCH  17  24
ENDBRANCH   1  17
TORSDOF 8
ENDMDL
MODEL 8
REMARK VINA RESULT:      -8.9      2.732      4.903
REMARK  Name = 
REMARK  8 active torsions:
REMARK  status: ('A' for Active; 'I' for Inactive)
REMARK    1  A    between atoms: C_2  and  O_3
REMARK    2  A    between atoms: C_2  and  C_4
REMARK    3  A    between atoms: C_6  and  C_7
REMARK    4  A    between atoms: C_10  and  C_11
REMARK    5  A    between atoms: C_11  and  C_12
REMARK    6  A    between atoms: C_12  and  C_13
REMARK    7  A    between atoms: C_12  and  C_21
REMARK    8  A    between atoms: C_13  and  C_15
REMARK                            x       y       z     vdW  Elec       q    Type
REMARK                         _______ _______ _______ _____ _____    ______ ____
ROOT
ATOM      1  C   UNL     1       3.138   6.911  17.439  0.00  0.00    +0.000 C 
ENDROOT
BRANCH   1   5
ATOM      2  C   UNL     1       0.990   9.635  20.025  0.00  0.00    +0.000 A 
ATOM      3  C   UNL     1       1.471   8.423  20.535  0.00  0.00    +0.000 A 
ATOM      4  C   UNL     1       2.108   7.498  19.691  0.00  0.00    +0.000 A 
ATOM      5  C   UNL     1       2.260   7.768  18.324  0.00  0.00    +0.000 A 
ATOM      6  C   UNL     1       1.682   8.930  17.799  0.00  0.00    +0.000 A 
ATOM      7  C   UNL     1       1.060   9.852  18.640  0.00  0.00    +0.000 A 
BRANCH   2  10
ATOM      8  C   UNL     1      -0.728  11.924  22.290  0.00  0.00    +0.000 A 
ATOM      9  C   UNL     1      -0.694  10.708  21.658  0.00  0.00    +0.000 A 
ATOM     10  C   UNL     1       0.513  10.706  20.906  0.00  0.00    +0.000 A 
ATOM     11  N   UNL     1       1.159  11.871  21.073  0.00  0.00    +0.000 NA
ATOM     12  O   UNL     1       0.387  12.625  21.942  0.00  0.00    +0.000 OA
BRANCH   8  14
ATOM     13  O   UNL     1      -2.780  12.004  23.465  0.00  0.00    +0.000 OA
ATOM     14  C   UNL     1      -1.697  12.501  23.180  0.00  0.00    +0.000 C 
BRANCH  14  15
ATOM     15  O   UNL     1      -1.294  13.692  23.690  0.00  0.00    +0.000 OA
ATOM     16  H   UNL     1      -0.464  13.613  24.208  0.00  0.00    +0.000 HD
ENDBRANCH  14  15
ENDBRANCH   8  14
ENDBRANCH   2  10
ENDBRANCH   1   5
BRANCH   1  17
ATOM     17  C   UNL     1       3.733   5.609  18.019  0.00  0.00    +0.000 C 
BRANCH  17  18
ATOM     18  C   UNL     1       4.987   5.239  17.212  0.00  0.00    +0.000 A 
ATOM     19  C   UNL     1       6.140   4.789  17.873  0.00  0.00    +0.000 A 
ATOM     20  C   UNL     1       7.308   4.508  17.161  0.00  0.00    +0.000 A 
ATOM     21  C   UNL     1       7.345   4.671  15.778  0.00  0.00    +0.000 A 
ATOM     22  C   UNL     1       6.206   5.100  15.101  0.00  0.00    +0.000 A 
ATOM     23  C   UNL     1       5.036   5.372  15.811  0.00  0.00    +0.000 A 
ENDBRANCH  17  18
BRANCH  17  24
ATOM     24  C   UNL     1       2.721   4.453  18.030  0.00  0.00    +0.000 C 
ATOM     25  O   UNL     1       2.092   4.107  17.027  0.00  0.00    +0.000 OA
BRANCH  24  26
ATOM     26  C   UNL     1       2.483   3.699  19.300  0.00  0.00    +0.000 A 
ATOM     27  C   UNL     1       3.507   3.006  19.951  0.00  0.00    +0.000 A 
ATOM     28  C   UNL     1       3.275   2.385  21.179  0.00  0.00    +0.000 A 
ATOM     29  C   UNL     1       2.011   2.432  21.758  0.00  0.00    +0.000 A 
ATOM     30  C   UNL     1       0.973   3.096  21.105  0.00  0.00    +0.000 A 
ATOM     31  C   UNL     1       1.208   3.734  19.883  0.00  0.00    +0.000 A 
ENDBRANCH  24  26
ENDBRANCH  17  24
ENDBRANCH   1  17
TORSDOF 8
ENDMDL
MODEL 9
REMARK VINA RESULT:      -8.9      1.753      4.443
REMARK  Name = 
REMARK  8 active torsions:
REMARK  status: ('A' for Active; 'I' for Inactive)
REMARK    1  A    between atoms: C_2  and  O_3
REMARK    2  A    between atoms: C_2  and  C_4
REMARK    3  A    between atoms: C_6  and  C_7
REMARK    4  A    between atoms: C_10  and  C_11
REMARK    5  A    between atoms: C_11  and  C_12
REMARK    6  A    between atoms: C_12  and  C_13
REMARK    7  A    between atoms: C_12  and  C_21
REMARK    8  A    between atoms: C_13  and  C_15
REMARK                            x       y       z     vdW  Elec       q    Type
REMARK                         _______ _______ _______ _____ _____    ______ ____
ROOT
ATOM      1  C   UNL     1       3.124   6.055  17.772  0.00  0.00    +0.000 C 
ENDROOT
BRANCH   1   5
ATOM      2  C   UNL     1       1.109   9.432  19.575  0.00  0.00    +0.000 A 
ATOM      3  C   UNL     1       1.569   9.518  18.255  0.00  0.00    +0.000 A 
ATOM      4  C   UNL     1       2.286   8.456  17.680  0.00  0.00    +0.000 A 
ATOM      5  C   UNL     1       2.565   7.300  18.423  0.00  0.00    +0.000 A 
ATOM      6  C   UNL     1       2.199   7.264  19.774  0.00  0.00    +0.000 A 
ATOM      7  C   UNL     1       1.477   8.314  20.340  0.00  0.00    +0.000 A 
BRANCH   2  10
ATOM      8  C   UNL     1      -1.433  11.930  20.359  0.00  0.00    +0.000 A 
ATOM      9  C   UNL     1      -0.883  11.066  19.449  0.00  0.00    +0.000 A 
ATOM     10  C   UNL     1       0.185  10.423  20.135  0.00  0.00    +0.000 A 
ATOM     11  N   UNL     1       0.273  10.894  21.389  0.00  0.00    +0.000 NA
ATOM     12  O   UNL     1      -0.742  11.827  21.528  0.00  0.00    +0.000 OA
BRANCH   8  14
ATOM     13  O   UNL     1      -2.742  13.796  20.996  0.00  0.00    +0.000 OA
ATOM     14  C   UNL     1      -2.534  12.847  20.248  0.00  0.00    +0.000 C 
BRANCH  14  15
ATOM     15  O   UNL     1      -3.356  12.555  19.208  0.00  0.00    +0.000 OA
ATOM     16  H   UNL     1      -3.069  11.752  18.722  0.00  0.00    +0.000 HD
ENDBRANCH  14  15
ENDBRANCH   8  14
ENDBRANCH   2  10
ENDBRANCH   1   5
BRANCH   1  17
ATOM     17  C   UNL     1       4.529   5.565  18.188  0.00  0.00    +0.000 C 
BRANCH  17  18
ATOM     18  C   UNL     1       5.350   5.290  16.920  0.00  0.00    +0.000 A 
ATOM     19  C   UNL     1       4.789   4.554  15.865  0.00  0.00    +0.000 A 
ATOM     20  C   UNL     1       5.543   4.241  14.732  0.00  0.00    +0.000 A 
ATOM     21  C   UNL     1       6.869   4.659  14.631  0.00  0.00    +0.000 A 
ATOM     22  C   UNL     1       7.439   5.405  15.659  0.00  0.00    +0.000 A 
ATOM     23  C   UNL     1       6.683   5.725  16.789  0.00  0.00    +0.000 A 
ENDBRANCH  17  18
BRANCH  17  24
ATOM     24  C   UNL     1       4.475   4.324  19.092  0.00  0.00    +0.000 C 
ATOM     25  O   UNL     1       5.483   3.808  19.578  0.00  0.00    +0.000 OA
BRANCH  24  26
ATOM     26  C   UNL     1       3.150   3.707  19.414  0.00  0.00    +0.000 A 
ATOM     27  C   UNL     1       2.514   3.920  20.640  0.00  0.00    +0.000 A 
ATOM     28  C   UNL     1       1.239   3.404  20.878  0.00  0.00    +0.000 A 
ATOM     29  C   UNL     1       0.597   2.652  19.901  0.00  0.00    +0.000 A 
ATOM     30  C   UNL     1       1.232   2.407  18.684  0.00  0.00    +0.000 A 
ATOM     31  C   UNL     1       2.501   2.939  18.436  0.00  0.00    +0.000 A 
ENDBRANCH  24  26
ENDBRANCH  17  24
ENDBRANCH   1  17
TORSDOF 8
ENDMDL
