MODEL 1
REMARK VINA RESULT:      -8.1      0.000      0.000
REMARK  Name = 
REMARK  7 active torsions:
REMARK  status: ('A' for Active; 'I' for Inactive)
REMARK    1  A    between atoms: C_1  and  O_2
REMARK    2  A    between atoms: O_2  and  C_3
REMARK    3  A    between atoms: C_9  and  C_10
REMARK    4  A    between atoms: N_12  and  C_13
REMARK    5  A    between atoms: N_24  and  C_25
REMARK    6  A    between atoms: C_25  and  C_26
REMARK    7  A    between atoms: C_26  and  N_27
REMARK                            x       y       z     vdW  Elec       q    Type
REMARK                         _______ _______ _______ _____ _____    ______ ____
ROOT
ATOM      1  C   UNL     1      -2.525  10.216  16.869  0.00  0.00    +0.000 A 
ATOM      2  C   UNL     1      -2.996  11.305  17.593  0.00  0.00    +0.000 A 
ATOM      3  C   UNL     1      -2.250  11.860  18.643  0.00  0.00    +0.000 A 
ATOM      4  C   UNL     1      -1.002  11.294  18.955  0.00  0.00    +0.000 A 
ATOM      5  C   UNL     1      -0.498  10.203  18.241  0.00  0.00    +0.000 A 
ATOM      6  C   UNL     1      -1.279   9.667  17.190  0.00  0.00    +0.000 A 
ATOM      7  C   UNL     1       0.791   9.867  18.785  0.00  0.00    +0.000 A 
ATOM      8  C   UNL     1       0.995  10.731  19.850  0.00  0.00    +0.000 A 
ATOM      9  N   UNL     1      -0.063  11.611  19.912  0.00  0.00    +0.000 N 
ENDROOT
BRANCH   7  10
ATOM     10  C   UNL     1       1.672   8.813  18.280  0.00  0.00    +0.000 C 
ATOM     11  O   UNL     1       2.238   8.920  17.199  0.00  0.00    +0.000 OA
ATOM     12  N   UNL     1       1.842   7.710  19.096  0.00  0.00    +0.000 N 
ATOM     13  H   UNL     1       1.411   7.713  20.008  0.00  0.00    +0.000 HD
BRANCH  12  14
ATOM     14  C   UNL     1       2.738   6.592  18.756  0.00  0.00    +0.000 C 
ATOM     15  C   UNL     1       4.033   7.099  18.071  0.00  0.00    +0.000 C 
ATOM     16  C   UNL     1       4.970   5.925  17.739  0.00  0.00    +0.000 C 
ATOM     17  C   UNL     1       5.354   5.199  19.036  0.00  0.00    +0.000 C 
ATOM     18  C   UNL     1       4.091   4.666  19.733  0.00  0.00    +0.000 C 
ATOM     19  C   UNL     1       3.365   3.685  18.797  0.00  0.00    +0.000 C 
ATOM     20  C   UNL     1       2.978   4.396  17.494  0.00  0.00    +0.000 C 
ATOM     21  C   UNL     1       4.244   4.938  16.808  0.00  0.00    +0.000 C 
ATOM     22  C   UNL     1       2.039   5.567  17.823  0.00  0.00    +0.000 C 
ATOM     23  C   UNL     1       3.153   5.845  20.054  0.00  0.00    +0.000 C 
ENDBRANCH  12  14
ENDBRANCH   7  10
BRANCH   1  25
ATOM     24  C   UNL     1      -3.189  10.285  14.588  0.00  0.00    +0.000 C 
ATOM     25  O   UNL     1      -3.171   9.598  15.832  0.00  0.00    +0.000 OA
ENDBRANCH   1  25
BRANCH   9  26
ATOM     26  C   UNL     1      -0.150  12.702  20.882  0.00  0.00    +0.000 C 
BRANCH  26  27
ATOM     27  C   UNL     1      -1.188  12.411  21.980  0.00  0.00    +0.000 C 
BRANCH  27  28
ATOM     28  N   UNL     1      -2.051  13.554  22.344  0.00  0.00    +0.000 NA
ATOM     29  C   UNL     1      -3.243  13.719  21.483  0.00  0.00    +0.000 C 
ATOM     30  C   UNL     1      -4.362  12.687  21.718  0.00  0.00    +0.000 C 
ATOM     31  O   UNL     1      -4.738  12.597  23.096  0.00  0.00    +0.000 OA
ATOM     32  C   UNL     1      -3.603  12.337  23.929  0.00  0.00    +0.000 C 
ATOM     33  C   UNL     1      -2.529  13.423  23.745  0.00  0.00    +0.000 C 
ENDBRANCH  27  28
ENDBRANCH  26  27
ENDBRANCH   9  26
TORSDOF 6
ENDMDL
MODEL 2
REMARK VINA RESULT:      -8.0      3.168      8.962
REMARK  Name = 
REMARK  7 active torsions:
REMARK  status: ('A' for Active; 'I' for Inactive)
REMARK    1  A    between atoms: C_1  and  O_2
REMARK    2  A    between atoms: O_2  and  C_3
REMARK    3  A    between atoms: C_9  and  C_10
REMARK    4  A    between atoms: N_12  and  C_13
REMARK    5  A    between atoms: N_24  and  C_25
REMARK    6  A    between atoms: C_25  and  C_26
REMARK    7  A    between atoms: C_26  and  N_27
REMARK                            x       y       z     vdW  Elec       q    Type
REMARK                         _______ _______ _______ _____ _____    ______ ____
ROOT
ATOM      1  C   UNL     1       6.495   6.730  16.941  0.00  0.00    +0.000 A 
ATOM      2  C   UNL     1       6.492   5.348  16.798  0.00  0.00    +0.000 A 
ATOM      3  C   UNL     1       5.320   4.598  16.983  0.00  0.00    +0.000 A 
ATOM      4  C   UNL     1       4.134   5.274  17.315  0.00  0.00    +0.000 A 
ATOM      5  C   UNL     1       4.104   6.665  17.459  0.00  0.00    +0.000 A 
ATOM      6  C   UNL     1       5.305   7.388  17.268  0.00  0.00    +0.000 A 
ATOM      7  C   UNL     1       2.757   7.053  17.786  0.00  0.00    +0.000 A 
ATOM      8  C   UNL     1       2.032   5.876  17.887  0.00  0.00    +0.000 A 
ATOM      9  N   UNL     1       2.855   4.822  17.557  0.00  0.00    +0.000 N 
ENDROOT
BRANCH   7  10
ATOM     10  C   UNL     1       2.297   8.430  17.967  0.00  0.00    +0.000 C 
ATOM     11  O   UNL     1       2.551   9.300  17.142  0.00  0.00    +0.000 OA
ATOM     12  N   UNL     1       1.547   8.685  19.101  0.00  0.00    +0.000 N 
ATOM     13  H   UNL     1       1.305   7.912  19.702  0.00  0.00    +0.000 HD
BRANCH  12  14
ATOM     14  C   UNL     1       0.964  10.004  19.396  0.00  0.00    +0.000 C 
ATOM     15  C   UNL     1      -0.435  10.158  18.750  0.00  0.00    +0.000 C 
ATOM     16  C   UNL     1      -1.042  11.532  19.083  0.00  0.00    +0.000 C 
ATOM     17  C   UNL     1      -1.188  11.667  20.605  0.00  0.00    +0.000 C 
ATOM     18  C   UNL     1       0.188  11.537  21.278  0.00  0.00    +0.000 C 
ATOM     19  C   UNL     1       1.119  12.644  20.757  0.00  0.00    +0.000 C 
ATOM     20  C   UNL     1       1.273  12.524  19.235  0.00  0.00    +0.000 C 
ATOM     21  C   UNL     1      -0.109  12.642  18.568  0.00  0.00    +0.000 C 
ATOM     22  C   UNL     1       1.882  11.155  18.900  0.00  0.00    +0.000 C 
ATOM     23  C   UNL     1       0.794  10.164  20.932  0.00  0.00    +0.000 C 
ENDBRANCH  12  14
ENDBRANCH   7  10
BRANCH   1  25
ATOM     24  C   UNL     1       7.799   8.520  17.804  0.00  0.00    +0.000 C 
ATOM     25  O   UNL     1       7.578   7.553  16.786  0.00  0.00    +0.000 OA
ENDBRANCH   1  25
BRANCH   9  26
ATOM     26  C   UNL     1       2.404   3.432  17.500  0.00  0.00    +0.000 C 
BRANCH  26  27
ATOM     27  C   UNL     1       1.279   3.152  18.511  0.00  0.00    +0.000 C 
BRANCH  27  28
ATOM     28  N   UNL     1       1.533   2.027  19.435  0.00  0.00    +0.000 NA
ATOM     29  C   UNL     1       2.918   1.507  19.398  0.00  0.00    +0.000 C 
ATOM     30  C   UNL     1       3.970   2.408  20.070  0.00  0.00    +0.000 C 
ATOM     31  O   UNL     1       3.599   2.776  21.403  0.00  0.00    +0.000 OA
ATOM     32  C   UNL     1       2.298   3.374  21.435  0.00  0.00    +0.000 C 
ATOM     33  C   UNL     1       1.245   2.426  20.836  0.00  0.00    +0.000 C 
ENDBRANCH  27  28
ENDBRANCH  26  27
ENDBRANCH   9  26
TORSDOF 6
ENDMDL
MODEL 3
REMARK VINA RESULT:      -8.0      2.465      3.553
REMARK  Name = 
REMARK  7 active torsions:
REMARK  status: ('A' for Active; 'I' for Inactive)
REMARK    1  A    between atoms: C_1  and  O_2
REMARK    2  A    between atoms: O_2  and  C_3
REMARK    3  A    between atoms: C_9  and  C_10
REMARK    4  A    between atoms: N_12  and  C_13
REMARK    5  A    between atoms: N_24  and  C_25
REMARK    6  A    between atoms: C_25  and  C_26
REMARK    7  A    between atoms: C_26  and  N_27
REMARK                            x       y       z     vdW  Elec       q    Type
REMARK                         _______ _______ _______ _____ _____    ______ ____
ROOT
ATOM      1  C   UNL     1      -2.189  10.403  17.182  0.00  0.00    +0.000 A 
ATOM      2  C   UNL     1      -2.403  11.617  17.822  0.00  0.00    +0.000 A 
ATOM      3  C   UNL     1      -1.455  12.153  18.706  0.00  0.00    +0.000 A 
ATOM      4  C   UNL     1      -0.268  11.436  18.936  0.00  0.00    +0.000 A 
ATOM      5  C   UNL     1      -0.020  10.214  18.301  0.00  0.00    +0.000 A 
ATOM      6  C   UNL     1      -1.001   9.703  17.418  0.00  0.00    +0.000 A 
ATOM      7  C   UNL     1       1.269   9.740  18.728  0.00  0.00    +0.000 A 
ATOM      8  C   UNL     1       1.731  10.664  19.653  0.00  0.00    +0.000 A 
ATOM      9  N   UNL     1       0.824  11.698  19.733  0.00  0.00    +0.000 N 
ENDROOT
BRANCH   7  10
ATOM     10  C   UNL     1       1.919   8.519  18.252  0.00  0.00    +0.000 C 
ATOM     11  O   UNL     1       2.380   8.443  17.119  0.00  0.00    +0.000 OA
ATOM     12  N   UNL     1       2.001   7.474  19.153  0.00  0.00    +0.000 N 
ATOM     13  H   UNL     1       1.673   7.622  20.096  0.00  0.00    +0.000 HD
BRANCH  12  14
ATOM     14  C   UNL     1       2.674   6.201  18.845  0.00  0.00    +0.000 C 
ATOM     15  C   UNL     1       4.070   6.441  18.217  0.00  0.00    +0.000 C 
ATOM     16  C   UNL     1       4.771   5.104  17.918  0.00  0.00    +0.000 C 
ATOM     17  C   UNL     1       4.951   4.322  19.227  0.00  0.00    +0.000 C 
ATOM     18  C   UNL     1       3.580   4.050  19.869  0.00  0.00    +0.000 C 
ATOM     19  C   UNL     1       2.716   3.228  18.900  0.00  0.00    +0.000 C 
ATOM     20  C   UNL     1       2.529   3.995  17.585  0.00  0.00    +0.000 C 
ATOM     21  C   UNL     1       3.904   4.276  16.954  0.00  0.00    +0.000 C 
ATOM     22  C   UNL     1       1.826   5.329  17.880  0.00  0.00    +0.000 C 
ATOM     23  C   UNL     1       2.880   5.392  20.156  0.00  0.00    +0.000 C 
ENDBRANCH  12  14
ENDBRANCH   7  10
BRANCH   1  25
ATOM     24  C   UNL     1      -3.142  10.355  15.005  0.00  0.00    +0.000 C 
ATOM     25  O   UNL     1      -3.046   9.791  16.306  0.00  0.00    +0.000 OA
ENDBRANCH   1  25
BRANCH   9  26
ATOM     26  C   UNL     1       1.019  12.880  20.571  0.00  0.00    +0.000 C 
BRANCH  26  27
ATOM     27  C   UNL     1       2.122  13.800  20.019  0.00  0.00    +0.000 C 
BRANCH  27  28
ATOM     28  N   UNL     1       1.808  14.450  18.730  0.00  0.00    +0.000 NA
ATOM     29  C   UNL     1       0.946  15.647  18.844  0.00  0.00    +0.000 C 
ATOM     30  C   UNL     1       1.642  16.900  19.405  0.00  0.00    +0.000 C 
ATOM     31  O   UNL     1       2.853  17.209  18.705  0.00  0.00    +0.000 OA
ATOM     32  C   UNL     1       3.739  16.084  18.677  0.00  0.00    +0.000 C 
ATOM     33  C   UNL     1       3.055  14.864  18.036  0.00  0.00    +0.000 C 
ENDBRANCH  27  28
ENDBRANCH  26  27
ENDBRANCH   9  26
TORSDOF 6
ENDMDL
MODEL 4
REMARK VINA RESULT:      -8.0      0.290      1.372
REMARK  Name = 
REMARK  7 active torsions:
REMARK  status: ('A' for Active; 'I' for Inactive)
REMARK    1  A    between atoms: C_1  and  O_2
REMARK    2  A    between atoms: O_2  and  C_3
REMARK    3  A    between atoms: C_9  and  C_10
REMARK    4  A    between atoms: N_12  and  C_13
REMARK    5  A    between atoms: N_24  and  C_25
REMARK    6  A    between atoms: C_25  and  C_26
REMARK    7  A    between atoms: C_26  and  N_27
REMARK                            x       y       z     vdW  Elec       q    Type
REMARK                         _______ _______ _______ _____ _____    ______ ____
ROOT
ATOM      1  C   UNL     1      -2.313  10.180  16.951  0.00  0.00    +0.000 A 
ATOM      2  C   UNL     1      -2.805  11.217  17.733  0.00  0.00    +0.000 A 
ATOM      3  C   UNL     1      -2.101  11.681  18.855  0.00  0.00    +0.000 A 
ATOM      4  C   UNL     1      -0.875  11.075  19.179  0.00  0.00    +0.000 A 
ATOM      5  C   UNL     1      -0.351  10.034  18.407  0.00  0.00    +0.000 A 
ATOM      6  C   UNL     1      -1.089   9.590  17.284  0.00  0.00    +0.000 A 
ATOM      7  C   UNL     1       0.908   9.640  18.980  0.00  0.00    +0.000 A 
ATOM      8  C   UNL     1       1.073  10.418  20.116  0.00  0.00    +0.000 A 
ATOM      9  N   UNL     1       0.023  11.306  20.198  0.00  0.00    +0.000 N 
ENDROOT
BRANCH   7  10
ATOM     10  C   UNL     1       1.800   8.614  18.437  0.00  0.00    +0.000 C 
ATOM     11  O   UNL     1       2.365   8.769  17.361  0.00  0.00    +0.000 OA
ATOM     12  N   UNL     1       1.980   7.482  19.210  0.00  0.00    +0.000 N 
ATOM     13  H   UNL     1       1.549   7.447  20.121  0.00  0.00    +0.000 HD
BRANCH  12  14
ATOM     14  C   UNL     1       2.888   6.388  18.828  0.00  0.00    +0.000 C 
ATOM     15  C   UNL     1       3.310   5.551  20.062  0.00  0.00    +0.000 C 
ATOM     16  C   UNL     1       4.241   4.399  19.647  0.00  0.00    +0.000 C 
ATOM     17  C   UNL     1       3.505   3.481  18.661  0.00  0.00    +0.000 C 
ATOM     18  C   UNL     1       3.087   4.277  17.414  0.00  0.00    +0.000 C 
ATOM     19  C   UNL     1       4.338   4.854  16.733  0.00  0.00    +0.000 C 
ATOM     20  C   UNL     1       5.088   5.772  17.707  0.00  0.00    +0.000 C 
ATOM     21  C   UNL     1       5.491   4.974  18.959  0.00  0.00    +0.000 C 
ATOM     22  C   UNL     1       4.161   6.926  18.120  0.00  0.00    +0.000 C 
ATOM     23  C   UNL     1       2.163   5.434  17.838  0.00  0.00    +0.000 C 
ENDBRANCH  12  14
ENDBRANCH   7  10
BRANCH   1  25
ATOM     24  C   UNL     1      -3.412  10.574  14.881  0.00  0.00    +0.000 C 
ATOM     25  O   UNL     1      -2.917   9.651  15.842  0.00  0.00    +0.000 OA
ENDBRANCH   1  25
BRANCH   9  26
ATOM     26  C   UNL     1      -0.096  12.321  21.243  0.00  0.00    +0.000 C 
BRANCH  26  27
ATOM     27  C   UNL     1      -1.342  12.100  22.118  0.00  0.00    +0.000 C 
BRANCH  27  28
ATOM     28  N   UNL     1      -2.113  13.320  22.431  0.00  0.00    +0.000 NA
ATOM     29  C   UNL     1      -3.271  13.558  21.541  0.00  0.00    +0.000 C 
ATOM     30  C   UNL     1      -4.477  12.631  21.780  0.00  0.00    +0.000 C 
ATOM     31  O   UNL     1      -4.884  12.614  23.153  0.00  0.00    +0.000 OA
ATOM     32  C   UNL     1      -3.791  12.285  24.017  0.00  0.00    +0.000 C 
ATOM     33  C   UNL     1      -2.626  13.272  23.825  0.00  0.00    +0.000 C 
ENDBRANCH  27  28
ENDBRANCH  26  27
ENDBRANCH   9  26
TORSDOF 6
ENDMDL
MODEL 5
REMARK VINA RESULT:      -7.9      3.113      8.967
REMARK  Name = 
REMARK  7 active torsions:
REMARK  status: ('A' for Active; 'I' for Inactive)
REMARK    1  A    between atoms: C_1  and  O_2
REMARK    2  A    between atoms: O_2  and  C_3
REMARK    3  A    between atoms: C_9  and  C_10
REMARK    4  A    between atoms: N_12  and  C_13
REMARK    5  A    between atoms: N_24  and  C_25
REMARK    6  A    between atoms: C_25  and  C_26
REMARK    7  A    between atoms: C_26  and  N_27
REMARK                            x       y       z     vdW  Elec       q    Type
REMARK                         _______ _______ _______ _____ _____    ______ ____
ROOT
ATOM      1  C   UNL     1       6.419   6.893  17.012  0.00  0.00    +0.000 A 
ATOM      2  C   UNL     1       6.447   5.512  16.859  0.00  0.00    +0.000 A 
ATOM      3  C   UNL     1       5.290   4.737  17.027  0.00  0.00    +0.000 A 
ATOM      4  C   UNL     1       4.086   5.385  17.353  0.00  0.00    +0.000 A 
ATOM      5  C   UNL     1       4.025   6.774  17.507  0.00  0.00    +0.000 A 
ATOM      6  C   UNL     1       5.213   7.523  17.333  0.00  0.00    +0.000 A 
ATOM      7  C   UNL     1       2.668   7.132  17.823  0.00  0.00    +0.000 A 
ATOM      8  C   UNL     1       1.967   5.938  17.909  0.00  0.00    +0.000 A 
ATOM      9  N   UNL     1       2.815   4.904  17.578  0.00  0.00    +0.000 N 
ENDROOT
BRANCH   7  10
ATOM     10  C   UNL     1       2.177   8.497  18.010  0.00  0.00    +0.000 C 
ATOM     11  O   UNL     1       2.321   9.350  17.142  0.00  0.00    +0.000 OA
ATOM     12  N   UNL     1       1.528   8.760  19.202  0.00  0.00    +0.000 N 
ATOM     13  H   UNL     1       1.371   7.998  19.845  0.00  0.00    +0.000 HD
BRANCH  12  14
ATOM     14  C   UNL     1       0.928  10.068  19.516  0.00  0.00    +0.000 C 
ATOM     15  C   UNL     1       1.753  11.226  18.902  0.00  0.00    +0.000 C 
ATOM     16  C   UNL     1       1.105  12.586  19.219  0.00  0.00    +0.000 C 
ATOM     17  C   UNL     1      -0.310  12.624  18.626  0.00  0.00    +0.000 C 
ATOM     18  C   UNL     1      -1.163  11.496  19.229  0.00  0.00    +0.000 C 
ATOM     19  C   UNL     1      -1.246  11.676  20.754  0.00  0.00    +0.000 C 
ATOM     20  C   UNL     1       0.163  11.643  21.362  0.00  0.00    +0.000 C 
ATOM     21  C   UNL     1       1.016  12.766  20.744  0.00  0.00    +0.000 C 
ATOM     22  C   UNL     1       0.810  10.286  21.049  0.00  0.00    +0.000 C 
ATOM     23  C   UNL     1      -0.504  10.139  18.917  0.00  0.00    +0.000 C 
ENDBRANCH  12  14
ENDBRANCH   7  10
BRANCH   1  25
ATOM     24  C   UNL     1       8.088   8.214  18.072  0.00  0.00    +0.000 C 
ATOM     25  O   UNL     1       7.487   7.740  16.874  0.00  0.00    +0.000 OA
ENDBRANCH   1  25
BRANCH   9  26
ATOM     26  C   UNL     1       2.394   3.506  17.507  0.00  0.00    +0.000 C 
BRANCH  26  27
ATOM     27  C   UNL     1       1.268   3.194  18.507  0.00  0.00    +0.000 C 
BRANCH  27  28
ATOM     28  N   UNL     1       1.534   2.061  19.417  0.00  0.00    +0.000 NA
ATOM     29  C   UNL     1       2.916   1.534  19.349  0.00  0.00    +0.000 C 
ATOM     30  C   UNL     1       3.985   2.426  20.006  0.00  0.00    +0.000 C 
ATOM     31  O   UNL     1       3.642   2.785  21.349  0.00  0.00    +0.000 OA
ATOM     32  C   UNL     1       2.346   3.389  21.411  0.00  0.00    +0.000 C 
ATOM     33  C   UNL     1       1.276   2.450  20.827  0.00  0.00    +0.000 C 
ENDBRANCH  27  28
ENDBRANCH  26  27
ENDBRANCH   9  26
TORSDOF 6
ENDMDL
MODEL 6
REMARK VINA RESULT:      -7.9      2.227      3.720
REMARK  Name = 
REMARK  7 active torsions:
REMARK  status: ('A' for Active; 'I' for Inactive)
REMARK    1  A    between atoms: C_1  and  O_2
REMARK    2  A    between atoms: O_2  and  C_3
REMARK    3  A    between atoms: C_9  and  C_10
REMARK    4  A    between atoms: N_12  and  C_13
REMARK    5  A    between atoms: N_24  and  C_25
REMARK    6  A    between atoms: C_25  and  C_26
REMARK    7  A    between atoms: C_26  and  N_27
REMARK                            x       y       z     vdW  Elec       q    Type
REMARK                         _______ _______ _______ _____ _____    ______ ____
ROOT
ATOM      1  C   UNL     1      -2.261  10.289  17.113  0.00  0.00    +0.000 A 
ATOM      2  C   UNL     1      -2.591  11.440  17.817  0.00  0.00    +0.000 A 
ATOM      3  C   UNL     1      -1.736  11.965  18.797  0.00  0.00    +0.000 A 
ATOM      4  C   UNL     1      -0.524  11.302  19.059  0.00  0.00    +0.000 A 
ATOM      5  C   UNL     1      -0.162  10.145  18.363  0.00  0.00    +0.000 A 
ATOM      6  C   UNL     1      -1.050   9.643  17.382  0.00  0.00    +0.000 A 
ATOM      7  C   UNL     1       1.125   9.716  18.843  0.00  0.00    +0.000 A 
ATOM      8  C   UNL     1       1.468  10.597  19.858  0.00  0.00    +0.000 A 
ATOM      9  N   UNL     1       0.496  11.569  19.945  0.00  0.00    +0.000 N 
ENDROOT
BRANCH   7  10
ATOM     10  C   UNL     1       1.878   8.571  18.332  0.00  0.00    +0.000 C 
ATOM     11  O   UNL     1       2.383   8.588  17.216  0.00  0.00    +0.000 OA
ATOM     12  N   UNL     1       2.003   7.487  19.182  0.00  0.00    +0.000 N 
ATOM     13  H   UNL     1       1.632   7.562  20.117  0.00  0.00    +0.000 HD
BRANCH  12  14
ATOM     14  C   UNL     1       2.777   6.284  18.836  0.00  0.00    +0.000 C 
ATOM     15  C   UNL     1       1.997   5.379  17.849  0.00  0.00    +0.000 C 
ATOM     16  C   UNL     1       2.824   4.135  17.479  0.00  0.00    +0.000 C 
ATOM     17  C   UNL     1       4.133   4.576  16.809  0.00  0.00    +0.000 C 
ATOM     18  C   UNL     1       4.942   5.463  17.770  0.00  0.00    +0.000 C 
ATOM     19  C   UNL     1       5.266   4.670  19.047  0.00  0.00    +0.000 C 
ATOM     20  C   UNL     1       3.967   4.219  19.727  0.00  0.00    +0.000 C 
ATOM     21  C   UNL     1       3.156   3.343  18.756  0.00  0.00    +0.000 C 
ATOM     22  C   UNL     1       3.141   5.459  20.100  0.00  0.00    +0.000 C 
ATOM     23  C   UNL     1       4.104   6.700  18.144  0.00  0.00    +0.000 C 
ENDBRANCH  12  14
ENDBRANCH   7  10
BRANCH   1  25
ATOM     24  C   UNL     1      -3.416  10.509  15.047  0.00  0.00    +0.000 C 
ATOM     25  O   UNL     1      -3.021   9.693  16.141  0.00  0.00    +0.000 OA
ENDBRANCH   1  25
BRANCH   9  26
ATOM     26  C   UNL     1       0.564  12.697  20.872  0.00  0.00    +0.000 C 
BRANCH  26  27
ATOM     27  C   UNL     1       1.602  13.743  20.429  0.00  0.00    +0.000 C 
BRANCH  27  28
ATOM     28  N   UNL     1       1.431  14.250  19.052  0.00  0.00    +0.000 NA
ATOM     29  C   UNL     1       1.161  15.703  18.964  0.00  0.00    +0.000 C 
ATOM     30  C   UNL     1       2.375  16.609  19.240  0.00  0.00    +0.000 C 
ATOM     31  O   UNL     1       3.510  16.253  18.443  0.00  0.00    +0.000 OA
ATOM     32  C   UNL     1       3.842  14.869  18.599  0.00  0.00    +0.000 C 
ATOM     33  C   UNL     1       2.643  13.975  18.238  0.00  0.00    +0.000 C 
ENDBRANCH  27  28
ENDBRANCH  26  27
ENDBRANCH   9  26
TORSDOF 6
ENDMDL
MODEL 7
REMARK VINA RESULT:      -7.9      2.102      3.584
REMARK  Name = 
REMARK  7 active torsions:
REMARK  status: ('A' for Active; 'I' for Inactive)
REMARK    1  A    between atoms: C_1  and  O_2
REMARK    2  A    between atoms: O_2  and  C_3
REMARK    3  A    between atoms: C_9  and  C_10
REMARK    4  A    between atoms: N_12  and  C_13
REMARK    5  A    between atoms: N_24  and  C_25
REMARK    6  A    between atoms: C_25  and  C_26
REMARK    7  A    between atoms: C_26  and  N_27
REMARK                            x       y       z     vdW  Elec       q    Type
REMARK                         _______ _______ _______ _____ _____    ______ ____
ROOT
ATOM      1  C   UNL     1      -2.477  10.319  17.162  0.00  0.00    +0.000 A 
ATOM      2  C   UNL     1      -2.862  11.437  17.892  0.00  0.00    +0.000 A 
ATOM      3  C   UNL     1      -2.034  11.978  18.887  0.00  0.00    +0.000 A 
ATOM      4  C   UNL     1      -0.793  11.368  19.136  0.00  0.00    +0.000 A 
ATOM      5  C   UNL     1      -0.375  10.246  18.414  0.00  0.00    +0.000 A 
ATOM      6  C   UNL     1      -1.237   9.726  17.419  0.00  0.00    +0.000 A 
ATOM      7  C   UNL     1       0.930   9.868  18.888  0.00  0.00    +0.000 A 
ATOM      8  C   UNL     1       1.229  10.740  19.924  0.00  0.00    +0.000 A 
ATOM      9  N   UNL     1       0.212  11.662  20.031  0.00  0.00    +0.000 N 
ENDROOT
BRANCH   7  10
ATOM     10  C   UNL     1       1.738   8.772  18.352  0.00  0.00    +0.000 C 
ATOM     11  O   UNL     1       2.186   8.810  17.212  0.00  0.00    +0.000 OA
ATOM     12  N   UNL     1       1.980   7.711  19.205  0.00  0.00    +0.000 N 
ATOM     13  H   UNL     1       1.650   7.772  20.156  0.00  0.00    +0.000 HD
BRANCH  12  14
ATOM     14  C   UNL     1       2.820   6.561  18.834  0.00  0.00    +0.000 C 
ATOM     15  C   UNL     1       3.230   5.738  20.081  0.00  0.00    +0.000 C 
ATOM     16  C   UNL     1       4.090   4.527  19.678  0.00  0.00    +0.000 C 
ATOM     17  C   UNL     1       3.283   3.622  18.738  0.00  0.00    +0.000 C 
ATOM     18  C   UNL     1       2.875   4.403  17.478  0.00  0.00    +0.000 C 
ATOM     19  C   UNL     1       4.137   4.895  16.751  0.00  0.00    +0.000 C 
ATOM     20  C   UNL     1       4.957   5.800  17.680  0.00  0.00    +0.000 C 
ATOM     21  C   UNL     1       5.350   5.017  18.944  0.00  0.00    +0.000 C 
ATOM     22  C   UNL     1       4.101   7.012  18.081  0.00  0.00    +0.000 C 
ATOM     23  C   UNL     1       2.023   5.619  17.889  0.00  0.00    +0.000 C 
ENDBRANCH  12  14
ENDBRANCH   7  10
BRANCH   1  25
ATOM     24  C   UNL     1      -3.001  10.177  14.848  0.00  0.00    +0.000 C 
ATOM     25  O   UNL     1      -3.206   9.711  16.175  0.00  0.00    +0.000 OA
ENDBRANCH   1  25
BRANCH   9  26
ATOM     26  C   UNL     1       0.224  12.770  20.984  0.00  0.00    +0.000 C 
BRANCH  26  27
ATOM     27  C   UNL     1       0.560  14.109  20.304  0.00  0.00    +0.000 C 
BRANCH  27  28
ATOM     28  N   UNL     1       1.887  14.666  20.638  0.00  0.00    +0.000 NA
ATOM     29  C   UNL     1       3.027  13.907  20.078  0.00  0.00    +0.000 C 
ATOM     30  C   UNL     1       3.241  14.076  18.562  0.00  0.00    +0.000 C 
ATOM     31  O   UNL     1       3.305  15.453  18.174  0.00  0.00    +0.000 OA
ATOM     32  C   UNL     1       2.155  16.176  18.625  0.00  0.00    +0.000 C 
ATOM     33  C   UNL     1       2.004  16.065  20.152  0.00  0.00    +0.000 C 
ENDBRANCH  27  28
ENDBRANCH  26  27
ENDBRANCH   9  26
TORSDOF 6
ENDMDL
MODEL 8
REMARK VINA RESULT:      -7.9      3.109      8.972
REMARK  Name = 
REMARK  7 active torsions:
REMARK  status: ('A' for Active; 'I' for Inactive)
REMARK    1  A    between atoms: C_1  and  O_2
REMARK    2  A    between atoms: O_2  and  C_3
REMARK    3  A    between atoms: C_9  and  C_10
REMARK    4  A    between atoms: N_12  and  C_13
REMARK    5  A    between atoms: N_24  and  C_25
REMARK    6  A    between atoms: C_25  and  C_26
REMARK    7  A    between atoms: C_26  and  N_27
REMARK                            x       y       z     vdW  Elec       q    Type
REMARK                         _______ _______ _______ _____ _____    ______ ____
ROOT
ATOM      1  C   UNL     1       6.442   6.918  17.073  0.00  0.00    +0.000 A 
ATOM      2  C   UNL     1       6.485   5.538  16.918  0.00  0.00    +0.000 A 
ATOM      3  C   UNL     1       5.333   4.751  17.072  0.00  0.00    +0.000 A 
ATOM      4  C   UNL     1       4.120   5.387  17.386  0.00  0.00    +0.000 A 
ATOM      5  C   UNL     1       4.044   6.775  17.542  0.00  0.00    +0.000 A 
ATOM      6  C   UNL     1       5.226   7.536  17.383  0.00  0.00    +0.000 A 
ATOM      7  C   UNL     1       2.680   7.118  17.845  0.00  0.00    +0.000 A 
ATOM      8  C   UNL     1       1.990   5.918  17.921  0.00  0.00    +0.000 A 
ATOM      9  N   UNL     1       2.852   4.893  17.597  0.00  0.00    +0.000 N 
ENDROOT
BRANCH   7  10
ATOM     10  C   UNL     1       2.173   8.478  18.029  0.00  0.00    +0.000 C 
ATOM     11  O   UNL     1       2.315   9.333  17.163  0.00  0.00    +0.000 OA
ATOM     12  N   UNL     1       1.513   8.734  19.217  0.00  0.00    +0.000 N 
ATOM     13  H   UNL     1       1.360   7.970  19.857  0.00  0.00    +0.000 HD
BRANCH  12  14
ATOM     14  C   UNL     1       0.898  10.035  19.527  0.00  0.00    +0.000 C 
ATOM     15  C   UNL     1       0.757  10.239  21.057  0.00  0.00    +0.000 C 
ATOM     16  C   UNL     1       0.131  11.610  21.369  0.00  0.00    +0.000 C 
ATOM     17  C   UNL     1       1.033  12.719  20.807  0.00  0.00    +0.000 C 
ATOM     18  C   UNL     1       1.180  12.556  19.286  0.00  0.00    +0.000 C 
ATOM     19  C   UNL     1      -0.206  12.645  18.626  0.00  0.00    +0.000 C 
ATOM     20  C   UNL     1      -1.120  11.545  19.179  0.00  0.00    +0.000 C 
ATOM     21  C   UNL     1      -1.253  11.705  20.704  0.00  0.00    +0.000 C 
ATOM     22  C   UNL     1      -0.500  10.175  18.865  0.00  0.00    +0.000 C 
ATOM     23  C   UNL     1       1.797  11.178  18.980  0.00  0.00    +0.000 C 
ENDBRANCH  12  14
ENDBRANCH   7  10
BRANCH   1  25
ATOM     24  C   UNL     1       8.126   8.203  18.151  0.00  0.00    +0.000 C 
ATOM     25  O   UNL     1       7.502   7.776  16.948  0.00  0.00    +0.000 OA
ENDBRANCH   1  25
BRANCH   9  26
ATOM     26  C   UNL     1       2.445   3.491  17.519  0.00  0.00    +0.000 C 
BRANCH  26  27
ATOM     27  C   UNL     1       1.274   3.179  18.466  0.00  0.00    +0.000 C 
BRANCH  27  28
ATOM     28  N   UNL     1       1.502   2.053  19.395  0.00  0.00    +0.000 NA
ATOM     29  C   UNL     1       2.872   1.494  19.353  0.00  0.00    +0.000 C 
ATOM     30  C   UNL     1       3.953   2.370  20.013  0.00  0.00    +0.000 C 
ATOM     31  O   UNL     1       3.600   2.755  21.346  0.00  0.00    +0.000 OA
ATOM     32  C   UNL     1       2.317   3.390  21.382  0.00  0.00    +0.000 C 
ATOM     33  C   UNL     1       1.234   2.467  20.796  0.00  0.00    +0.000 C 
ENDBRANCH  27  28
ENDBRANCH  26  27
ENDBRANCH   9  26
TORSDOF 6
ENDMDL
MODEL 9
REMARK VINA RESULT:      -7.8      2.252      2.956
REMARK  Name = 
REMARK  7 active torsions:
REMARK  status: ('A' for Active; 'I' for Inactive)
REMARK    1  A    between atoms: C_1  and  O_2
REMARK    2  A    between atoms: O_2  and  C_3
REMARK    3  A    between atoms: C_9  and  C_10
REMARK    4  A    between atoms: N_12  and  C_13
REMARK    5  A    between atoms: N_24  and  C_25
REMARK    6  A    between atoms: C_25  and  C_26
REMARK    7  A    between atoms: C_26  and  N_27
REMARK                            x       y       z     vdW  Elec       q    Type
REMARK                         _______ _______ _______ _____ _____    ______ ____
ROOT
ATOM      1  C   UNL     1      -2.437  10.356  17.196  0.00  0.00    +0.000 A 
ATOM      2  C   UNL     1      -2.810  11.452  17.964  0.00  0.00    +0.000 A 
ATOM      3  C   UNL     1      -1.979  11.947  18.981  0.00  0.00    +0.000 A 
ATOM      4  C   UNL     1      -0.748  11.311  19.213  0.00  0.00    +0.000 A 
ATOM      5  C   UNL     1      -0.342  10.210  18.452  0.00  0.00    +0.000 A 
ATOM      6  C   UNL     1      -1.207   9.737  17.437  0.00  0.00    +0.000 A 
ATOM      7  C   UNL     1       0.956   9.797  18.917  0.00  0.00    +0.000 A 
ATOM      8  C   UNL     1       1.263  10.627  19.985  0.00  0.00    +0.000 A 
ATOM      9  N   UNL     1       0.258  11.559  20.122  0.00  0.00    +0.000 N 
ENDROOT
BRANCH   7  10
ATOM     10  C   UNL     1       1.751   8.710  18.345  0.00  0.00    +0.000 C 
ATOM     11  O   UNL     1       2.192   8.777  17.204  0.00  0.00    +0.000 OA
ATOM     12  N   UNL     1       1.989   7.623  19.166  0.00  0.00    +0.000 N 
ATOM     13  H   UNL     1       1.665   7.660  20.121  0.00  0.00    +0.000 HD
BRANCH  12  14
ATOM     14  C   UNL     1       2.817   6.477  18.757  0.00  0.00    +0.000 C 
ATOM     15  C   UNL     1       4.062   6.939  17.958  0.00  0.00    +0.000 C 
ATOM     16  C   UNL     1       4.929   5.734  17.555  0.00  0.00    +0.000 C 
ATOM     17  C   UNL     1       5.403   5.003  18.819  0.00  0.00    +0.000 C 
ATOM     18  C   UNL     1       4.190   4.514  19.627  0.00  0.00    +0.000 C 
ATOM     19  C   UNL     1       3.355   3.552  18.766  0.00  0.00    +0.000 C 
ATOM     20  C   UNL     1       2.877   4.267  17.496  0.00  0.00    +0.000 C 
ATOM     21  C   UNL     1       4.094   4.766  16.698  0.00  0.00    +0.000 C 
ATOM     22  C   UNL     1       2.008   5.469  17.897  0.00  0.00    +0.000 C 
ATOM     23  C   UNL     1       3.321   5.723  20.020  0.00  0.00    +0.000 C 
ENDBRANCH  12  14
ENDBRANCH   7  10
BRANCH   1  25
ATOM     24  C   UNL     1      -3.007  10.352  14.888  0.00  0.00    +0.000 C 
ATOM     25  O   UNL     1      -3.171   9.794  16.185  0.00  0.00    +0.000 OA
ENDBRANCH   1  25
BRANCH   9  26
ATOM     26  C   UNL     1       0.281  12.632  21.114  0.00  0.00    +0.000 C 
BRANCH  26  27
ATOM     27  C   UNL     1       1.535  13.513  20.977  0.00  0.00    +0.000 C 
BRANCH  27  28
ATOM     28  N   UNL     1       1.724  14.506  22.054  0.00  0.00    +0.000 NA
ATOM     29  C   UNL     1       3.046  15.171  22.048  0.00  0.00    +0.000 C 
ATOM     30  C   UNL     1       3.244  16.214  20.933  0.00  0.00    +0.000 C 
ATOM     31  O   UNL     1       2.188  17.180  20.899  0.00  0.00    +0.000 OA
ATOM     32  C   UNL     1       0.907  16.548  20.803  0.00  0.00    +0.000 C 
ATOM     33  C   UNL     1       0.691  15.570  21.971  0.00  0.00    +0.000 C 
ENDBRANCH  27  28
ENDBRANCH  26  27
ENDBRANCH   9  26
TORSDOF 6
ENDMDL
