MODEL 1
REMARK VINA RESULT:      -8.2      0.000      0.000
REMARK  Name = 
REMARK  6 active torsions:
REMARK  status: ('A' for Active; 'I' for Inactive)
REMARK    1  A    between atoms: C_1  and  C_2
REMARK    2  A    between atoms: C_2  and  C_3
REMARK    3  A    between atoms: C_7  and  N_8
REMARK    4  A    between atoms: C_9  and  C_11
REMARK    5  A    between atoms: C_11  and  C_12
REMARK    6  A    between atoms: C_14  and  C_15
REMARK                            x       y       z     vdW  Elec       q    Type
REMARK                         _______ _______ _______ _____ _____    ______ ____
ROOT
ATOM      1  C   UNL     1       6.298   6.412  17.586  0.00  0.00    +0.000 C 
ENDROOT
BRANCH   1   2
ATOM      2  C   UNL     1       5.626   5.274  18.245  0.00  0.00    +0.000 A 
ATOM      3  N   UNL     1       4.378   5.216  18.652  0.00  0.00    +0.000 NA
ATOM      4  C   UNL     1       4.312   4.021  19.337  0.00  0.00    +0.000 A 
ATOM      5  N   UNL     1       5.460   3.325  19.318  0.00  0.00    +0.000 NA
ATOM      6  N   UNL     1       6.275   4.137  18.630  0.00  0.00    +0.000 N 
ATOM      7  H   UNL     1       7.246   3.874  18.499  0.00  0.00    +0.000 HD
BRANCH   4   8
ATOM      8  C   UNL     1       3.122   3.623  20.065  0.00  0.00    +0.000 A 
ATOM      9  C   UNL     1       1.844   4.017  19.664  0.00  0.00    +0.000 A 
ATOM     10  C   UNL     1       0.730   3.557  20.364  0.00  0.00    +0.000 A 
ATOM     11  C   UNL     1       0.932   2.720  21.450  0.00  0.00    +0.000 A 
ATOM     12  N   UNL     1       2.150   2.326  21.877  0.00  0.00    +0.000 NA
ATOM     13  C   UNL     1       3.215   2.786  21.171  0.00  0.00    +0.000 A 
ENDBRANCH   4   8
ENDBRANCH   1   2
BRANCH   1  15
ATOM     14  N   UNL     1       6.993   5.363  15.502  0.00  0.00    +0.000 N 
ATOM     15  C   UNL     1       6.111   6.260  16.087  0.00  0.00    +0.000 C 
ATOM     16  O   UNL     1       5.245   6.918  15.514  0.00  0.00    +0.000 OA
ATOM     17  H   UNL     1       7.674   4.924  16.115  0.00  0.00    +0.000 HD
BRANCH  14  22
ATOM     18  C   UNL     1       6.170   3.583  12.351  0.00  0.00    +0.000 A 
ATOM     19  C   UNL     1       7.122   4.118  11.476  0.00  0.00    +0.000 A 
ATOM     20  C   UNL     1       8.007   5.099  11.917  0.00  0.00    +0.000 A 
ATOM     21  C   UNL     1       7.973   5.531  13.243  0.00  0.00    +0.000 A 
ATOM     22  C   UNL     1       7.050   4.993  14.142  0.00  0.00    +0.000 A 
ATOM     23  C   UNL     1       6.132   4.037  13.682  0.00  0.00    +0.000 A 
BRANCH  18  25
ATOM     24  C   UNL     1       3.998   3.073  11.198  0.00  0.00    +0.000 C 
ATOM     25  C   UNL     1       5.236   2.500  11.873  0.00  0.00    +0.000 C 
ENDBRANCH  18  25
ENDBRANCH  14  22
ENDBRANCH   1  15
TORSDOF 5
ENDMDL
MODEL 2
REMARK VINA RESULT:      -8.1      3.849      8.103
REMARK  Name = 
REMARK  6 active torsions:
REMARK  status: ('A' for Active; 'I' for Inactive)
REMARK    1  A    between atoms: C_1  and  C_2
REMARK    2  A    between atoms: C_2  and  C_3
REMARK    3  A    between atoms: C_7  and  N_8
REMARK    4  A    between atoms: C_9  and  C_11
REMARK    5  A    between atoms: C_11  and  C_12
REMARK    6  A    between atoms: C_14  and  C_15
REMARK                            x       y       z     vdW  Elec       q    Type
REMARK                         _______ _______ _______ _____ _____    ______ ____
ROOT
ATOM      1  C   UNL     1       7.608   5.437  18.674  0.00  0.00    +0.000 C 
ENDROOT
BRANCH   1   2
ATOM      2  C   UNL     1       7.923   6.829  18.294  0.00  0.00    +0.000 A 
ATOM      3  N   UNL     1       8.596   7.711  18.996  0.00  0.00    +0.000 NA
ATOM      4  C   UNL     1       8.459   8.877  18.276  0.00  0.00    +0.000 A 
ATOM      5  N   UNL     1       7.770   8.728  17.133  0.00  0.00    +0.000 NA
ATOM      6  N   UNL     1       7.436   7.430  17.169  0.00  0.00    +0.000 N 
ATOM      7  H   UNL     1       6.857   7.043  16.431  0.00  0.00    +0.000 HD
BRANCH   4   8
ATOM      8  C   UNL     1       8.957  10.146  18.774  0.00  0.00    +0.000 A 
ATOM      9  C   UNL     1       9.315  10.325  20.113  0.00  0.00    +0.000 A 
ATOM     10  C   UNL     1       9.843  11.546  20.526  0.00  0.00    +0.000 A 
ATOM     11  C   UNL     1       9.992  12.554  19.586  0.00  0.00    +0.000 A 
ATOM     12  N   UNL     1       9.649  12.425  18.288  0.00  0.00    +0.000 NA
ATOM     13  C   UNL     1       9.141  11.222  17.913  0.00  0.00    +0.000 A 
ENDBRANCH   4   8
ENDBRANCH   1   2
BRANCH   1  15
ATOM     14  N   UNL     1       5.697   3.930  18.617  0.00  0.00    +0.000 N 
ATOM     15  C   UNL     1       6.103   5.256  18.582  0.00  0.00    +0.000 C 
ATOM     16  O   UNL     1       5.380   6.244  18.473  0.00  0.00    +0.000 OA
ATOM     17  H   UNL     1       6.429   3.228  18.676  0.00  0.00    +0.000 HD
BRANCH  14  22
ATOM     18  C   UNL     1       2.200   3.294  19.684  0.00  0.00    +0.000 A 
ATOM     19  C   UNL     1       1.740   2.476  18.646  0.00  0.00    +0.000 A 
ATOM     20  C   UNL     1       2.573   2.170  17.573  0.00  0.00    +0.000 A 
ATOM     21  C   UNL     1       3.882   2.650  17.540  0.00  0.00    +0.000 A 
ATOM     22  C   UNL     1       4.373   3.447  18.577  0.00  0.00    +0.000 A 
ATOM     23  C   UNL     1       3.516   3.787  19.634  0.00  0.00    +0.000 A 
BRANCH  18  25
ATOM     24  C   UNL     1       1.438   2.554  21.959  0.00  0.00    +0.000 C 
ATOM     25  C   UNL     1       1.301   3.595  20.857  0.00  0.00    +0.000 C 
ENDBRANCH  18  25
ENDBRANCH  14  22
ENDBRANCH   1  15
TORSDOF 5
ENDMDL
MODEL 3
REMARK VINA RESULT:      -8.0      3.513      7.878
REMARK  Name = 
REMARK  6 active torsions:
REMARK  status: ('A' for Active; 'I' for Inactive)
REMARK    1  A    between atoms: C_1  and  C_2
REMARK    2  A    between atoms: C_2  and  C_3
REMARK    3  A    between atoms: C_7  and  N_8
REMARK    4  A    between atoms: C_9  and  C_11
REMARK    5  A    between atoms: C_11  and  C_12
REMARK    6  A    between atoms: C_14  and  C_15
REMARK                            x       y       z     vdW  Elec       q    Type
REMARK                         _______ _______ _______ _____ _____    ______ ____
ROOT
ATOM      1  C   UNL     1       3.181   3.765  19.929  0.00  0.00    +0.000 C 
ENDROOT
BRANCH   1   2
ATOM      2  C   UNL     1       4.353   4.097  19.093  0.00  0.00    +0.000 A 
ATOM      3  N   UNL     1       4.382   4.238  17.787  0.00  0.00    +0.000 NA
ATOM      4  C   UNL     1       5.723   4.376  17.503  0.00  0.00    +0.000 A 
ATOM      5  N   UNL     1       6.509   4.376  18.592  0.00  0.00    +0.000 NA
ATOM      6  N   UNL     1       5.623   4.192  19.582  0.00  0.00    +0.000 N 
ATOM      7  H   UNL     1       5.953   4.104  20.537  0.00  0.00    +0.000 HD
BRANCH   4   8
ATOM      8  C   UNL     1       6.213   4.434  16.138  0.00  0.00    +0.000 A 
ATOM      9  C   UNL     1       5.675   3.637  15.125  0.00  0.00    +0.000 A 
ATOM     10  C   UNL     1       6.141   3.775  13.820  0.00  0.00    +0.000 A 
ATOM     11  C   UNL     1       7.139   4.703  13.569  0.00  0.00    +0.000 A 
ATOM     12  N   UNL     1       7.694   5.483  14.521  0.00  0.00    +0.000 NA
ATOM     13  C   UNL     1       7.215   5.330  15.782  0.00  0.00    +0.000 A 
ENDBRANCH   4   8
ENDBRANCH   1   2
BRANCH   1  15
ATOM     14  N   UNL     1       2.810   6.094  19.328  0.00  0.00    +0.000 N 
ATOM     15  C   UNL     1       2.306   5.002  20.020  0.00  0.00    +0.000 C 
ATOM     16  O   UNL     1       1.269   4.964  20.679  0.00  0.00    +0.000 OA
ATOM     17  H   UNL     1       3.702   5.968  18.860  0.00  0.00    +0.000 HD
BRANCH  14  22
ATOM     18  C   UNL     1       0.950   9.162  20.277  0.00  0.00    +0.000 A 
ATOM     19  C   UNL     1       0.932   9.859  19.064  0.00  0.00    +0.000 A 
ATOM     20  C   UNL     1       1.572   9.335  17.944  0.00  0.00    +0.000 A 
ATOM     21  C   UNL     1       2.207   8.095  18.015  0.00  0.00    +0.000 A 
ATOM     22  C   UNL     1       2.217   7.368  19.207  0.00  0.00    +0.000 A 
ATOM     23  C   UNL     1       1.607   7.921  20.343  0.00  0.00    +0.000 A 
BRANCH  18  25
ATOM     24  C   UNL     1       0.927   9.366  22.780  0.00  0.00    +0.000 C 
ATOM     25  C   UNL     1       0.227   9.723  21.476  0.00  0.00    +0.000 C 
ENDBRANCH  18  25
ENDBRANCH  14  22
ENDBRANCH   1  15
TORSDOF 5
ENDMDL
MODEL 4
REMARK VINA RESULT:      -8.0      0.998      1.351
REMARK  Name = 
REMARK  6 active torsions:
REMARK  status: ('A' for Active; 'I' for Inactive)
REMARK    1  A    between atoms: C_1  and  C_2
REMARK    2  A    between atoms: C_2  and  C_3
REMARK    3  A    between atoms: C_7  and  N_8
REMARK    4  A    between atoms: C_9  and  C_11
REMARK    5  A    between atoms: C_11  and  C_12
REMARK    6  A    between atoms: C_14  and  C_15
REMARK                            x       y       z     vdW  Elec       q    Type
REMARK                         _______ _______ _______ _____ _____    ______ ____
ROOT
ATOM      1  C   UNL     1       7.271   5.516  18.272  0.00  0.00    +0.000 C 
ENDROOT
BRANCH   1   2
ATOM      2  C   UNL     1       5.844   5.498  18.651  0.00  0.00    +0.000 A 
ATOM      3  N   UNL     1       5.259   4.687  19.504  0.00  0.00    +0.000 NA
ATOM      4  C   UNL     1       3.919   4.978  19.365  0.00  0.00    +0.000 A 
ATOM      5  N   UNL     1       3.669   5.972  18.497  0.00  0.00    +0.000 NA
ATOM      6  N   UNL     1       4.897   6.280  18.055  0.00  0.00    +0.000 N 
ATOM      7  H   UNL     1       5.006   6.987  17.337  0.00  0.00    +0.000 HD
BRANCH   4   8
ATOM      8  C   UNL     1       2.896   4.210  20.049  0.00  0.00    +0.000 A 
ATOM      9  C   UNL     1       1.567   4.199  19.617  0.00  0.00    +0.000 A 
ATOM     10  C   UNL     1       0.637   3.397  20.273  0.00  0.00    +0.000 A 
ATOM     11  C   UNL     1       1.064   2.633  21.348  0.00  0.00    +0.000 A 
ATOM     12  N   UNL     1       2.334   2.624  21.804  0.00  0.00    +0.000 NA
ATOM     13  C   UNL     1       3.219   3.412  21.141  0.00  0.00    +0.000 A 
ENDBRANCH   4   8
ENDBRANCH   1   2
BRANCH   1  15
ATOM     14  N   UNL     1       7.140   4.692  15.985  0.00  0.00    +0.000 N 
ATOM     15  C   UNL     1       7.356   5.806  16.784  0.00  0.00    +0.000 C 
ATOM     16  O   UNL     1       7.611   6.946  16.403  0.00  0.00    +0.000 OA
ATOM     17  H   UNL     1       6.974   3.811  16.462  0.00  0.00    +0.000 HD
BRANCH  14  22
ATOM     18  C   UNL     1       6.236   3.612  12.551  0.00  0.00    +0.000 A 
ATOM     19  C   UNL     1       7.082   4.415  11.779  0.00  0.00    +0.000 A 
ATOM     20  C   UNL     1       7.920   5.344  12.391  0.00  0.00    +0.000 A 
ATOM     21  C   UNL     1       7.946   5.458  13.781  0.00  0.00    +0.000 A 
ATOM     22  C   UNL     1       7.130   4.649  14.575  0.00  0.00    +0.000 A 
ATOM     23  C   UNL     1       6.257   3.745  13.952  0.00  0.00    +0.000 A 
BRANCH  18  25
ATOM     24  C   UNL     1       6.169   1.498  11.197  0.00  0.00    +0.000 C 
ATOM     25  C   UNL     1       5.355   2.588  11.881  0.00  0.00    +0.000 C 
ENDBRANCH  18  25
ENDBRANCH  14  22
ENDBRANCH   1  15
TORSDOF 5
ENDMDL
MODEL 5
REMARK VINA RESULT:      -7.9      1.052      1.289
REMARK  Name = 
REMARK  6 active torsions:
REMARK  status: ('A' for Active; 'I' for Inactive)
REMARK    1  A    between atoms: C_1  and  C_2
REMARK    2  A    between atoms: C_2  and  C_3
REMARK    3  A    between atoms: C_7  and  N_8
REMARK    4  A    between atoms: C_9  and  C_11
REMARK    5  A    between atoms: C_11  and  C_12
REMARK    6  A    between atoms: C_14  and  C_15
REMARK                            x       y       z     vdW  Elec       q    Type
REMARK                         _______ _______ _______ _____ _____    ______ ____
ROOT
ATOM      1  C   UNL     1       6.709   6.222  17.650  0.00  0.00    +0.000 C 
ENDROOT
BRANCH   1   2
ATOM      2  C   UNL     1       5.887   5.166  18.275  0.00  0.00    +0.000 A 
ATOM      3  N   UNL     1       4.609   4.934  18.078  0.00  0.00    +0.000 NA
ATOM      4  C   UNL     1       4.305   3.967  19.012  0.00  0.00    +0.000 A 
ATOM      5  N   UNL     1       5.361   3.564  19.736  0.00  0.00    +0.000 NA
ATOM      6  N   UNL     1       6.346   4.338  19.258  0.00  0.00    +0.000 N 
ATOM      7  H   UNL     1       7.272   4.277  19.668  0.00  0.00    +0.000 HD
BRANCH   4   8
ATOM      8  C   UNL     1       2.944   3.507  19.220  0.00  0.00    +0.000 A 
ATOM      9  C   UNL     1       2.169   3.955  20.292  0.00  0.00    +0.000 A 
ATOM     10  C   UNL     1       0.848   3.528  20.412  0.00  0.00    +0.000 A 
ATOM     11  C   UNL     1       0.345   2.658  19.457  0.00  0.00    +0.000 A 
ATOM     12  N   UNL     1       1.064   2.194  18.414  0.00  0.00    +0.000 NA
ATOM     13  C   UNL     1       2.346   2.632  18.320  0.00  0.00    +0.000 A 
ENDBRANCH   4   8
ENDBRANCH   1   2
BRANCH   1  15
ATOM     14  N   UNL     1       7.213   5.231  15.485  0.00  0.00    +0.000 N 
ATOM     15  C   UNL     1       6.459   6.185  16.153  0.00  0.00    +0.000 C 
ATOM     16  O   UNL     1       5.657   6.971  15.653  0.00  0.00    +0.000 OA
ATOM     17  H   UNL     1       7.858   4.682  16.046  0.00  0.00    +0.000 HD
BRANCH  14  22
ATOM     18  C   UNL     1       6.307   3.532  12.313  0.00  0.00    +0.000 A 
ATOM     19  C   UNL     1       7.106   4.220  11.394  0.00  0.00    +0.000 A 
ATOM     20  C   UNL     1       7.913   5.274  11.816  0.00  0.00    +0.000 A 
ATOM     21  C   UNL     1       7.954   5.630  13.165  0.00  0.00    +0.000 A 
ATOM     22  C   UNL     1       7.185   4.942  14.105  0.00  0.00    +0.000 A 
ATOM     23  C   UNL     1       6.342   3.909  13.667  0.00  0.00    +0.000 A 
BRANCH  18  25
ATOM     24  C   UNL     1       6.289   1.314  11.135  0.00  0.00    +0.000 C 
ATOM     25  C   UNL     1       5.461   2.372  11.851  0.00  0.00    +0.000 C 
ENDBRANCH  18  25
ENDBRANCH  14  22
ENDBRANCH   1  15
TORSDOF 5
ENDMDL
MODEL 6
REMARK VINA RESULT:      -7.8      1.317      1.719
REMARK  Name = 
REMARK  6 active torsions:
REMARK  status: ('A' for Active; 'I' for Inactive)
REMARK    1  A    between atoms: C_1  and  C_2
REMARK    2  A    between atoms: C_2  and  C_3
REMARK    3  A    between atoms: C_7  and  N_8
REMARK    4  A    between atoms: C_9  and  C_11
REMARK    5  A    between atoms: C_11  and  C_12
REMARK    6  A    between atoms: C_14  and  C_15
REMARK                            x       y       z     vdW  Elec       q    Type
REMARK                         _______ _______ _______ _____ _____    ______ ____
ROOT
ATOM      1  C   UNL     1       6.329   6.170  16.445  0.00  0.00    +0.000 C 
ENDROOT
BRANCH   1   2
ATOM      2  C   UNL     1       5.749   5.216  17.412  0.00  0.00    +0.000 A 
ATOM      3  N   UNL     1       4.490   5.121  17.776  0.00  0.00    +0.000 NA
ATOM      4  C   UNL     1       4.515   4.204  18.805  0.00  0.00    +0.000 A 
ATOM      5  N   UNL     1       5.735   3.698  19.046  0.00  0.00    +0.000 NA
ATOM      6  N   UNL     1       6.497   4.355  18.161  0.00  0.00    +0.000 N 
ATOM      7  H   UNL     1       7.500   4.198  18.152  0.00  0.00    +0.000 HD
BRANCH   4   8
ATOM      8  C   UNL     1       3.330   3.897  19.583  0.00  0.00    +0.000 A 
ATOM      9  C   UNL     1       2.326   4.842  19.805  0.00  0.00    +0.000 A 
ATOM     10  C   UNL     1       1.181   4.477  20.509  0.00  0.00    +0.000 A 
ATOM     11  C   UNL     1       1.079   3.177  20.978  0.00  0.00    +0.000 A 
ATOM     12  N   UNL     1       2.031   2.238  20.796  0.00  0.00    +0.000 NA
ATOM     13  C   UNL     1       3.133   2.621  20.101  0.00  0.00    +0.000 A 
ENDBRANCH   4   8
ENDBRANCH   1   2
BRANCH   1  15
ATOM     14  N   UNL     1       5.602   4.746  14.610  0.00  0.00    +0.000 N 
ATOM     15  C   UNL     1       6.682   5.401  15.185  0.00  0.00    +0.000 C 
ATOM     16  O   UNL     1       7.843   5.395  14.783  0.00  0.00    +0.000 OA
ATOM     17  H   UNL     1       4.710   4.825  15.089  0.00  0.00    +0.000 HD
BRANCH  14  22
ATOM     18  C   UNL     1       4.364   3.174  11.484  0.00  0.00    +0.000 A 
ATOM     19  C   UNL     1       5.474   2.414  11.100  0.00  0.00    +0.000 A 
ATOM     20  C   UNL     1       6.646   2.455  11.851  0.00  0.00    +0.000 A 
ATOM     21  C   UNL     1       6.711   3.228  13.010  0.00  0.00    +0.000 A 
ATOM     22  C   UNL     1       5.608   3.975  13.428  0.00  0.00    +0.000 A 
ATOM     23  C   UNL     1       4.445   3.964  12.645  0.00  0.00    +0.000 A 
BRANCH  18  25
ATOM     24  C   UNL     1       3.032   4.172   9.604  0.00  0.00    +0.000 C 
ATOM     25  C   UNL     1       3.089   3.099  10.682  0.00  0.00    +0.000 C 
ENDBRANCH  18  25
ENDBRANCH  14  22
ENDBRANCH   1  15
TORSDOF 5
ENDMDL
MODEL 7
REMARK VINA RESULT:      -7.8      1.719      2.241
REMARK  Name = 
REMARK  6 active torsions:
REMARK  status: ('A' for Active; 'I' for Inactive)
REMARK    1  A    between atoms: C_1  and  C_2
REMARK    2  A    between atoms: C_2  and  C_3
REMARK    3  A    between atoms: C_7  and  N_8
REMARK    4  A    between atoms: C_9  and  C_11
REMARK    5  A    between atoms: C_11  and  C_12
REMARK    6  A    between atoms: C_14  and  C_15
REMARK                            x       y       z     vdW  Elec       q    Type
REMARK                         _______ _______ _______ _____ _____    ______ ____
ROOT
ATOM      1  C   UNL     1       6.854   5.959  16.282  0.00  0.00    +0.000 C 
ENDROOT
BRANCH   1   2
ATOM      2  C   UNL     1       6.107   5.001  17.123  0.00  0.00    +0.000 A 
ATOM      3  N   UNL     1       4.829   4.708  17.050  0.00  0.00    +0.000 NA
ATOM      4  C   UNL     1       4.614   3.903  18.147  0.00  0.00    +0.000 A 
ATOM      5  N   UNL     1       5.725   3.653  18.859  0.00  0.00    +0.000 NA
ATOM      6  N   UNL     1       6.652   4.361  18.198  0.00  0.00    +0.000 N 
ATOM      7  H   UNL     1       7.603   4.391  18.552  0.00  0.00    +0.000 HD
BRANCH   4   8
ATOM      8  C   UNL     1       3.285   3.452  18.515  0.00  0.00    +0.000 A 
ATOM      9  C   UNL     1       3.033   2.808  19.728  0.00  0.00    +0.000 A 
ATOM     10  C   UNL     1       1.728   2.448  20.058  0.00  0.00    +0.000 A 
ATOM     11  C   UNL     1       0.715   2.739  19.158  0.00  0.00    +0.000 A 
ATOM     12  N   UNL     1       0.918   3.349  17.972  0.00  0.00    +0.000 NA
ATOM     13  C   UNL     1       2.199   3.692  17.681  0.00  0.00    +0.000 A 
ENDBRANCH   4   8
ENDBRANCH   1   2
BRANCH   1  15
ATOM     14  N   UNL     1       6.007   4.488  14.537  0.00  0.00    +0.000 N 
ATOM     15  C   UNL     1       7.045   5.328  14.914  0.00  0.00    +0.000 C 
ATOM     16  O   UNL     1       8.060   5.578  14.268  0.00  0.00    +0.000 OA
ATOM     17  H   UNL     1       5.253   4.363  15.206  0.00  0.00    +0.000 HD
BRANCH  14  22
ATOM     18  C   UNL     1       4.455   3.126  11.453  0.00  0.00    +0.000 A 
ATOM     19  C   UNL     1       5.500   2.351  10.938  0.00  0.00    +0.000 A 
ATOM     20  C   UNL     1       6.731   2.314  11.587  0.00  0.00    +0.000 A 
ATOM     21  C   UNL     1       6.922   3.022  12.774  0.00  0.00    +0.000 A 
ATOM     22  C   UNL     1       5.886   3.781  13.322  0.00  0.00    +0.000 A 
ATOM     23  C   UNL     1       4.661   3.850  12.641  0.00  0.00    +0.000 A 
BRANCH  18  25
ATOM     24  C   UNL     1       3.034   4.221   9.696  0.00  0.00    +0.000 C 
ATOM     25  C   UNL     1       3.115   3.136  10.760  0.00  0.00    +0.000 C 
ENDBRANCH  18  25
ENDBRANCH  14  22
ENDBRANCH   1  15
TORSDOF 5
ENDMDL
MODEL 8
REMARK VINA RESULT:      -7.8      4.558      7.301
REMARK  Name = 
REMARK  6 active torsions:
REMARK  status: ('A' for Active; 'I' for Inactive)
REMARK    1  A    between atoms: C_1  and  C_2
REMARK    2  A    between atoms: C_2  and  C_3
REMARK    3  A    between atoms: C_7  and  N_8
REMARK    4  A    between atoms: C_9  and  C_11
REMARK    5  A    between atoms: C_11  and  C_12
REMARK    6  A    between atoms: C_14  and  C_15
REMARK                            x       y       z     vdW  Elec       q    Type
REMARK                         _______ _______ _______ _____ _____    ______ ____
ROOT
ATOM      1  C   UNL     1       7.980   6.762  18.242  0.00  0.00    +0.000 C 
ENDROOT
BRANCH   1   2
ATOM      2  C   UNL     1       6.642   6.351  17.770  0.00  0.00    +0.000 A 
ATOM      3  N   UNL     1       5.697   5.768  18.471  0.00  0.00    +0.000 NA
ATOM      4  C   UNL     1       4.738   5.455  17.532  0.00  0.00    +0.000 A 
ATOM      5  N   UNL     1       5.041   5.871  16.292  0.00  0.00    +0.000 NA
ATOM      6  N   UNL     1       6.249   6.428  16.465  0.00  0.00    +0.000 N 
ATOM      7  H   UNL     1       6.749   6.794  15.662  0.00  0.00    +0.000 HD
BRANCH   4   8
ATOM      8  C   UNL     1       3.561   4.678  17.872  0.00  0.00    +0.000 A 
ATOM      9  C   UNL     1       2.664   5.088  18.861  0.00  0.00    +0.000 A 
ATOM     10  C   UNL     1       1.518   4.336  19.107  0.00  0.00    +0.000 A 
ATOM     11  C   UNL     1       1.308   3.189  18.358  0.00  0.00    +0.000 A 
ATOM     12  N   UNL     1       2.154   2.752  17.402  0.00  0.00    +0.000 NA
ATOM     13  C   UNL     1       3.260   3.509  17.182  0.00  0.00    +0.000 A 
ENDBRANCH   4   8
ENDBRANCH   1   2
BRANCH   1  15
ATOM     14  N   UNL     1       8.944   8.853  19.032  0.00  0.00    +0.000 N 
ATOM     15  C   UNL     1       8.076   8.272  18.118  0.00  0.00    +0.000 C 
ATOM     16  O   UNL     1       7.403   8.854  17.270  0.00  0.00    +0.000 OA
ATOM     17  H   UNL     1       9.400   8.229  19.691  0.00  0.00    +0.000 HD
BRANCH  14  22
ATOM     18  C   UNL     1       9.536  12.157  20.615  0.00  0.00    +0.000 A 
ATOM     19  C   UNL     1       9.796  12.955  19.496  0.00  0.00    +0.000 A 
ATOM     20  C   UNL     1       9.819  12.393  18.223  0.00  0.00    +0.000 A 
ATOM     21  C   UNL     1       9.549  11.035  18.050  0.00  0.00    +0.000 A 
ATOM     22  C   UNL     1       9.260  10.222  19.148  0.00  0.00    +0.000 A 
ATOM     23  C   UNL     1       9.281  10.785  20.433  0.00  0.00    +0.000 A 
BRANCH  18  25
ATOM     24  C   UNL     1       8.370  12.186  22.840  0.00  0.00    +0.000 C 
ATOM     25  C   UNL     1       9.483  12.781  21.987  0.00  0.00    +0.000 C 
ENDBRANCH  18  25
ENDBRANCH  14  22
ENDBRANCH   1  15
TORSDOF 5
ENDMDL
MODEL 9
REMARK VINA RESULT:      -7.7      1.511      1.939
REMARK  Name = 
REMARK  6 active torsions:
REMARK  status: ('A' for Active; 'I' for Inactive)
REMARK    1  A    between atoms: C_1  and  C_2
REMARK    2  A    between atoms: C_2  and  C_3
REMARK    3  A    between atoms: C_7  and  N_8
REMARK    4  A    between atoms: C_9  and  C_11
REMARK    5  A    between atoms: C_11  and  C_12
REMARK    6  A    between atoms: C_14  and  C_15
REMARK                            x       y       z     vdW  Elec       q    Type
REMARK                         _______ _______ _______ _____ _____    ______ ____
ROOT
ATOM      1  C   UNL     1       6.808   6.260  17.689  0.00  0.00    +0.000 C 
ENDROOT
BRANCH   1   2
ATOM      2  C   UNL     1       5.379   6.060  18.004  0.00  0.00    +0.000 A 
ATOM      3  N   UNL     1       4.836   5.027  18.607  0.00  0.00    +0.000 NA
ATOM      4  C   UNL     1       3.482   5.260  18.500  0.00  0.00    +0.000 A 
ATOM      5  N   UNL     1       3.180   6.423  17.900  0.00  0.00    +0.000 NA
ATOM      6  N   UNL     1       4.392   6.906  17.590  0.00  0.00    +0.000 N 
ATOM      7  H   UNL     1       4.464   7.777  17.074  0.00  0.00    +0.000 HD
BRANCH   4   8
ATOM      8  C   UNL     1       2.502   4.283  18.936  0.00  0.00    +0.000 A 
ATOM      9  C   UNL     1       2.168   4.121  20.283  0.00  0.00    +0.000 A 
ATOM     10  C   UNL     1       1.177   3.210  20.641  0.00  0.00    +0.000 A 
ATOM     11  C   UNL     1       0.554   2.483  19.639  0.00  0.00    +0.000 A 
ATOM     12  N   UNL     1       0.855   2.601  18.329  0.00  0.00    +0.000 NA
ATOM     13  C   UNL     1       1.821   3.501  18.010  0.00  0.00    +0.000 A 
ENDBRANCH   4   8
ENDBRANCH   1   2
BRANCH   1  15
ATOM     14  N   UNL     1       6.507   5.705  15.338  0.00  0.00    +0.000 N 
ATOM     15  C   UNL     1       7.158   5.363  16.515  0.00  0.00    +0.000 C 
ATOM     16  O   UNL     1       7.942   4.431  16.676  0.00  0.00    +0.000 OA
ATOM     17  H   UNL     1       5.861   6.488  15.382  0.00  0.00    +0.000 HD
BRANCH  14  22
ATOM     18  C   UNL     1       5.654   3.627  12.383  0.00  0.00    +0.000 A 
ATOM     19  C   UNL     1       6.830   3.723  11.631  0.00  0.00    +0.000 A 
ATOM     20  C   UNL     1       7.888   4.509  12.080  0.00  0.00    +0.000 A 
ATOM     21  C   UNL     1       7.796   5.181  13.299  0.00  0.00    +0.000 A 
ATOM     22  C   UNL     1       6.644   5.080  14.081  0.00  0.00    +0.000 A 
ATOM     23  C   UNL     1       5.565   4.322  13.603  0.00  0.00    +0.000 A 
BRANCH  18  25
ATOM     24  C   UNL     1       3.726   3.408  10.789  0.00  0.00    +0.000 C 
ATOM     25  C   UNL     1       4.526   2.749  11.904  0.00  0.00    +0.000 C 
ENDBRANCH  18  25
ENDBRANCH  14  22
ENDBRANCH   1  15
TORSDOF 5
ENDMDL
