MODEL 1
REMARK VINA RESULT:      -8.3      0.000      0.000
REMARK  Name = 
REMARK  3 active torsions:
REMARK  status: ('A' for Active; 'I' for Inactive)
REMARK    1  A    between atoms: C_2  and  C_11
REMARK    2  A    between atoms: N_3  and  C_4
REMARK    3  A    between atoms: C_15  and  C_17
REMARK                            x       y       z     vdW  Elec       q    Type
REMARK                         _______ _______ _______ _____ _____    ______ ____
ROOT
ATOM      1  C   UNL     1       7.713   5.643  18.259  0.00  0.00    +0.000 C 
ATOM      2  C   UNL     1       7.248   4.740  17.107  0.00  0.00    +0.000 C 
ATOM      3  C   UNL     1       5.768   4.939  16.769  0.00  0.00    +0.000 C 
ATOM      4  N   UNL     1       4.932   4.797  17.961  0.00  0.00    +0.000 N 
ATOM      5  C   UNL     1       3.899   3.844  17.967  0.00  0.00    +0.000 C 
ATOM      6  O   UNL     1       3.773   3.073  17.012  0.00  0.00    +0.000 OA
ATOM      7  C   UNL     1       5.306   5.673  19.072  0.00  0.00    +0.000 C 
ATOM      8  C   UNL     1       6.771   5.470  19.460  0.00  0.00    +0.000 C 
ENDROOT
BRANCH   5   9
ATOM      9  C   UNL     1       3.008   3.772  19.125  0.00  0.00    +0.000 A 
ATOM     10  C   UNL     1       1.820   4.430  19.405  0.00  0.00    +0.000 A 
ATOM     11  C   UNL     1       1.327   4.151  20.712  0.00  0.00    +0.000 A 
ATOM     12  C   UNL     1       2.076   3.185  21.343  0.00  0.00    +0.000 A 
ATOM     13  S   UNL     1       3.392   2.665  20.386  0.00  0.00    +0.000 S 
ENDBRANCH   5   9
BRANCH   1  15
ATOM     14  O   UNL     1       7.317   7.547  16.851  0.00  0.00    +0.000 OA
ATOM     15  C   UNL     1       7.804   7.130  17.896  0.00  0.00    +0.000 C 
ATOM     16  N   UNL     1       8.452   7.913  18.833  0.00  0.00    +0.000 N 
ATOM     17  H   UNL     1       8.925   7.451  19.599  0.00  0.00    +0.000 HD
BRANCH  16  18
ATOM     18  C   UNL     1       8.670   9.306  18.706  0.00  0.00    +0.000 A 
ATOM     19  C   UNL     1       8.083  10.083  17.700  0.00  0.00    +0.000 A 
ATOM     20  C   UNL     1       8.401  11.434  17.557  0.00  0.00    +0.000 A 
ATOM     21  C   UNL     1       9.305  12.028  18.430  0.00  0.00    +0.000 A 
ATOM     22  C   UNL     1       9.859  11.272  19.461  0.00  0.00    +0.000 A 
ATOM     23 CL   UNL     1      10.979  12.008  20.543  0.00  0.00    +0.000 Cl
ATOM     24  C   UNL     1       9.533   9.922  19.616  0.00  0.00    +0.000 A 
ENDBRANCH  16  18
ENDBRANCH   1  15
TORSDOF 3
ENDMDL
MODEL 2
REMARK VINA RESULT:      -8.0      4.514      5.822
REMARK  Name = 
REMARK  3 active torsions:
REMARK  status: ('A' for Active; 'I' for Inactive)
REMARK    1  A    between atoms: C_2  and  C_11
REMARK    2  A    between atoms: N_3  and  C_4
REMARK    3  A    between atoms: C_15  and  C_17
REMARK                            x       y       z     vdW  Elec       q    Type
REMARK                         _______ _______ _______ _____ _____    ______ ____
ROOT
ATOM      1  C   UNL     1       5.610   6.486  17.383  0.00  0.00    +0.000 C 
ATOM      2  C   UNL     1       6.515   5.572  18.223  0.00  0.00    +0.000 C 
ATOM      3  C   UNL     1       6.083   4.104  18.160  0.00  0.00    +0.000 C 
ATOM      4  N   UNL     1       4.669   3.956  18.504  0.00  0.00    +0.000 N 
ATOM      5  C   UNL     1       4.304   3.108  19.563  0.00  0.00    +0.000 C 
ATOM      6  O   UNL     1       5.181   2.578  20.252  0.00  0.00    +0.000 OA
ATOM      7  C   UNL     1       3.760   4.772  17.697  0.00  0.00    +0.000 C 
ATOM      8  C   UNL     1       4.142   6.251  17.771  0.00  0.00    +0.000 C 
ENDROOT
BRANCH   5   9
ATOM      9  C   UNL     1       2.885   2.892  19.841  0.00  0.00    +0.000 A 
ATOM     10  C   UNL     1       1.906   2.223  19.122  0.00  0.00    +0.000 A 
ATOM     11  C   UNL     1       0.610   2.349  19.702  0.00  0.00    +0.000 A 
ATOM     12  C   UNL     1       0.655   2.995  20.915  0.00  0.00    +0.000 A 
ATOM     13  S   UNL     1       2.239   3.489  21.321  0.00  0.00    +0.000 S 
ENDBRANCH   5   9
BRANCH   1  15
ATOM     14  O   UNL     1       5.196   7.063  15.089  0.00  0.00    +0.000 OA
ATOM     15  C   UNL     1       5.769   6.310  15.868  0.00  0.00    +0.000 C 
ATOM     16  N   UNL     1       6.598   5.268  15.494  0.00  0.00    +0.000 N 
ATOM     17  H   UNL     1       6.921   4.631  16.211  0.00  0.00    +0.000 HD
BRANCH  16  18
ATOM     18  C   UNL     1       6.880   4.905  14.155  0.00  0.00    +0.000 A 
ATOM     19  C   UNL     1       7.796   5.595  13.353  0.00  0.00    +0.000 A 
ATOM     20  C   UNL     1       7.973   5.260  12.010  0.00  0.00    +0.000 A 
ATOM     21  C   UNL     1       7.240   4.218  11.456  0.00  0.00    +0.000 A 
ATOM     22  C   UNL     1       6.360   3.496  12.259  0.00  0.00    +0.000 A 
ATOM     23 CL   UNL     1       5.451   2.205  11.573  0.00  0.00    +0.000 Cl
ATOM     24  C   UNL     1       6.189   3.821  13.607  0.00  0.00    +0.000 A 
ENDBRANCH  16  18
ENDBRANCH   1  15
TORSDOF 3
ENDMDL
MODEL 3
REMARK VINA RESULT:      -7.7      1.706      2.084
REMARK  Name = 
REMARK  3 active torsions:
REMARK  status: ('A' for Active; 'I' for Inactive)
REMARK    1  A    between atoms: C_2  and  C_11
REMARK    2  A    between atoms: N_3  and  C_4
REMARK    3  A    between atoms: C_15  and  C_17
REMARK                            x       y       z     vdW  Elec       q    Type
REMARK                         _______ _______ _______ _____ _____    ______ ____
ROOT
ATOM      1  C   UNL     1       6.686   5.985  17.182  0.00  0.00    +0.000 C 
ATOM      2  C   UNL     1       5.459   6.597  16.491  0.00  0.00    +0.000 C 
ATOM      3  C   UNL     1       4.384   7.036  17.490  0.00  0.00    +0.000 C 
ATOM      4  N   UNL     1       4.027   5.943  18.394  0.00  0.00    +0.000 N 
ATOM      5  C   UNL     1       2.687   5.526  18.473  0.00  0.00    +0.000 C 
ATOM      6  O   UNL     1       1.849   6.016  17.711  0.00  0.00    +0.000 OA
ATOM      7  C   UNL     1       5.159   5.356  19.113  0.00  0.00    +0.000 C 
ATOM      8  C   UNL     1       6.234   4.872  18.140  0.00  0.00    +0.000 C 
ENDROOT
BRANCH   5   9
ATOM      9  C   UNL     1       2.321   4.497  19.446  0.00  0.00    +0.000 A 
ATOM     10  C   UNL     1       1.978   4.589  20.786  0.00  0.00    +0.000 A 
ATOM     11  C   UNL     1       1.802   3.316  21.401  0.00  0.00    +0.000 A 
ATOM     12  C   UNL     1       1.882   2.292  20.486  0.00  0.00    +0.000 A 
ATOM     13  S   UNL     1       2.221   2.863  18.912  0.00  0.00    +0.000 S 
ENDBRANCH   5   9
BRANCH   1  15
ATOM     14  O   UNL     1       8.200   6.645  18.926  0.00  0.00    +0.000 OA
ATOM     15  C   UNL     1       7.547   6.996  17.949  0.00  0.00    +0.000 C 
ATOM     16  N   UNL     1       7.518   8.281  17.439  0.00  0.00    +0.000 N 
ATOM     17  H   UNL     1       6.850   8.491  16.708  0.00  0.00    +0.000 HD
BRANCH  16  18
ATOM     18  C   UNL     1       8.217   9.381  17.989  0.00  0.00    +0.000 A 
ATOM     19  C   UNL     1       9.080   9.268  19.085  0.00  0.00    +0.000 A 
ATOM     20  C   UNL     1       9.675  10.396  19.653  0.00  0.00    +0.000 A 
ATOM     21  C   UNL     1       9.420  11.654  19.119  0.00  0.00    +0.000 A 
ATOM     22  C   UNL     1       8.599  11.770  18.001  0.00  0.00    +0.000 A 
ATOM     23 CL   UNL     1       8.283  13.328  17.340  0.00  0.00    +0.000 Cl
ATOM     24  C   UNL     1       8.011  10.642  17.422  0.00  0.00    +0.000 A 
ENDBRANCH  16  18
ENDBRANCH   1  15
TORSDOF 3
ENDMDL
MODEL 4
REMARK VINA RESULT:      -7.6      4.605      6.841
REMARK  Name = 
REMARK  3 active torsions:
REMARK  status: ('A' for Active; 'I' for Inactive)
REMARK    1  A    between atoms: C_2  and  C_11
REMARK    2  A    between atoms: N_3  and  C_4
REMARK    3  A    between atoms: C_15  and  C_17
REMARK                            x       y       z     vdW  Elec       q    Type
REMARK                         _______ _______ _______ _____ _____    ______ ____
ROOT
ATOM      1  C   UNL     1       4.091   4.453  18.901  0.00  0.00    +0.000 C 
ATOM      2  C   UNL     1       5.430   5.192  19.038  0.00  0.00    +0.000 C 
ATOM      3  C   UNL     1       5.712   6.116  17.851  0.00  0.00    +0.000 C 
ATOM      4  N   UNL     1       5.601   5.395  16.583  0.00  0.00    +0.000 N 
ATOM      5  C   UNL     1       6.698   5.376  15.704  0.00  0.00    +0.000 C 
ATOM      6  O   UNL     1       7.768   5.882  16.052  0.00  0.00    +0.000 OA
ATOM      7  C   UNL     1       4.322   4.712  16.384  0.00  0.00    +0.000 C 
ATOM      8  C   UNL     1       4.030   3.751  17.535  0.00  0.00    +0.000 C 
ENDROOT
BRANCH   5   9
ATOM      9  C   UNL     1       6.549   4.734  14.399  0.00  0.00    +0.000 A 
ATOM     10  C   UNL     1       5.566   3.890  13.904  0.00  0.00    +0.000 A 
ATOM     11  C   UNL     1       5.868   3.393  12.603  0.00  0.00    +0.000 A 
ATOM     12  C   UNL     1       7.002   3.973  12.086  0.00  0.00    +0.000 A 
ATOM     13  S   UNL     1       7.723   5.065  13.184  0.00  0.00    +0.000 S 
ENDBRANCH   5   9
BRANCH   1  15
ATOM     14  O   UNL     1       1.729   4.871  19.024  0.00  0.00    +0.000 OA
ATOM     15  C   UNL     1       2.858   5.349  19.066  0.00  0.00    +0.000 C 
ATOM     16  N   UNL     1       3.141   6.687  19.270  0.00  0.00    +0.000 N 
ATOM     17  H   UNL     1       4.099   6.995  19.162  0.00  0.00    +0.000 HD
BRANCH  16  18
ATOM     18  C   UNL     1       2.167   7.701  19.431  0.00  0.00    +0.000 A 
ATOM     19  C   UNL     1       1.801   8.579  18.405  0.00  0.00    +0.000 A 
ATOM     20  C   UNL     1       0.905   9.624  18.636  0.00  0.00    +0.000 A 
ATOM     21  C   UNL     1       0.354   9.793  19.901  0.00  0.00    +0.000 A 
ATOM     22  C   UNL     1       0.678   8.896  20.916  0.00  0.00    +0.000 A 
ATOM     23 CL   UNL     1      -0.005   9.106  22.483  0.00  0.00    +0.000 Cl
ATOM     24  C   UNL     1       1.565   7.841  20.685  0.00  0.00    +0.000 A 
ENDBRANCH  16  18
ENDBRANCH   1  15
TORSDOF 3
ENDMDL
MODEL 5
REMARK VINA RESULT:      -7.5      1.134      1.514
REMARK  Name = 
REMARK  3 active torsions:
REMARK  status: ('A' for Active; 'I' for Inactive)
REMARK    1  A    between atoms: C_2  and  C_11
REMARK    2  A    between atoms: N_3  and  C_4
REMARK    3  A    between atoms: C_15  and  C_17
REMARK                            x       y       z     vdW  Elec       q    Type
REMARK                         _______ _______ _______ _____ _____    ______ ____
ROOT
ATOM      1  C   UNL     1       7.735   5.955  18.069  0.00  0.00    +0.000 C 
ATOM      2  C   UNL     1       7.171   5.219  16.844  0.00  0.00    +0.000 C 
ATOM      3  C   UNL     1       5.678   5.488  16.637  0.00  0.00    +0.000 C 
ATOM      4  N   UNL     1       4.918   5.206  17.854  0.00  0.00    +0.000 N 
ATOM      5  C   UNL     1       3.863   4.278  17.807  0.00  0.00    +0.000 C 
ATOM      6  O   UNL     1       3.654   3.643  16.770  0.00  0.00    +0.000 OA
ATOM      7  C   UNL     1       5.388   5.921  19.042  0.00  0.00    +0.000 C 
ATOM      8  C   UNL     1       6.869   5.642  19.299  0.00  0.00    +0.000 C 
ENDROOT
BRANCH   5   9
ATOM      9  C   UNL     1       3.048   4.071  19.004  0.00  0.00    +0.000 A 
ATOM     10  C   UNL     1       1.922   4.733  19.467  0.00  0.00    +0.000 A 
ATOM     11  C   UNL     1       1.501   4.279  20.750  0.00  0.00    +0.000 A 
ATOM     12  C   UNL     1       2.233   3.194  21.172  0.00  0.00    +0.000 A 
ATOM     13  S   UNL     1       3.450   2.765  20.052  0.00  0.00    +0.000 S 
ENDBRANCH   5   9
BRANCH   1  15
ATOM     14  O   UNL     1       7.255   8.041  16.981  0.00  0.00    +0.000 OA
ATOM     15  C   UNL     1       7.841   7.475  17.896  0.00  0.00    +0.000 C 
ATOM     16  N   UNL     1       8.622   8.108  18.845  0.00  0.00    +0.000 N 
ATOM     17  H   UNL     1       9.162   7.535  19.482  0.00  0.00    +0.000 HD
BRANCH  16  18
ATOM     18  C   UNL     1       8.878   9.500  18.878  0.00  0.00    +0.000 A 
ATOM     19  C   UNL     1       9.716  10.101  19.824  0.00  0.00    +0.000 A 
ATOM     20  C   UNL     1       9.865  11.488  19.877  0.00  0.00    +0.000 A 
ATOM     21  C   UNL     1       9.183  12.291  18.970  0.00  0.00    +0.000 A 
ATOM     22  C   UNL     1       8.383  11.697  17.996  0.00  0.00    +0.000 A 
ATOM     23 CL   UNL     1       7.538  12.692  16.874  0.00  0.00    +0.000 Cl
ATOM     24  C   UNL     1       8.241  10.309  17.933  0.00  0.00    +0.000 A 
ENDBRANCH  16  18
ENDBRANCH   1  15
TORSDOF 3
ENDMDL
MODEL 6
REMARK VINA RESULT:      -7.4      4.836      6.844
REMARK  Name = 
REMARK  3 active torsions:
REMARK  status: ('A' for Active; 'I' for Inactive)
REMARK    1  A    between atoms: C_2  and  C_11
REMARK    2  A    between atoms: N_3  and  C_4
REMARK    3  A    between atoms: C_15  and  C_17
REMARK                            x       y       z     vdW  Elec       q    Type
REMARK                         _______ _______ _______ _____ _____    ______ ____
ROOT
ATOM      1  C   UNL     1       3.564   3.466  18.581  0.00  0.00    +0.000 C 
ATOM      2  C   UNL     1       4.999   3.763  19.038  0.00  0.00    +0.000 C 
ATOM      3  C   UNL     1       5.664   4.861  18.204  0.00  0.00    +0.000 C 
ATOM      4  N   UNL     1       5.585   4.557  16.775  0.00  0.00    +0.000 N 
ATOM      5  C   UNL     1       6.770   4.485  16.021  0.00  0.00    +0.000 C 
ATOM      6  O   UNL     1       7.861   4.580  16.588  0.00  0.00    +0.000 OA
ATOM      7  C   UNL     1       4.230   4.314  16.280  0.00  0.00    +0.000 C 
ATOM      8  C   UNL     1       3.552   3.193  17.069  0.00  0.00    +0.000 C 
ENDROOT
BRANCH   5   9
ATOM      9  C   UNL     1       6.679   4.274  14.577  0.00  0.00    +0.000 A 
ATOM     10  C   UNL     1       5.844   3.462  13.824  0.00  0.00    +0.000 A 
ATOM     11  C   UNL     1       6.169   3.470  12.437  0.00  0.00    +0.000 A 
ATOM     12  C   UNL     1       7.152   4.386  12.148  0.00  0.00    +0.000 A 
ATOM     13  S   UNL     1       7.713   5.189  13.549  0.00  0.00    +0.000 S 
ENDBRANCH   5   9
BRANCH   1  15
ATOM     14  O   UNL     1       1.356   4.397  18.745  0.00  0.00    +0.000 OA
ATOM     15  C   UNL     1       2.558   4.578  18.903  0.00  0.00    +0.000 C 
ATOM     16  N   UNL     1       3.124   5.746  19.380  0.00  0.00    +0.000 N 
ATOM     17  H   UNL     1       4.132   5.835  19.355  0.00  0.00    +0.000 HD
BRANCH  16  18
ATOM     18  C   UNL     1       2.398   6.910  19.727  0.00  0.00    +0.000 A 
ATOM     19  C   UNL     1       1.735   7.062  20.950  0.00  0.00    +0.000 A 
ATOM     20  C   UNL     1       0.953   8.188  21.211  0.00  0.00    +0.000 A 
ATOM     21  C   UNL     1       0.834   9.184  20.249  0.00  0.00    +0.000 A 
ATOM     22  C   UNL     1       1.527   9.062  19.047  0.00  0.00    +0.000 A 
ATOM     23 CL   UNL     1       1.380  10.297  17.856  0.00  0.00    +0.000 Cl
ATOM     24  C   UNL     1       2.322   7.942  18.787  0.00  0.00    +0.000 A 
ENDBRANCH  16  18
ENDBRANCH   1  15
TORSDOF 3
ENDMDL
MODEL 7
REMARK VINA RESULT:      -7.2      4.726      6.256
REMARK  Name = 
REMARK  3 active torsions:
REMARK  status: ('A' for Active; 'I' for Inactive)
REMARK    1  A    between atoms: C_2  and  C_11
REMARK    2  A    between atoms: N_3  and  C_4
REMARK    3  A    between atoms: C_15  and  C_17
REMARK                            x       y       z     vdW  Elec       q    Type
REMARK                         _______ _______ _______ _____ _____    ______ ____
ROOT
ATOM      1  C   UNL     1       6.506   4.758  18.415  0.00  0.00    +0.000 C 
ATOM      2  C   UNL     1       5.308   3.855  18.741  0.00  0.00    +0.000 C 
ATOM      3  C   UNL     1       4.067   4.210  17.919  0.00  0.00    +0.000 C 
ATOM      4  N   UNL     1       3.742   5.631  18.041  0.00  0.00    +0.000 N 
ATOM      5  C   UNL     1       2.469   6.009  18.502  0.00  0.00    +0.000 C 
ATOM      6  O   UNL     1       1.679   5.144  18.890  0.00  0.00    +0.000 OA
ATOM      7  C   UNL     1       4.840   6.535  17.694  0.00  0.00    +0.000 C 
ATOM      8  C   UNL     1       6.084   6.231  18.528  0.00  0.00    +0.000 C 
ENDROOT
BRANCH   5   9
ATOM      9  C   UNL     1       2.120   7.428  18.533  0.00  0.00    +0.000 A 
ATOM     10  C   UNL     1       2.082   8.381  17.527  0.00  0.00    +0.000 A 
ATOM     11  C   UNL     1       1.794   9.689  18.013  0.00  0.00    +0.000 A 
ATOM     12  C   UNL     1       1.488   9.678  19.354  0.00  0.00    +0.000 A 
ATOM     13  S   UNL     1       1.601   8.112  20.026  0.00  0.00    +0.000 S 
ENDBRANCH   5   9
BRANCH   1  15
ATOM     14  O   UNL     1       8.287   4.143  16.925  0.00  0.00    +0.000 OA
ATOM     15  C   UNL     1       7.122   4.511  17.032  0.00  0.00    +0.000 C 
ATOM     16  N   UNL     1       6.262   4.727  15.972  0.00  0.00    +0.000 N 
ATOM     17  H   UNL     1       5.362   5.149  16.163  0.00  0.00    +0.000 HD
BRANCH  16  18
ATOM     18  C   UNL     1       6.611   4.580  14.608  0.00  0.00    +0.000 A 
ATOM     19  C   UNL     1       7.556   5.391  13.969  0.00  0.00    +0.000 A 
ATOM     20  C   UNL     1       7.801   5.271  12.601  0.00  0.00    +0.000 A 
ATOM     21  C   UNL     1       7.106   4.325  11.855  0.00  0.00    +0.000 A 
ATOM     22  C   UNL     1       6.198   3.483  12.492  0.00  0.00    +0.000 A 
ATOM     23 CL   UNL     1       5.338   2.312  11.569  0.00  0.00    +0.000 Cl
ATOM     24  C   UNL     1       5.960   3.591  13.865  0.00  0.00    +0.000 A 
ENDBRANCH  16  18
ENDBRANCH   1  15
TORSDOF 3
ENDMDL
MODEL 8
REMARK VINA RESULT:      -7.1      5.572      6.614
REMARK  Name = 
REMARK  3 active torsions:
REMARK  status: ('A' for Active; 'I' for Inactive)
REMARK    1  A    between atoms: C_2  and  C_11
REMARK    2  A    between atoms: N_3  and  C_4
REMARK    3  A    between atoms: C_15  and  C_17
REMARK                            x       y       z     vdW  Elec       q    Type
REMARK                         _______ _______ _______ _____ _____    ______ ____
ROOT
ATOM      1  C   UNL     1       0.182  10.100  19.164  0.00  0.00    +0.000 C 
ATOM      2  C   UNL     1      -0.104   9.223  20.392  0.00  0.00    +0.000 C 
ATOM      3  C   UNL     1       1.157   8.542  20.931  0.00  0.00    +0.000 C 
ATOM      4  N   UNL     1       1.853   7.810  19.873  0.00  0.00    +0.000 N 
ATOM      5  C   UNL     1       2.101   6.436  20.037  0.00  0.00    +0.000 C 
ATOM      6  O   UNL     1       1.644   5.845  21.019  0.00  0.00    +0.000 OA
ATOM      7  C   UNL     1       2.192   8.616  18.699  0.00  0.00    +0.000 C 
ATOM      8  C   UNL     1       0.945   9.279  18.113  0.00  0.00    +0.000 C 
ENDROOT
BRANCH   5   9
ATOM      9  C   UNL     1       2.879   5.730  19.019  0.00  0.00    +0.000 A 
ATOM     10  C   UNL     1       2.497   5.140  17.824  0.00  0.00    +0.000 A 
ATOM     11  C   UNL     1       3.565   4.452  17.180  0.00  0.00    +0.000 A 
ATOM     12  C   UNL     1       4.762   4.648  17.828  0.00  0.00    +0.000 A 
ATOM     13  S   UNL     1       4.584   5.608  19.230  0.00  0.00    +0.000 S 
ENDBRANCH   5   9
BRANCH   1  15
ATOM     14  O   UNL     1       1.376  11.601  20.609  0.00  0.00    +0.000 OA
ATOM     15  C   UNL     1       0.967  11.381  19.474  0.00  0.00    +0.000 C 
ATOM     16  N   UNL     1       1.164  12.213  18.388  0.00  0.00    +0.000 N 
ATOM     17  H   UNL     1       0.678  11.998  17.526  0.00  0.00    +0.000 HD
BRANCH  16  18
ATOM     18  C   UNL     1       1.843  13.454  18.437  0.00  0.00    +0.000 A 
ATOM     19  C   UNL     1       1.199  14.668  18.703  0.00  0.00    +0.000 A 
ATOM     20  C   UNL     1       1.892  15.878  18.648  0.00  0.00    +0.000 A 
ATOM     21  C   UNL     1       3.247  15.884  18.337  0.00  0.00    +0.000 A 
ATOM     22  C   UNL     1       3.905  14.677  18.116  0.00  0.00    +0.000 A 
ATOM     23 CL   UNL     1       5.583  14.685  17.730  0.00  0.00    +0.000 Cl
ATOM     24  C   UNL     1       3.217  13.462  18.182  0.00  0.00    +0.000 A 
ENDBRANCH  16  18
ENDBRANCH   1  15
TORSDOF 3
ENDMDL
MODEL 9
REMARK VINA RESULT:      -7.0      4.706      6.858
REMARK  Name = 
REMARK  3 active torsions:
REMARK  status: ('A' for Active; 'I' for Inactive)
REMARK    1  A    between atoms: C_2  and  C_11
REMARK    2  A    between atoms: N_3  and  C_4
REMARK    3  A    between atoms: C_15  and  C_17
REMARK                            x       y       z     vdW  Elec       q    Type
REMARK                         _______ _______ _______ _____ _____    ______ ____
ROOT
ATOM      1  C   UNL     1       3.657   5.224  18.729  0.00  0.00    +0.000 C 
ATOM      2  C   UNL     1       5.124   5.092  19.162  0.00  0.00    +0.000 C 
ATOM      3  C   UNL     1       6.085   5.784  18.192  0.00  0.00    +0.000 C 
ATOM      4  N   UNL     1       5.866   5.329  16.819  0.00  0.00    +0.000 N 
ATOM      5  C   UNL     1       6.936   4.768  16.101  0.00  0.00    +0.000 C 
ATOM      6  O   UNL     1       8.016   4.574  16.666  0.00  0.00    +0.000 OA
ATOM      7  C   UNL     1       4.490   5.480  16.343  0.00  0.00    +0.000 C 
ATOM      8  C   UNL     1       3.508   4.765  17.271  0.00  0.00    +0.000 C 
ENDROOT
BRANCH   5   9
ATOM      9  C   UNL     1       6.735   4.401  14.700  0.00  0.00    +0.000 A 
ATOM     10  C   UNL     1       5.814   3.555  14.101  0.00  0.00    +0.000 A 
ATOM     11  C   UNL     1       6.041   3.391  12.704  0.00  0.00    +0.000 A 
ATOM     12  C   UNL     1       7.041   4.217  12.249  0.00  0.00    +0.000 A 
ATOM     13  S   UNL     1       7.734   5.141  13.508  0.00  0.00    +0.000 S 
ENDBRANCH   5   9
BRANCH   1  15
ATOM     14  O   UNL     1       3.397   7.524  18.088  0.00  0.00    +0.000 OA
ATOM     15  C   UNL     1       3.083   6.639  18.877  0.00  0.00    +0.000 C 
ATOM     16  N   UNL     1       2.207   6.798  19.935  0.00  0.00    +0.000 N 
ATOM     17  H   UNL     1       2.114   6.038  20.597  0.00  0.00    +0.000 HD
BRANCH  16  18
ATOM     18  C   UNL     1       1.569   8.014  20.276  0.00  0.00    +0.000 A 
ATOM     19  C   UNL     1       1.424   9.079  19.380  0.00  0.00    +0.000 A 
ATOM     20  C   UNL     1       0.872  10.294  19.788  0.00  0.00    +0.000 A 
ATOM     21  C   UNL     1       0.446  10.452  21.102  0.00  0.00    +0.000 A 
ATOM     22  C   UNL     1       0.544   9.382  21.987  0.00  0.00    +0.000 A 
ATOM     23 CL   UNL     1       0.016   9.578  23.614  0.00  0.00    +0.000 Cl
ATOM     24  C   UNL     1       1.085   8.160  21.579  0.00  0.00    +0.000 A 
ENDBRANCH  16  18
ENDBRANCH   1  15
TORSDOF 3
ENDMDL
