MODEL 1
REMARK VINA RESULT:      -8.1      0.000      0.000
REMARK  Name = 
REMARK  4 active torsions:
REMARK  status: ('A' for Active; 'I' for Inactive)
REMARK    1  A    between atoms: C_2  and  C_3
REMARK    2  A    between atoms: C_9  and  C_10
REMARK    3  A    between atoms: C_22  and  N_23
REMARK    4  A    between atoms: C_27  and  C_28
REMARK                            x       y       z     vdW  Elec       q    Type
REMARK                         _______ _______ _______ _____ _____    ______ ____
ROOT
ATOM      1  O   UNL     1       0.771  11.869  20.154  0.00  0.00    +0.000 OA
ATOM      2  C   UNL     1       0.006  10.920  20.000  0.00  0.00    +0.000 C 
ATOM      3  N   UNL     1       0.258   9.665  20.536  0.00  0.00    +0.000 N 
ATOM      4  C   UNL     1       1.468   9.403  21.301  0.00  0.00    +0.000 C 
ATOM      5  C   UNL     1       1.000   9.730  22.737  0.00  0.00    +0.000 C 
ATOM      6  C   UNL     1      -0.490   9.314  22.697  0.00  0.00    +0.000 C 
ATOM      7  C   UNL     1      -0.647   8.786  21.255  0.00  0.00    +0.000 C 
ATOM      8  C   UNL     1       0.084   7.438  21.162  0.00  0.00    +0.000 C 
ATOM      9  C   UNL     1       1.578   7.856  21.184  0.00  0.00    +0.000 C 
ENDROOT
BRANCH   9  10
ATOM     10  N   UNL     1       2.269   7.457  19.957  0.00  0.00    +0.000 N 
ATOM     11  C   UNL     1       2.397   6.112  19.657  0.00  0.00    +0.000 A 
ATOM     12  C   UNL     1       2.563   5.108  20.613  0.00  0.00    +0.000 A 
ATOM     13  N   UNL     1       2.628   3.782  20.325  0.00  0.00    +0.000 NA
ATOM     14  C   UNL     1       2.556   3.463  19.005  0.00  0.00    +0.000 A 
ATOM     15  C   UNL     1       2.450   4.460  18.045  0.00  0.00    +0.000 A 
ATOM     16  N   UNL     1       2.359   5.781  18.350  0.00  0.00    +0.000 NA
ATOM     17  H   UNL     1       1.970   7.955  19.115  0.00  0.00    +0.000 HD
BRANCH  14  18
ATOM     18  C   UNL     1       2.558   2.019  18.556  0.00  0.00    +0.000 C 
ATOM     19  F   UNL     1       1.629   1.238  19.175  0.00  0.00    +0.000 F 
ATOM     20  F   UNL     1       2.311   1.891  17.219  0.00  0.00    +0.000 F 
ATOM     21  F   UNL     1       3.758   1.403  18.762  0.00  0.00    +0.000 F 
ENDBRANCH  14  18
ENDBRANCH   9  10
BRANCH   2  22
ATOM     22  C   UNL     1      -1.218  11.121  19.169  0.00  0.00    +0.000 A 
ATOM     23  C   UNL     1      -1.348  10.374  17.983  0.00  0.00    +0.000 A 
ATOM     24  C   UNL     1      -2.491  10.475  17.194  0.00  0.00    +0.000 A 
ATOM     25  C   UNL     1      -3.541  11.266  17.626  0.00  0.00    +0.000 A 
ATOM     26  F   UNL     1      -4.659  11.333  16.891  0.00  0.00    +0.000 F 
ATOM     27  C   UNL     1      -3.460  11.970  18.822  0.00  0.00    +0.000 A 
ATOM     28  C   UNL     1      -2.293  11.930  19.622  0.00  0.00    +0.000 A 
BRANCH  28  29
ATOM     29  C   UNL     1      -2.268  12.698  20.882  0.00  0.00    +0.000 A 
ATOM     30  N   UNL     1      -2.662  12.060  22.006  0.00  0.00    +0.000 NA
ATOM     31  C   UNL     1      -2.541  12.745  23.160  0.00  0.00    +0.000 A 
ATOM     32  C   UNL     1      -2.048  14.024  23.235  0.00  0.00    +0.000 A 
ATOM     33  C   UNL     1      -1.732  14.602  22.032  0.00  0.00    +0.000 A 
ATOM     34  N   UNL     1      -1.874  13.983  20.844  0.00  0.00    +0.000 NA
ENDBRANCH  28  29
ENDBRANCH   2  22
TORSDOF 4
ENDMDL
MODEL 2
REMARK VINA RESULT:      -8.0      0.162      1.042
REMARK  Name = 
REMARK  4 active torsions:
REMARK  status: ('A' for Active; 'I' for Inactive)
REMARK    1  A    between atoms: C_2  and  C_3
REMARK    2  A    between atoms: C_9  and  C_10
REMARK    3  A    between atoms: C_22  and  N_23
REMARK    4  A    between atoms: C_27  and  C_28
REMARK                            x       y       z     vdW  Elec       q    Type
REMARK                         _______ _______ _______ _____ _____    ______ ____
ROOT
ATOM      1  O   UNL     1       0.713  11.911  20.264  0.00  0.00    +0.000 OA
ATOM      2  C   UNL     1      -0.052  10.962  20.107  0.00  0.00    +0.000 C 
ATOM      3  N   UNL     1       0.212   9.700  20.624  0.00  0.00    +0.000 N 
ATOM      4  C   UNL     1       1.433   9.433  21.368  0.00  0.00    +0.000 C 
ATOM      5  C   UNL     1       0.984   9.739  22.815  0.00  0.00    +0.000 C 
ATOM      6  C   UNL     1      -0.505   9.317  22.790  0.00  0.00    +0.000 C 
ATOM      7  C   UNL     1      -0.680   8.808  21.343  0.00  0.00    +0.000 C 
ATOM      8  C   UNL     1       0.054   7.465  21.222  0.00  0.00    +0.000 C 
ATOM      9  C   UNL     1       1.547   7.887  21.229  0.00  0.00    +0.000 C 
ENDROOT
BRANCH   9  10
ATOM     10  N   UNL     1       2.222   7.508  19.987  0.00  0.00    +0.000 N 
ATOM     11  C   UNL     1       2.359   6.166  19.672  0.00  0.00    +0.000 A 
ATOM     12  C   UNL     1       2.552   5.156  20.616  0.00  0.00    +0.000 A 
ATOM     13  N   UNL     1       2.627   3.833  20.314  0.00  0.00    +0.000 NA
ATOM     14  C   UNL     1       2.537   3.525  18.993  0.00  0.00    +0.000 A 
ATOM     15  C   UNL     1       2.404   4.530  18.044  0.00  0.00    +0.000 A 
ATOM     16  N   UNL     1       2.303   5.847  18.363  0.00  0.00    +0.000 NA
ATOM     17  H   UNL     1       1.903   8.010  19.155  0.00  0.00    +0.000 HD
BRANCH  14  18
ATOM     18  C   UNL     1       2.548   2.086  18.531  0.00  0.00    +0.000 C 
ATOM     19  F   UNL     1       3.664   1.390  18.889  0.00  0.00    +0.000 F 
ATOM     20  F   UNL     1       1.497   1.372  19.034  0.00  0.00    +0.000 F 
ATOM     21  F   UNL     1       2.452   1.964  17.176  0.00  0.00    +0.000 F 
ENDBRANCH  14  18
ENDBRANCH   9  10
BRANCH   2  22
ATOM     22  C   UNL     1      -1.288  11.170  19.297  0.00  0.00    +0.000 A 
ATOM     23  C   UNL     1      -1.448  10.412  18.121  0.00  0.00    +0.000 A 
ATOM     24  C   UNL     1      -2.604  10.519  17.352  0.00  0.00    +0.000 A 
ATOM     25  C   UNL     1      -3.636  11.328  17.795  0.00  0.00    +0.000 A 
ATOM     26  F   UNL     1      -4.767  11.402  17.079  0.00  0.00    +0.000 F 
ATOM     27  C   UNL     1      -3.525  12.043  18.982  0.00  0.00    +0.000 A 
ATOM     28  C   UNL     1      -2.344  11.997  19.761  0.00  0.00    +0.000 A 
BRANCH  28  29
ATOM     29  C   UNL     1      -2.287  12.777  21.012  0.00  0.00    +0.000 A 
ATOM     30  N   UNL     1      -1.873  14.061  20.924  0.00  0.00    +0.000 NA
ATOM     31  C   UNL     1      -1.919  14.787  22.058  0.00  0.00    +0.000 A 
ATOM     32  C   UNL     1      -2.358  14.289  23.260  0.00  0.00    +0.000 A 
ATOM     33  C   UNL     1      -2.699  12.960  23.255  0.00  0.00    +0.000 A 
ATOM     34  N   UNL     1      -2.630  12.174  22.163  0.00  0.00    +0.000 NA
ENDBRANCH  28  29
ENDBRANCH   2  22
TORSDOF 4
ENDMDL
MODEL 3
REMARK VINA RESULT:      -7.5      3.274      4.141
REMARK  Name = 
REMARK  4 active torsions:
REMARK  status: ('A' for Active; 'I' for Inactive)
REMARK    1  A    between atoms: C_2  and  C_3
REMARK    2  A    between atoms: C_9  and  C_10
REMARK    3  A    between atoms: C_22  and  N_23
REMARK    4  A    between atoms: C_27  and  C_28
REMARK                            x       y       z     vdW  Elec       q    Type
REMARK                         _______ _______ _______ _____ _____    ______ ____
ROOT
ATOM      1  O   UNL     1       2.457  13.088  21.422  0.00  0.00    +0.000 OA
ATOM      2  C   UNL     1       1.956  13.115  20.300  0.00  0.00    +0.000 C 
ATOM      3  N   UNL     1       1.175  12.079  19.808  0.00  0.00    +0.000 N 
ATOM      4  C   UNL     1       0.925  10.884  20.599  0.00  0.00    +0.000 C 
ATOM      5  C   UNL     1      -0.372  11.274  21.343  0.00  0.00    +0.000 C 
ATOM      6  C   UNL     1      -1.082  12.180  20.308  0.00  0.00    +0.000 C 
ATOM      7  C   UNL     1      -0.100  12.152  19.116  0.00  0.00    +0.000 C 
ATOM      8  C   UNL     1      -0.185  10.764  18.466  0.00  0.00    +0.000 C 
ATOM      9  C   UNL     1       0.543   9.857  19.495  0.00  0.00    +0.000 C 
ENDROOT
BRANCH   9  10
ATOM     10  N   UNL     1       1.728   9.224  18.914  0.00  0.00    +0.000 N 
ATOM     11  C   UNL     1       1.968   7.882  19.157  0.00  0.00    +0.000 A 
ATOM     12  C   UNL     1       1.650   7.233  20.351  0.00  0.00    +0.000 A 
ATOM     13  N   UNL     1       1.829   5.904  20.569  0.00  0.00    +0.000 NA
ATOM     14  C   UNL     1       2.388   5.210  19.542  0.00  0.00    +0.000 A 
ATOM     15  C   UNL     1       2.760   5.860  18.373  0.00  0.00    +0.000 A 
ATOM     16  N   UNL     1       2.549   7.186  18.160  0.00  0.00    +0.000 NA
ATOM     17  H   UNL     1       1.868   9.409  17.918  0.00  0.00    +0.000 HD
BRANCH  14  18
ATOM     18  C   UNL     1       2.586   3.714  19.636  0.00  0.00    +0.000 C 
ATOM     19  F   UNL     1       2.962   3.123  18.467  0.00  0.00    +0.000 F 
ATOM     20  F   UNL     1       3.550   3.375  20.543  0.00  0.00    +0.000 F 
ATOM     21  F   UNL     1       1.462   3.055  20.041  0.00  0.00    +0.000 F 
ENDBRANCH  14  18
ENDBRANCH   9  10
BRANCH   2  22
ATOM     22  C   UNL     1       2.235  14.293  19.425  0.00  0.00    +0.000 A 
ATOM     23  C   UNL     1       3.220  14.162  18.427  0.00  0.00    +0.000 A 
ATOM     24  C   UNL     1       3.487  15.204  17.544  0.00  0.00    +0.000 A 
ATOM     25  C   UNL     1       2.720  16.355  17.606  0.00  0.00    +0.000 A 
ATOM     26  F   UNL     1       2.946  17.343  16.730  0.00  0.00    +0.000 F 
ATOM     27  C   UNL     1       1.704  16.486  18.545  0.00  0.00    +0.000 A 
ATOM     28  C   UNL     1       1.441  15.466  19.492  0.00  0.00    +0.000 A 
BRANCH  28  29
ATOM     29  C   UNL     1       0.348  15.664  20.464  0.00  0.00    +0.000 A 
ATOM     30  N   UNL     1      -0.918  15.608  19.995  0.00  0.00    +0.000 NA
ATOM     31  C   UNL     1      -1.903  15.694  20.910  0.00  0.00    +0.000 A 
ATOM     32  C   UNL     1      -1.676  15.831  22.258  0.00  0.00    +0.000 A 
ATOM     33  C   UNL     1      -0.358  15.938  22.623  0.00  0.00    +0.000 A 
ATOM     34  N   UNL     1       0.665  15.904  21.748  0.00  0.00    +0.000 NA
ENDBRANCH  28  29
ENDBRANCH   2  22
TORSDOF 4
ENDMDL
MODEL 4
REMARK VINA RESULT:      -7.4      2.998      3.788
REMARK  Name = 
REMARK  4 active torsions:
REMARK  status: ('A' for Active; 'I' for Inactive)
REMARK    1  A    between atoms: C_2  and  C_3
REMARK    2  A    between atoms: C_9  and  C_10
REMARK    3  A    between atoms: C_22  and  N_23
REMARK    4  A    between atoms: C_27  and  C_28
REMARK                            x       y       z     vdW  Elec       q    Type
REMARK                         _______ _______ _______ _____ _____    ______ ____
ROOT
ATOM      1  O   UNL     1       2.020  12.560  21.414  0.00  0.00    +0.000 OA
ATOM      2  C   UNL     1       1.634  12.674  20.253  0.00  0.00    +0.000 C 
ATOM      3  N   UNL     1       1.060  11.621  19.553  0.00  0.00    +0.000 N 
ATOM      4  C   UNL     1       0.904  10.309  20.162  0.00  0.00    +0.000 C 
ATOM      5  C   UNL     1      -0.503  10.428  20.791  0.00  0.00    +0.000 C 
ATOM      6  C   UNL     1      -1.227  11.366  19.795  0.00  0.00    +0.000 C 
ATOM      7  C   UNL     1      -0.138  11.623  18.732  0.00  0.00    +0.000 C 
ATOM      8  C   UNL     1       0.040  10.334  17.915  0.00  0.00    +0.000 C 
ATOM      9  C   UNL     1       0.782   9.399  18.907  0.00  0.00    +0.000 C 
ENDROOT
BRANCH   9  10
ATOM     10  N   UNL     1       2.096   9.005  18.398  0.00  0.00    +0.000 N 
ATOM     11  C   UNL     1       2.545   7.712  18.606  0.00  0.00    +0.000 A 
ATOM     12  C   UNL     1       2.260   6.958  19.746  0.00  0.00    +0.000 A 
ATOM     13  N   UNL     1       2.649   5.668  19.925  0.00  0.00    +0.000 NA
ATOM     14  C   UNL     1       3.390   5.132  18.919  0.00  0.00    +0.000 A 
ATOM     15  C   UNL     1       3.727   5.896  17.809  0.00  0.00    +0.000 A 
ATOM     16  N   UNL     1       3.307   7.176  17.632  0.00  0.00    +0.000 NA
ATOM     17  H   UNL     1       2.273   9.262  17.424  0.00  0.00    +0.000 HD
BRANCH  14  18
ATOM     18  C   UNL     1       3.835   3.688  18.971  0.00  0.00    +0.000 C 
ATOM     19  F   UNL     1       3.157   2.924  19.873  0.00  0.00    +0.000 F 
ATOM     20  F   UNL     1       3.684   3.056  17.769  0.00  0.00    +0.000 F 
ATOM     21  F   UNL     1       5.155   3.553  19.286  0.00  0.00    +0.000 F 
ENDBRANCH  14  18
ENDBRANCH   9  10
BRANCH   2  22
ATOM     22  C   UNL     1       1.830  13.983  19.563  0.00  0.00    +0.000 A 
ATOM     23  C   UNL     1       2.795  14.059  18.541  0.00  0.00    +0.000 A 
ATOM     24  C   UNL     1       2.986  15.236  17.822  0.00  0.00    +0.000 A 
ATOM     25  C   UNL     1       2.161  16.319  18.070  0.00  0.00    +0.000 A 
ATOM     26  F   UNL     1       2.314  17.440  17.351  0.00  0.00    +0.000 F 
ATOM     27  C   UNL     1       1.163  16.251  19.035  0.00  0.00    +0.000 A 
ATOM     28  C   UNL     1       0.976  15.087  19.820  0.00  0.00    +0.000 A 
BRANCH  28  29
ATOM     29  C   UNL     1      -0.101  15.075  20.828  0.00  0.00    +0.000 A 
ATOM     30  N   UNL     1      -1.353  14.808  20.396  0.00  0.00    +0.000 NA
ATOM     31  C   UNL     1      -2.307  14.706  21.342  0.00  0.00    +0.000 A 
ATOM     32  C   UNL     1      -2.063  14.857  22.685  0.00  0.00    +0.000 A 
ATOM     33  C   UNL     1      -0.772  15.185  23.013  0.00  0.00    +0.000 A 
ATOM     34  N   UNL     1       0.212  15.344  22.108  0.00  0.00    +0.000 NA
ENDBRANCH  28  29
ENDBRANCH   2  22
TORSDOF 4
ENDMDL
MODEL 5
REMARK VINA RESULT:      -7.4      3.010      3.845
REMARK  Name = 
REMARK  4 active torsions:
REMARK  status: ('A' for Active; 'I' for Inactive)
REMARK    1  A    between atoms: C_2  and  C_3
REMARK    2  A    between atoms: C_9  and  C_10
REMARK    3  A    between atoms: C_22  and  N_23
REMARK    4  A    between atoms: C_27  and  C_28
REMARK                            x       y       z     vdW  Elec       q    Type
REMARK                         _______ _______ _______ _____ _____    ______ ____
ROOT
ATOM      1  O   UNL     1       2.116  12.514  21.333  0.00  0.00    +0.000 OA
ATOM      2  C   UNL     1       1.717  12.617  20.175  0.00  0.00    +0.000 C 
ATOM      3  N   UNL     1       1.144  11.556  19.488  0.00  0.00    +0.000 N 
ATOM      4  C   UNL     1       1.003  10.247  20.106  0.00  0.00    +0.000 C 
ATOM      5  C   UNL     1      -0.397  10.359  20.749  0.00  0.00    +0.000 C 
ATOM      6  C   UNL     1      -1.139  11.286  19.756  0.00  0.00    +0.000 C 
ATOM      7  C   UNL     1      -0.063  11.545  18.679  0.00  0.00    +0.000 C 
ATOM      8  C   UNL     1       0.115  10.252  17.869  0.00  0.00    +0.000 C 
ATOM      9  C   UNL     1       0.875   9.328  18.858  0.00  0.00    +0.000 C 
ENDROOT
BRANCH   9  10
ATOM     10  N   UNL     1       2.187   8.941  18.337  0.00  0.00    +0.000 N 
ATOM     11  C   UNL     1       2.630   7.641  18.514  0.00  0.00    +0.000 A 
ATOM     12  C   UNL     1       2.343   6.861  19.636  0.00  0.00    +0.000 A 
ATOM     13  N   UNL     1       2.726   5.566  19.784  0.00  0.00    +0.000 NA
ATOM     14  C   UNL     1       3.463   5.051  18.764  0.00  0.00    +0.000 A 
ATOM     15  C   UNL     1       3.802   5.839  17.672  0.00  0.00    +0.000 A 
ATOM     16  N   UNL     1       3.388   7.125  17.526  0.00  0.00    +0.000 NA
ATOM     17  H   UNL     1       2.363   9.220  17.369  0.00  0.00    +0.000 HD
BRANCH  14  18
ATOM     18  C   UNL     1       3.902   3.604  18.780  0.00  0.00    +0.000 C 
ATOM     19  F   UNL     1       4.387   3.152  17.590  0.00  0.00    +0.000 F 
ATOM     20  F   UNL     1       4.895   3.374  19.690  0.00  0.00    +0.000 F 
ATOM     21  F   UNL     1       2.895   2.749  19.120  0.00  0.00    +0.000 F 
ENDBRANCH  14  18
ENDBRANCH   9  10
BRANCH   2  22
ATOM     22  C   UNL     1       1.896  13.924  19.475  0.00  0.00    +0.000 A 
ATOM     23  C   UNL     1       2.894  14.018  18.487  0.00  0.00    +0.000 A 
ATOM     24  C   UNL     1       3.074  15.192  17.760  0.00  0.00    +0.000 A 
ATOM     25  C   UNL     1       2.207  16.251  17.964  0.00  0.00    +0.000 A 
ATOM     26  F   UNL     1       2.350  17.367  17.236  0.00  0.00    +0.000 F 
ATOM     27  C   UNL     1       1.177  16.163  18.894  0.00  0.00    +0.000 A 
ATOM     28  C   UNL     1       1.000  15.003  19.687  0.00  0.00    +0.000 A 
BRANCH  28  29
ATOM     29  C   UNL     1      -0.112  14.969  20.657  0.00  0.00    +0.000 A 
ATOM     30  N   UNL     1       0.190  15.189  21.956  0.00  0.00    +0.000 NA
ATOM     31  C   UNL     1      -0.848  15.251  22.813  0.00  0.00    +0.000 A 
ATOM     32  C   UNL     1      -2.158  15.105  22.429  0.00  0.00    +0.000 A 
ATOM     33  C   UNL     1      -2.353  14.827  21.099  0.00  0.00    +0.000 A 
ATOM     34  N   UNL     1      -1.352  14.709  20.206  0.00  0.00    +0.000 NA
ENDBRANCH  28  29
ENDBRANCH   2  22
TORSDOF 4
ENDMDL
MODEL 6
REMARK VINA RESULT:      -7.1      9.650     11.806
REMARK  Name = 
REMARK  4 active torsions:
REMARK  status: ('A' for Active; 'I' for Inactive)
REMARK    1  A    between atoms: C_2  and  C_3
REMARK    2  A    between atoms: C_9  and  C_10
REMARK    3  A    between atoms: C_22  and  N_23
REMARK    4  A    between atoms: C_27  and  C_28
REMARK                            x       y       z     vdW  Elec       q    Type
REMARK                         _______ _______ _______ _____ _____    ______ ____
ROOT
ATOM      1  O   UNL     1      11.035  14.636  21.159  0.00  0.00    +0.000 OA
ATOM      2  C   UNL     1       9.946  14.068  21.106  0.00  0.00    +0.000 C 
ATOM      3  N   UNL     1       8.869  14.446  21.895  0.00  0.00    +0.000 N 
ATOM      4  C   UNL     1       8.984  15.537  22.851  0.00  0.00    +0.000 C 
ATOM      5  C   UNL     1       8.553  16.746  21.991  0.00  0.00    +0.000 C 
ATOM      6  C   UNL     1       7.514  16.113  21.035  0.00  0.00    +0.000 C 
ATOM      7  C   UNL     1       7.483  14.643  21.507  0.00  0.00    +0.000 C 
ATOM      8  C   UNL     1       6.767  14.597  22.864  0.00  0.00    +0.000 C 
ATOM      9  C   UNL     1       7.816  15.216  23.827  0.00  0.00    +0.000 C 
ENDROOT
BRANCH   9  10
ATOM     10  N   UNL     1       8.226  14.266  24.863  0.00  0.00    +0.000 N 
ATOM     11  C   UNL     1       7.274  13.449  25.449  0.00  0.00    +0.000 A 
ATOM     12  C   UNL     1       5.953  13.831  25.687  0.00  0.00    +0.000 A 
ATOM     13  N   UNL     1       5.002  13.011  26.206  0.00  0.00    +0.000 NA
ATOM     14  C   UNL     1       5.420  11.759  26.531  0.00  0.00    +0.000 A 
ATOM     15  C   UNL     1       6.747  11.391  26.352  0.00  0.00    +0.000 A 
ATOM     16  N   UNL     1       7.680  12.214  25.805  0.00  0.00    +0.000 NA
ATOM     17  H   UNL     1       9.044  13.700  24.626  0.00  0.00    +0.000 HD
BRANCH  14  18
ATOM     18  C   UNL     1       4.447  10.732  27.064  0.00  0.00    +0.000 C 
ATOM     19  F   UNL     1       3.905   9.924  26.109  0.00  0.00    +0.000 F 
ATOM     20  F   UNL     1       5.026   9.888  27.970  0.00  0.00    +0.000 F 
ATOM     21  F   UNL     1       3.390  11.294  27.719  0.00  0.00    +0.000 F 
ENDBRANCH  14  18
ENDBRANCH   9  10
BRANCH   2  22
ATOM     22  C   UNL     1       9.797  12.902  20.185  0.00  0.00    +0.000 A 
ATOM     23  C   UNL     1       9.519  11.641  20.748  0.00  0.00    +0.000 A 
ATOM     24  C   UNL     1       9.313  10.526  19.940  0.00  0.00    +0.000 A 
ATOM     25  C   UNL     1       9.310  10.681  18.564  0.00  0.00    +0.000 A 
ATOM     26  F   UNL     1       9.071   9.618  17.784  0.00  0.00    +0.000 F 
ATOM     27  C   UNL     1       9.527  11.926  17.985  0.00  0.00    +0.000 A 
ATOM     28  C   UNL     1       9.790  13.070  18.777  0.00  0.00    +0.000 A 
BRANCH  28  29
ATOM     29  C   UNL     1      10.011  14.364  18.103  0.00  0.00    +0.000 A 
ATOM     30  N   UNL     1       8.966  15.219  18.043  0.00  0.00    +0.000 NA
ATOM     31  C   UNL     1       9.211  16.433  17.511  0.00  0.00    +0.000 A 
ATOM     32  C   UNL     1      10.443  16.821  17.044  0.00  0.00    +0.000 A 
ATOM     33  C   UNL     1      11.420  15.860  17.097  0.00  0.00    +0.000 A 
ATOM     34  N   UNL     1      11.222  14.617  17.575  0.00  0.00    +0.000 NA
ENDBRANCH  28  29
ENDBRANCH   2  22
TORSDOF 4
ENDMDL
MODEL 7
REMARK VINA RESULT:      -7.1      2.721      4.037
REMARK  Name = 
REMARK  4 active torsions:
REMARK  status: ('A' for Active; 'I' for Inactive)
REMARK    1  A    between atoms: C_2  and  C_3
REMARK    2  A    between atoms: C_9  and  C_10
REMARK    3  A    between atoms: C_22  and  N_23
REMARK    4  A    between atoms: C_27  and  C_28
REMARK                            x       y       z     vdW  Elec       q    Type
REMARK                         _______ _______ _______ _____ _____    ______ ____
ROOT
ATOM      1  O   UNL     1       0.947  14.190  22.152  0.00  0.00    +0.000 OA
ATOM      2  C   UNL     1       0.129  14.042  21.247  0.00  0.00    +0.000 C 
ATOM      3  N   UNL     1      -0.345  12.794  20.868  0.00  0.00    +0.000 N 
ATOM      4  C   UNL     1       0.126  11.581  21.519  0.00  0.00    +0.000 C 
ATOM      5  C   UNL     1      -0.900  11.429  22.664  0.00  0.00    +0.000 C 
ATOM      6  C   UNL     1      -2.187  12.009  22.028  0.00  0.00    +0.000 C 
ATOM      7  C   UNL     1      -1.713  12.382  20.607  0.00  0.00    +0.000 C 
ATOM      8  C   UNL     1      -1.504  11.080  19.821  0.00  0.00    +0.000 C 
ATOM      9  C   UNL     1      -0.205  10.505  20.446  0.00  0.00    +0.000 C 
ENDROOT
BRANCH   9  10
ATOM     10  N   UNL     1       0.865  10.387  19.454  0.00  0.00    +0.000 N 
ATOM     11  C   UNL     1       1.461   9.155  19.242  0.00  0.00    +0.000 A 
ATOM     12  C   UNL     1       1.666   8.201  20.241  0.00  0.00    +0.000 A 
ATOM     13  N   UNL     1       2.194   6.969  20.023  0.00  0.00    +0.000 NA
ATOM     14  C   UNL     1       2.564   6.706  18.741  0.00  0.00    +0.000 A 
ATOM     15  C   UNL     1       2.417   7.672  17.754  0.00  0.00    +0.000 A 
ATOM     16  N   UNL     1       1.861   8.890  17.982  0.00  0.00    +0.000 NA
ATOM     17  H   UNL     1       0.659  10.814  18.548  0.00  0.00    +0.000 HD
BRANCH  14  18
ATOM     18  C   UNL     1       3.112   5.350  18.356  0.00  0.00    +0.000 C 
ATOM     19  F   UNL     1       3.631   5.292  17.098  0.00  0.00    +0.000 F 
ATOM     20  F   UNL     1       4.118   4.943  19.186  0.00  0.00    +0.000 F 
ATOM     21  F   UNL     1       2.172   4.363  18.417  0.00  0.00    +0.000 F 
ENDBRANCH  14  18
ENDBRANCH   9  10
BRANCH   2  22
ATOM     22  C   UNL     1      -0.338  15.251  20.505  0.00  0.00    +0.000 A 
ATOM     23  C   UNL     1       0.202  15.498  19.228  0.00  0.00    +0.000 A 
ATOM     24  C   UNL     1      -0.233  16.577  18.463  0.00  0.00    +0.000 A 
ATOM     25  C   UNL     1      -1.263  17.370  18.940  0.00  0.00    +0.000 A 
ATOM     26  F   UNL     1      -1.713  18.384  18.188  0.00  0.00    +0.000 F 
ATOM     27  C   UNL     1      -1.851  17.113  20.173  0.00  0.00    +0.000 A 
ATOM     28  C   UNL     1      -1.397  16.055  20.998  0.00  0.00    +0.000 A 
BRANCH  28  29
ATOM     29  C   UNL     1      -2.063  15.833  22.296  0.00  0.00    +0.000 A 
ATOM     30  N   UNL     1      -3.306  15.304  22.274  0.00  0.00    +0.000 NA
ATOM     31  C   UNL     1      -3.860  15.017  23.468  0.00  0.00    +0.000 A 
ATOM     32  C   UNL     1      -3.228  15.234  24.668  0.00  0.00    +0.000 A 
ATOM     33  C   UNL     1      -1.994  15.828  24.583  0.00  0.00    +0.000 A 
ATOM     34  N   UNL     1      -1.411  16.177  23.421  0.00  0.00    +0.000 NA
ENDBRANCH  28  29
ENDBRANCH   2  22
TORSDOF 4
ENDMDL
MODEL 8
REMARK VINA RESULT:      -7.0      3.123      4.104
REMARK  Name = 
REMARK  4 active torsions:
REMARK  status: ('A' for Active; 'I' for Inactive)
REMARK    1  A    between atoms: C_2  and  C_3
REMARK    2  A    between atoms: C_9  and  C_10
REMARK    3  A    between atoms: C_22  and  N_23
REMARK    4  A    between atoms: C_27  and  C_28
REMARK                            x       y       z     vdW  Elec       q    Type
REMARK                         _______ _______ _______ _____ _____    ______ ____
ROOT
ATOM      1  O   UNL     1       1.817  13.493  21.627  0.00  0.00    +0.000 OA
ATOM      2  C   UNL     1       1.293  13.550  20.517  0.00  0.00    +0.000 C 
ATOM      3  N   UNL     1       0.656  12.461  19.939  0.00  0.00    +0.000 N 
ATOM      4  C   UNL     1       0.593  11.177  20.619  0.00  0.00    +0.000 C 
ATOM      5  C   UNL     1      -0.730  11.310  21.407  0.00  0.00    +0.000 C 
ATOM      6  C   UNL     1      -1.582  12.195  20.465  0.00  0.00    +0.000 C 
ATOM      7  C   UNL     1      -0.632  12.414  19.268  0.00  0.00    +0.000 C 
ATOM      8  C   UNL     1      -0.535  11.091  18.494  0.00  0.00    +0.000 C 
ATOM      9  C   UNL     1       0.335  10.209  19.429  0.00  0.00    +0.000 C 
ENDROOT
BRANCH   9  10
ATOM     10  N   UNL     1       1.585   9.805  18.783  0.00  0.00    +0.000 N 
ATOM     11  C   UNL     1       2.013   8.493  18.895  0.00  0.00    +0.000 A 
ATOM     12  C   UNL     1       1.812   7.697  20.024  0.00  0.00    +0.000 A 
ATOM     13  N   UNL     1       2.178   6.391  20.113  0.00  0.00    +0.000 NA
ATOM     14  C   UNL     1       2.807   5.881  19.021  0.00  0.00    +0.000 A 
ATOM     15  C   UNL     1       3.062   6.684  17.916  0.00  0.00    +0.000 A 
ATOM     16  N   UNL     1       2.665   7.981  17.832  0.00  0.00    +0.000 NA
ATOM     17  H   UNL     1       1.678  10.100  17.808  0.00  0.00    +0.000 HD
BRANCH  14  18
ATOM     18  C   UNL     1       3.212   4.426  18.971  0.00  0.00    +0.000 C 
ATOM     19  F   UNL     1       4.302   4.121  19.730  0.00  0.00    +0.000 F 
ATOM     20  F   UNL     1       2.219   3.595  19.408  0.00  0.00    +0.000 F 
ATOM     21  F   UNL     1       3.508   4.002  17.708  0.00  0.00    +0.000 F 
ENDBRANCH  14  18
ENDBRANCH   9  10
BRANCH   2  22
ATOM     22  C   UNL     1       1.385  14.828  19.752  0.00  0.00    +0.000 A 
ATOM     23  C   UNL     1       2.346  14.922  18.726  0.00  0.00    +0.000 A 
ATOM     24  C   UNL     1       2.444  16.066  17.939  0.00  0.00    +0.000 A 
ATOM     25  C   UNL     1       1.533  17.092  18.124  0.00  0.00    +0.000 A 
ATOM     26  F   UNL     1       1.598  18.177  17.341  0.00  0.00    +0.000 F 
ATOM     27  C   UNL     1       0.540  17.000  19.093  0.00  0.00    +0.000 A 
ATOM     28  C   UNL     1       0.445  15.872  19.944  0.00  0.00    +0.000 A 
BRANCH  28  29
ATOM     29  C   UNL     1      -0.632  15.833  20.952  0.00  0.00    +0.000 A 
ATOM     30  N   UNL     1      -1.895  15.657  20.504  0.00  0.00    +0.000 NA
ATOM     31  C   UNL     1      -2.853  15.526  21.442  0.00  0.00    +0.000 A 
ATOM     32  C   UNL     1      -2.603  15.562  22.792  0.00  0.00    +0.000 A 
ATOM     33  C   UNL     1      -1.298  15.804  23.141  0.00  0.00    +0.000 A 
ATOM     34  N   UNL     1      -0.307  15.988  22.247  0.00  0.00    +0.000 NA
ENDBRANCH  28  29
ENDBRANCH   2  22
TORSDOF 4
ENDMDL
MODEL 9
REMARK VINA RESULT:      -6.9      3.231      4.337
REMARK  Name = 
REMARK  4 active torsions:
REMARK  status: ('A' for Active; 'I' for Inactive)
REMARK    1  A    between atoms: C_2  and  C_3
REMARK    2  A    between atoms: C_9  and  C_10
REMARK    3  A    between atoms: C_22  and  N_23
REMARK    4  A    between atoms: C_27  and  C_28
REMARK                            x       y       z     vdW  Elec       q    Type
REMARK                         _______ _______ _______ _____ _____    ______ ____
ROOT
ATOM      1  O   UNL     1       1.620  13.675  21.662  0.00  0.00    +0.000 OA
ATOM      2  C   UNL     1       1.178  13.694  20.515  0.00  0.00    +0.000 C 
ATOM      3  N   UNL     1       0.502  12.616  19.961  0.00  0.00    +0.000 N 
ATOM      4  C   UNL     1       0.297  11.388  20.713  0.00  0.00    +0.000 C 
ATOM      5  C   UNL     1      -1.063  11.667  21.393  0.00  0.00    +0.000 C 
ATOM      6  C   UNL     1      -1.780  12.544  20.338  0.00  0.00    +0.000 C 
ATOM      7  C   UNL     1      -0.737  12.615  19.202  0.00  0.00    +0.000 C 
ATOM      8  C   UNL     1      -0.686  11.239  18.521  0.00  0.00    +0.000 C 
ATOM      9  C   UNL     1       0.049  10.363  19.570  0.00  0.00    +0.000 C 
ENDROOT
BRANCH   9  10
ATOM     10  N   UNL     1       1.306   9.830  19.043  0.00  0.00    +0.000 N 
ATOM     11  C   UNL     1       1.676   8.532  19.355  0.00  0.00    +0.000 A 
ATOM     12  C   UNL     1       1.399   7.910  20.574  0.00  0.00    +0.000 A 
ATOM     13  N   UNL     1       1.709   6.619  20.860  0.00  0.00    +0.000 NA
ATOM     14  C   UNL     1       2.359   5.939  19.878  0.00  0.00    +0.000 A 
ATOM     15  C   UNL     1       2.690   6.569  18.686  0.00  0.00    +0.000 A 
ATOM     16  N   UNL     1       2.349   7.854  18.404  0.00  0.00    +0.000 NA
ATOM     17  H   UNL     1       1.450   9.981  18.042  0.00  0.00    +0.000 HD
BRANCH  14  18
ATOM     18  C   UNL     1       2.708   4.478  20.049  0.00  0.00    +0.000 C 
ATOM     19  F   UNL     1       4.007   4.175  19.770  0.00  0.00    +0.000 F 
ATOM     20  F   UNL     1       2.498   4.041  21.327  0.00  0.00    +0.000 F 
ATOM     21  F   UNL     1       1.956   3.658  19.259  0.00  0.00    +0.000 F 
ENDBRANCH  14  18
ENDBRANCH   9  10
BRANCH   2  22
ATOM     22  C   UNL     1       1.418  14.908  19.681  0.00  0.00    +0.000 A 
ATOM     23  C   UNL     1       2.412  14.846  18.686  0.00  0.00    +0.000 A 
ATOM     24  C   UNL     1       2.645  15.926  17.838  0.00  0.00    +0.000 A 
ATOM     25  C   UNL     1       1.835  17.044  17.931  0.00  0.00    +0.000 A 
ATOM     26  F   UNL     1       2.028  18.068  17.089  0.00  0.00    +0.000 F 
ATOM     27  C   UNL     1       0.809  17.107  18.867  0.00  0.00    +0.000 A 
ATOM     28  C   UNL     1       0.579  16.048  19.778  0.00  0.00    +0.000 A 
BRANCH  28  29
ATOM     29  C   UNL     1      -0.526  16.174  20.749  0.00  0.00    +0.000 A 
ATOM     30  N   UNL     1      -0.202  16.497  22.020  0.00  0.00    +0.000 NA
ATOM     31  C   UNL     1      -1.228  16.702  22.869  0.00  0.00    +0.000 A 
ATOM     32  C   UNL     1      -2.547  16.601  22.503  0.00  0.00    +0.000 A 
ATOM     33  C   UNL     1      -2.768  16.211  21.206  0.00  0.00    +0.000 A 
ATOM     34  N   UNL     1      -1.783  15.948  20.326  0.00  0.00    +0.000 NA
ENDBRANCH  28  29
ENDBRANCH   2  22
TORSDOF 4
ENDMDL
