MODEL 1
REMARK VINA RESULT:      -8.0      0.000      0.000
REMARK  Name = 
REMARK  9 active torsions:
REMARK  status: ('A' for Active; 'I' for Inactive)
REMARK    1  A    between atoms: C_2  and  C_3
REMARK    2  A    between atoms: C_3  and  C_4
REMARK    3  A    between atoms: C_4  and  C_5
REMARK    4  A    between atoms: C_5  and  N_6
REMARK    5  A    between atoms: N_8  and  C_9
REMARK    6  A    between atoms: C_12  and  C_13
REMARK    7  A    between atoms: C_13  and  N_14
REMARK    8  A    between atoms: N_14  and  C_15
REMARK    9  A    between atoms: C_15  and  C_16
REMARK                            x       y       z     vdW  Elec       q    Type
REMARK                         _______ _______ _______ _____ _____    ______ ____
ROOT
ATOM      1  N   UNL     1       5.533   6.027  17.865  0.00  0.00    +0.000 N 
ATOM      2  C   UNL     1       4.904   6.382  19.116  0.00  0.00    +0.000 C 
ATOM      3  N   UNL     1       3.547   5.848  19.182  0.00  0.00    +0.000 N 
ATOM      4  C   UNL     1       3.418   4.507  18.757  0.00  0.00    +0.000 A 
ATOM      5  C   UNL     1       4.433   3.897  17.982  0.00  0.00    +0.000 A 
ATOM      6  C   UNL     1       4.311   2.594  17.506  0.00  0.00    +0.000 A 
ATOM      7  N   UNL     1       3.240   1.800  17.694  0.00  0.00    +0.000 NA
ATOM      8  C   UNL     1       2.294   2.385  18.448  0.00  0.00    +0.000 A 
ATOM      9  N   UNL     1       1.099   1.789  18.739  0.00  0.00    +0.000 N 
ATOM     10  C   UNL     1       0.397   2.568  19.616  0.00  0.00    +0.000 A 
ATOM     11  C   UNL     1       1.139   3.709  19.845  0.00  0.00    +0.000 A 
ATOM     12  C   UNL     1       2.318   3.649  19.036  0.00  0.00    +0.000 A 
ATOM     13  C   UNL     1       5.570   4.701  17.500  0.00  0.00    +0.000 C 
ATOM     14  O   UNL     1       6.410   4.219  16.750  0.00  0.00    +0.000 OA
ATOM     15  H   UNL     1       0.817   0.896  18.358  0.00  0.00    +0.000 HD
ENDROOT
BRANCH   3  16
ATOM     16  C   UNL     1       2.411   6.788  18.979  0.00  0.00    +0.000 C 
ATOM     17  C   UNL     1       2.025   7.458  20.316  0.00  0.00    +0.000 C 
ATOM     18  C   UNL     1       1.060   8.639  20.158  0.00  0.00    +0.000 C 
ATOM     19  C   UNL     1       1.597   9.672  19.153  0.00  0.00    +0.000 C 
ATOM     20  C   UNL     1       1.779   8.987  17.792  0.00  0.00    +0.000 C 
ATOM     21  C   UNL     1       2.748   7.814  17.881  0.00  0.00    +0.000 C 
BRANCH  19  22
ATOM     22  C   UNL     1       0.693  10.914  19.005  0.00  0.00    +0.000 C 
BRANCH  22  23
ATOM     23  N   UNL     1      -0.251  10.742  17.903  0.00  0.00    +0.000 NA
ATOM     24  H   UNL     1      -0.559   9.769  17.846  0.00  0.00    +0.000 HD
BRANCH  23  25
ATOM     25  C   UNL     1      -1.438  11.620  18.031  0.00  0.00    +0.000 C 
BRANCH  25  26
ATOM     26  C   UNL     1      -2.805  10.947  17.757  0.00  0.00    +0.000 C 
ATOM     27  F   UNL     1      -3.300  11.270  16.539  0.00  0.00    +0.000 F 
ATOM     28  F   UNL     1      -2.691   9.598  17.795  0.00  0.00    +0.000 F 
ATOM     29  F   UNL     1      -3.724  11.304  18.681  0.00  0.00    +0.000 F 
ENDBRANCH  25  26
ENDBRANCH  23  25
ENDBRANCH  22  23
ENDBRANCH  19  22
ENDBRANCH   3  16
BRANCH   1  30
ATOM     30  C   UNL     1       6.298   7.008  17.110  0.00  0.00    +0.000 C 
BRANCH  30  31
ATOM     31  C   UNL     1       7.582   7.463  17.799  0.00  0.00    +0.000 C 
BRANCH  31  32
ATOM     32  C   UNL     1       7.893   8.935  17.523  0.00  0.00    +0.000 C 
BRANCH  32  34
ATOM     33  N   UNL     1       9.332   9.990  19.458  0.00  0.00    +0.000 NA
ATOM     34  C   UNL     1       8.703   9.543  18.593  0.00  0.00    +0.000 C 
ENDBRANCH  32  34
ENDBRANCH  31  32
ENDBRANCH  30  31
ENDBRANCH   1  30
TORSDOF 9
ENDMDL
MODEL 2
REMARK VINA RESULT:      -7.7      1.942      2.175
REMARK  Name = 
REMARK  9 active torsions:
REMARK  status: ('A' for Active; 'I' for Inactive)
REMARK    1  A    between atoms: C_2  and  C_3
REMARK    2  A    between atoms: C_3  and  C_4
REMARK    3  A    between atoms: C_4  and  C_5
REMARK    4  A    between atoms: C_5  and  N_6
REMARK    5  A    between atoms: N_8  and  C_9
REMARK    6  A    between atoms: C_12  and  C_13
REMARK    7  A    between atoms: C_13  and  N_14
REMARK    8  A    between atoms: N_14  and  C_15
REMARK    9  A    between atoms: C_15  and  C_16
REMARK                            x       y       z     vdW  Elec       q    Type
REMARK                         _______ _______ _______ _____ _____    ______ ____
ROOT
ATOM      1  N   UNL     1       5.602   6.010  17.866  0.00  0.00    +0.000 N 
ATOM      2  C   UNL     1       4.973   6.367  19.116  0.00  0.00    +0.000 C 
ATOM      3  N   UNL     1       3.613   5.837  19.181  0.00  0.00    +0.000 N 
ATOM      4  C   UNL     1       3.480   4.497  18.755  0.00  0.00    +0.000 A 
ATOM      5  C   UNL     1       4.494   3.884  17.981  0.00  0.00    +0.000 A 
ATOM      6  C   UNL     1       4.369   2.581  17.504  0.00  0.00    +0.000 A 
ATOM      7  N   UNL     1       3.295   1.791  17.691  0.00  0.00    +0.000 NA
ATOM      8  C   UNL     1       2.350   2.379  18.444  0.00  0.00    +0.000 A 
ATOM      9  N   UNL     1       1.153   1.787  18.732  0.00  0.00    +0.000 N 
ATOM     10  C   UNL     1       0.452   2.568  19.609  0.00  0.00    +0.000 A 
ATOM     11  C   UNL     1       1.198   3.706  19.839  0.00  0.00    +0.000 A 
ATOM     12  C   UNL     1       2.377   3.642  19.032  0.00  0.00    +0.000 A 
ATOM     13  C   UNL     1       5.635   4.684  17.501  0.00  0.00    +0.000 C 
ATOM     14  O   UNL     1       6.475   4.200  16.751  0.00  0.00    +0.000 OA
ATOM     15  H   UNL     1       0.869   0.894  18.351  0.00  0.00    +0.000 HD
ENDROOT
BRANCH   3  16
ATOM     16  C   UNL     1       2.481   6.781  18.976  0.00  0.00    +0.000 C 
ATOM     17  C   UNL     1       2.029   7.376  20.329  0.00  0.00    +0.000 C 
ATOM     18  C   UNL     1       1.062   8.558  20.190  0.00  0.00    +0.000 C 
ATOM     19  C   UNL     1       1.638   9.647  19.269  0.00  0.00    +0.000 C 
ATOM     20  C   UNL     1       1.886   9.039  17.883  0.00  0.00    +0.000 C 
ATOM     21  C   UNL     1       2.860   7.867  17.952  0.00  0.00    +0.000 C 
BRANCH  19  22
ATOM     22  C   UNL     1       0.732  10.890  19.147  0.00  0.00    +0.000 C 
BRANCH  22  23
ATOM     23  N   UNL     1       0.560  11.539  20.445  0.00  0.00    +0.000 NA
ATOM     24  H   UNL     1       0.782  12.535  20.377  0.00  0.00    +0.000 HD
BRANCH  23  25
ATOM     25  C   UNL     1      -0.813  11.384  20.979  0.00  0.00    +0.000 C 
BRANCH  25  26
ATOM     26  C   UNL     1      -0.951  11.482  22.518  0.00  0.00    +0.000 C 
ATOM     27  F   UNL     1      -2.236  11.364  22.926  0.00  0.00    +0.000 F 
ATOM     28  F   UNL     1      -0.249  10.496  23.126  0.00  0.00    +0.000 F 
ATOM     29  F   UNL     1      -0.480  12.661  22.981  0.00  0.00    +0.000 F 
ENDBRANCH  25  26
ENDBRANCH  23  25
ENDBRANCH  22  23
ENDBRANCH  19  22
ENDBRANCH   3  16
BRANCH   1  30
ATOM     30  C   UNL     1       6.371   6.989  17.113  0.00  0.00    +0.000 C 
BRANCH  30  31
ATOM     31  C   UNL     1       7.623   7.485  17.830  0.00  0.00    +0.000 C 
BRANCH  31  32
ATOM     32  C   UNL     1       7.858   8.981  17.611  0.00  0.00    +0.000 C 
BRANCH  32  34
ATOM     33  N   UNL     1       9.418   9.999  19.471  0.00  0.00    +0.000 NA
ATOM     34  C   UNL     1       8.718   9.568  18.654  0.00  0.00    +0.000 C 
ENDBRANCH  32  34
ENDBRANCH  31  32
ENDBRANCH  30  31
ENDBRANCH   1  30
TORSDOF 9
ENDMDL
MODEL 3
REMARK VINA RESULT:      -7.7      2.386      2.615
REMARK  Name = 
REMARK  9 active torsions:
REMARK  status: ('A' for Active; 'I' for Inactive)
REMARK    1  A    between atoms: C_2  and  C_3
REMARK    2  A    between atoms: C_3  and  C_4
REMARK    3  A    between atoms: C_4  and  C_5
REMARK    4  A    between atoms: C_5  and  N_6
REMARK    5  A    between atoms: N_8  and  C_9
REMARK    6  A    between atoms: C_12  and  C_13
REMARK    7  A    between atoms: C_13  and  N_14
REMARK    8  A    between atoms: N_14  and  C_15
REMARK    9  A    between atoms: C_15  and  C_16
REMARK                            x       y       z     vdW  Elec       q    Type
REMARK                         _______ _______ _______ _____ _____    ______ ____
ROOT
ATOM      1  N   UNL     1       5.582   5.991  17.842  0.00  0.00    +0.000 N 
ATOM      2  C   UNL     1       4.960   6.360  19.093  0.00  0.00    +0.000 C 
ATOM      3  N   UNL     1       3.593   5.849  19.161  0.00  0.00    +0.000 N 
ATOM      4  C   UNL     1       3.441   4.510  18.739  0.00  0.00    +0.000 A 
ATOM      5  C   UNL     1       4.445   3.880  17.965  0.00  0.00    +0.000 A 
ATOM      6  C   UNL     1       4.301   2.578  17.492  0.00  0.00    +0.000 A 
ATOM      7  N   UNL     1       3.216   1.804  17.682  0.00  0.00    +0.000 NA
ATOM      8  C   UNL     1       2.280   2.407  18.435  0.00  0.00    +0.000 A 
ATOM      9  N   UNL     1       1.076   1.832  18.728  0.00  0.00    +0.000 N 
ATOM     10  C   UNL     1       0.387   2.625  19.604  0.00  0.00    +0.000 A 
ATOM     11  C   UNL     1       1.150   3.754  19.830  0.00  0.00    +0.000 A 
ATOM     12  C   UNL     1       2.326   3.671  19.020  0.00  0.00    +0.000 A 
ATOM     13  C   UNL     1       5.596   4.663  17.481  0.00  0.00    +0.000 C 
ATOM     14  O   UNL     1       6.427   4.165  16.731  0.00  0.00    +0.000 OA
ATOM     15  H   UNL     1       0.778   0.943  18.349  0.00  0.00    +0.000 HD
ENDROOT
BRANCH   3  16
ATOM     16  C   UNL     1       2.474   6.808  18.956  0.00  0.00    +0.000 C 
ATOM     17  C   UNL     1       2.023   7.402  20.309  0.00  0.00    +0.000 C 
ATOM     18  C   UNL     1       1.073   8.597  20.172  0.00  0.00    +0.000 C 
ATOM     19  C   UNL     1       1.666   9.683  19.258  0.00  0.00    +0.000 C 
ATOM     20  C   UNL     1       1.913   9.078  17.870  0.00  0.00    +0.000 C 
ATOM     21  C   UNL     1       2.872   7.894  17.939  0.00  0.00    +0.000 C 
BRANCH  19  22
ATOM     22  C   UNL     1       0.777  10.939  19.138  0.00  0.00    +0.000 C 
BRANCH  22  23
ATOM     23  N   UNL     1       1.234  11.799  18.049  0.00  0.00    +0.000 NA
ATOM     24  H   UNL     1       0.634  11.685  17.229  0.00  0.00    +0.000 HD
BRANCH  23  25
ATOM     25  C   UNL     1       1.266  13.230  18.431  0.00  0.00    +0.000 C 
BRANCH  25  26
ATOM     26  C   UNL     1       2.647  13.780  18.864  0.00  0.00    +0.000 C 
ATOM     27  F   UNL     1       2.708  15.130  18.788  0.00  0.00    +0.000 F 
ATOM     28  F   UNL     1       2.917  13.442  20.148  0.00  0.00    +0.000 F 
ATOM     29  F   UNL     1       3.640  13.280  18.095  0.00  0.00    +0.000 F 
ENDBRANCH  25  26
ENDBRANCH  23  25
ENDBRANCH  22  23
ENDBRANCH  19  22
ENDBRANCH   3  16
BRANCH   1  30
ATOM     30  C   UNL     1       6.364   6.957  17.085  0.00  0.00    +0.000 C 
BRANCH  30  31
ATOM     31  C   UNL     1       7.608   7.459  17.810  0.00  0.00    +0.000 C 
BRANCH  31  32
ATOM     32  C   UNL     1       7.874   8.941  17.539  0.00  0.00    +0.000 C 
BRANCH  32  34
ATOM     33  N   UNL     1       9.335  10.034  19.437  0.00  0.00    +0.000 NA
ATOM     34  C   UNL     1       8.708   9.558  18.587  0.00  0.00    +0.000 C 
ENDBRANCH  32  34
ENDBRANCH  31  32
ENDBRANCH  30  31
ENDBRANCH   1  30
TORSDOF 9
ENDMDL
MODEL 4
REMARK VINA RESULT:      -7.5      1.639      1.877
REMARK  Name = 
REMARK  9 active torsions:
REMARK  status: ('A' for Active; 'I' for Inactive)
REMARK    1  A    between atoms: C_2  and  C_3
REMARK    2  A    between atoms: C_3  and  C_4
REMARK    3  A    between atoms: C_4  and  C_5
REMARK    4  A    between atoms: C_5  and  N_6
REMARK    5  A    between atoms: N_8  and  C_9
REMARK    6  A    between atoms: C_12  and  C_13
REMARK    7  A    between atoms: C_13  and  N_14
REMARK    8  A    between atoms: N_14  and  C_15
REMARK    9  A    between atoms: C_15  and  C_16
REMARK                            x       y       z     vdW  Elec       q    Type
REMARK                         _______ _______ _______ _____ _____    ______ ____
ROOT
ATOM      1  N   UNL     1       5.590   5.988  17.877  0.00  0.00    +0.000 N 
ATOM      2  C   UNL     1       4.947   6.360  19.115  0.00  0.00    +0.000 C 
ATOM      3  N   UNL     1       3.590   5.822  19.175  0.00  0.00    +0.000 N 
ATOM      4  C   UNL     1       3.470   4.475  18.770  0.00  0.00    +0.000 A 
ATOM      5  C   UNL     1       4.495   3.856  18.015  0.00  0.00    +0.000 A 
ATOM      6  C   UNL     1       4.383   2.546  17.557  0.00  0.00    +0.000 A 
ATOM      7  N   UNL     1       3.312   1.752  17.746  0.00  0.00    +0.000 NA
ATOM      8  C   UNL     1       2.356   2.345  18.481  0.00  0.00    +0.000 A 
ATOM      9  N   UNL     1       1.160   1.750  18.768  0.00  0.00    +0.000 N 
ATOM     10  C   UNL     1       0.446   2.540  19.626  0.00  0.00    +0.000 A 
ATOM     11  C   UNL     1       1.182   3.687  19.845  0.00  0.00    +0.000 A 
ATOM     12  C   UNL     1       2.370   3.617  19.049  0.00  0.00    +0.000 A 
ATOM     13  C   UNL     1       5.635   4.657  17.533  0.00  0.00    +0.000 C 
ATOM     14  O   UNL     1       6.485   4.166  16.799  0.00  0.00    +0.000 OA
ATOM     15  H   UNL     1       0.885   0.850  18.398  0.00  0.00    +0.000 HD
ENDROOT
BRANCH   3  16
ATOM     16  C   UNL     1       2.454   6.755  18.946  0.00  0.00    +0.000 C 
ATOM     17  C   UNL     1       2.064   7.460  20.265  0.00  0.00    +0.000 C 
ATOM     18  C   UNL     1       1.098   8.634  20.074  0.00  0.00    +0.000 C 
ATOM     19  C   UNL     1       1.637   9.642  19.045  0.00  0.00    +0.000 C 
ATOM     20  C   UNL     1       1.822   8.924  17.702  0.00  0.00    +0.000 C 
ATOM     21  C   UNL     1       2.793   7.754  17.823  0.00  0.00    +0.000 C 
BRANCH  19  22
ATOM     22  C   UNL     1       0.732  10.879  18.863  0.00  0.00    +0.000 C 
BRANCH  22  23
ATOM     23  N   UNL     1       1.516  12.044  18.459  0.00  0.00    +0.000 NA
ATOM     24  H   UNL     1       1.340  12.269  17.477  0.00  0.00    +0.000 HD
BRANCH  23  25
ATOM     25  C   UNL     1       1.228  13.237  19.289  0.00  0.00    +0.000 C 
BRANCH  25  26
ATOM     26  C   UNL     1       0.034  14.107  18.826  0.00  0.00    +0.000 C 
ATOM     27  F   UNL     1      -0.647  13.539  17.803  0.00  0.00    +0.000 F 
ATOM     28  F   UNL     1      -0.847  14.289  19.837  0.00  0.00    +0.000 F 
ATOM     29  F   UNL     1       0.444  15.329  18.418  0.00  0.00    +0.000 F 
ENDBRANCH  25  26
ENDBRANCH  23  25
ENDBRANCH  22  23
ENDBRANCH  19  22
ENDBRANCH   3  16
BRANCH   1  30
ATOM     30  C   UNL     1       6.361   6.960  17.116  0.00  0.00    +0.000 C 
BRANCH  30  31
ATOM     31  C   UNL     1       7.620   7.450  17.823  0.00  0.00    +0.000 C 
BRANCH  31  32
ATOM     32  C   UNL     1       7.889   8.933  17.559  0.00  0.00    +0.000 C 
BRANCH  32  34
ATOM     33  N   UNL     1       9.361   9.995  19.465  0.00  0.00    +0.000 NA
ATOM     34  C   UNL     1       8.715   9.546  18.614  0.00  0.00    +0.000 C 
ENDBRANCH  32  34
ENDBRANCH  31  32
ENDBRANCH  30  31
ENDBRANCH   1  30
TORSDOF 9
ENDMDL
MODEL 5
REMARK VINA RESULT:      -7.4      1.920      4.936
REMARK  Name = 
REMARK  9 active torsions:
REMARK  status: ('A' for Active; 'I' for Inactive)
REMARK    1  A    between atoms: C_2  and  C_3
REMARK    2  A    between atoms: C_3  and  C_4
REMARK    3  A    between atoms: C_4  and  C_5
REMARK    4  A    between atoms: C_5  and  N_6
REMARK    5  A    between atoms: N_8  and  C_9
REMARK    6  A    between atoms: C_12  and  C_13
REMARK    7  A    between atoms: C_13  and  N_14
REMARK    8  A    between atoms: N_14  and  C_15
REMARK    9  A    between atoms: C_15  and  C_16
REMARK                            x       y       z     vdW  Elec       q    Type
REMARK                         _______ _______ _______ _____ _____    ______ ____
ROOT
ATOM      1  N   UNL     1       1.994   3.795  18.199  0.00  0.00    +0.000 N 
ATOM      2  C   UNL     1       1.696   5.086  17.623  0.00  0.00    +0.000 C 
ATOM      3  N   UNL     1       2.828   5.996  17.783  0.00  0.00    +0.000 N 
ATOM      4  C   UNL     1       4.087   5.433  17.481  0.00  0.00    +0.000 A 
ATOM      5  C   UNL     1       4.251   4.029  17.416  0.00  0.00    +0.000 A 
ATOM      6  C   UNL     1       5.490   3.443  17.170  0.00  0.00    +0.000 A 
ATOM      7  N   UNL     1       6.643   4.119  17.002  0.00  0.00    +0.000 NA
ATOM      8  C   UNL     1       6.468   5.451  17.046  0.00  0.00    +0.000 A 
ATOM      9  N   UNL     1       7.500   6.340  16.941  0.00  0.00    +0.000 N 
ATOM     10  C   UNL     1       7.007   7.615  16.899  0.00  0.00    +0.000 A 
ATOM     11  C   UNL     1       5.635   7.534  17.035  0.00  0.00    +0.000 A 
ATOM     12  C   UNL     1       5.282   6.160  17.219  0.00  0.00    +0.000 A 
ATOM     13  C   UNL     1       3.136   3.143  17.797  0.00  0.00    +0.000 C 
ATOM     14  O   UNL     1       3.284   1.927  17.841  0.00  0.00    +0.000 OA
ATOM     15  H   UNL     1       8.470   6.061  16.885  0.00  0.00    +0.000 HD
ENDROOT
BRANCH   3  16
ATOM     16  C   UNL     1       2.735   7.055  18.826  0.00  0.00    +0.000 C 
ATOM     17  C   UNL     1       2.065   8.320  18.246  0.00  0.00    +0.000 C 
ATOM     18  C   UNL     1       1.677   9.354  19.309  0.00  0.00    +0.000 C 
ATOM     19  C   UNL     1       0.812   8.724  20.414  0.00  0.00    +0.000 C 
ATOM     20  C   UNL     1       1.609   7.596  21.081  0.00  0.00    +0.000 C 
ATOM     21  C   UNL     1       2.008   6.522  20.075  0.00  0.00    +0.000 C 
BRANCH  19  22
ATOM     22  C   UNL     1       0.338   9.738  21.477  0.00  0.00    +0.000 C 
BRANCH  22  23
ATOM     23  N   UNL     1       0.278  11.087  20.920  0.00  0.00    +0.000 NA
ATOM     24  H   UNL     1       0.851  11.150  20.076  0.00  0.00    +0.000 HD
BRANCH  23  25
ATOM     25  C   UNL     1      -1.106  11.507  20.600  0.00  0.00    +0.000 C 
BRANCH  25  26
ATOM     26  C   UNL     1      -1.529  11.358  19.118  0.00  0.00    +0.000 C 
ATOM     27  F   UNL     1      -0.592  11.836  18.267  0.00  0.00    +0.000 F 
ATOM     28  F   UNL     1      -1.722  10.055  18.804  0.00  0.00    +0.000 F 
ATOM     29  F   UNL     1      -2.684  12.012  18.867  0.00  0.00    +0.000 F 
ENDBRANCH  25  26
ENDBRANCH  23  25
ENDBRANCH  22  23
ENDBRANCH  19  22
ENDBRANCH   3  16
BRANCH   1  30
ATOM     30  C   UNL     1       1.010   3.100  19.016  0.00  0.00    +0.000 C 
BRANCH  30  31
ATOM     31  C   UNL     1       0.829   3.689  20.412  0.00  0.00    +0.000 C 
BRANCH  31  32
ATOM     32  C   UNL     1       1.358   2.756  21.504  0.00  0.00    +0.000 C 
BRANCH  32  34
ATOM     33  N   UNL     1       3.932   2.274  21.237  0.00  0.00    +0.000 NA
ATOM     34  C   UNL     1       2.795   2.469  21.342  0.00  0.00    +0.000 C 
ENDBRANCH  32  34
ENDBRANCH  31  32
ENDBRANCH  30  31
ENDBRANCH   1  30
TORSDOF 9
ENDMDL
MODEL 6
REMARK VINA RESULT:      -7.3      2.253      2.567
REMARK  Name = 
REMARK  9 active torsions:
REMARK  status: ('A' for Active; 'I' for Inactive)
REMARK    1  A    between atoms: C_2  and  C_3
REMARK    2  A    between atoms: C_3  and  C_4
REMARK    3  A    between atoms: C_4  and  C_5
REMARK    4  A    between atoms: C_5  and  N_6
REMARK    5  A    between atoms: N_8  and  C_9
REMARK    6  A    between atoms: C_12  and  C_13
REMARK    7  A    between atoms: C_13  and  N_14
REMARK    8  A    between atoms: N_14  and  C_15
REMARK    9  A    between atoms: C_15  and  C_16
REMARK                            x       y       z     vdW  Elec       q    Type
REMARK                         _______ _______ _______ _____ _____    ______ ____
ROOT
ATOM      1  N   UNL     1       5.169   6.074  17.669  0.00  0.00    +0.000 N 
ATOM      2  C   UNL     1       4.677   6.408  18.986  0.00  0.00    +0.000 C 
ATOM      3  N   UNL     1       3.326   5.886  19.180  0.00  0.00    +0.000 N 
ATOM      4  C   UNL     1       3.137   4.557  18.743  0.00  0.00    +0.000 A 
ATOM      5  C   UNL     1       4.060   3.953  17.854  0.00  0.00    +0.000 A 
ATOM      6  C   UNL     1       3.874   2.662  17.366  0.00  0.00    +0.000 A 
ATOM      7  N   UNL     1       2.817   1.876  17.647  0.00  0.00    +0.000 NA
ATOM      8  C   UNL     1       1.960   2.455  18.506  0.00  0.00    +0.000 A 
ATOM      9  N   UNL     1       0.795   1.864  18.905  0.00  0.00    +0.000 N 
ATOM     10  C   UNL     1       0.196   2.631  19.867  0.00  0.00    +0.000 A 
ATOM     11  C   UNL     1       0.972   3.759  20.042  0.00  0.00    +0.000 A 
ATOM     12  C   UNL     1       2.061   3.704  19.115  0.00  0.00    +0.000 A 
ATOM     13  C   UNL     1       5.152   4.756  17.275  0.00  0.00    +0.000 C 
ATOM     14  O   UNL     1       5.904   4.282  16.432  0.00  0.00    +0.000 OA
ATOM     15  H   UNL     1       0.464   0.983  18.537  0.00  0.00    +0.000 HD
ENDROOT
BRANCH   3  16
ATOM     16  C   UNL     1       2.188   6.842  19.114  0.00  0.00    +0.000 C 
ATOM     17  C   UNL     1       1.895   7.424  20.515  0.00  0.00    +0.000 C 
ATOM     18  C   UNL     1       0.931   8.616  20.499  0.00  0.00    +0.000 C 
ATOM     19  C   UNL     1       1.411   9.712  19.533  0.00  0.00    +0.000 C 
ATOM     20  C   UNL     1       1.498   9.119  18.120  0.00  0.00    +0.000 C 
ATOM     21  C   UNL     1       2.462   7.939  18.067  0.00  0.00    +0.000 C 
BRANCH  19  22
ATOM     22  C   UNL     1       0.510  10.964  19.527  0.00  0.00    +0.000 C 
BRANCH  22  23
ATOM     23  N   UNL     1       0.325  11.480  20.882  0.00  0.00    +0.000 NA
ATOM     24  H   UNL     1       0.727  12.416  20.965  0.00  0.00    +0.000 HD
BRANCH  23  25
ATOM     25  C   UNL     1      -1.101  11.528  21.280  0.00  0.00    +0.000 C 
BRANCH  25  26
ATOM     26  C   UNL     1      -1.371  11.653  22.800  0.00  0.00    +0.000 C 
ATOM     27  F   UNL     1      -0.858  12.792  23.320  0.00  0.00    +0.000 F 
ATOM     28  F   UNL     1      -2.702  11.666  23.051  0.00  0.00    +0.000 F 
ATOM     29  F   UNL     1      -0.839  10.614  23.482  0.00  0.00    +0.000 F 
ENDBRANCH  25  26
ENDBRANCH  23  25
ENDBRANCH  22  23
ENDBRANCH  19  22
ENDBRANCH   3  16
BRANCH   1  30
ATOM     30  C   UNL     1       5.866   7.063  16.861  0.00  0.00    +0.000 C 
BRANCH  30  31
ATOM     31  C   UNL     1       7.386   6.944  16.900  0.00  0.00    +0.000 C 
BRANCH  31  32
ATOM     32  C   UNL     1       7.957   7.303  18.273  0.00  0.00    +0.000 C 
BRANCH  32  34
ATOM     33  N   UNL     1       8.192   5.198  19.836  0.00  0.00    +0.000 NA
ATOM     34  C   UNL     1       8.109   6.121  19.140  0.00  0.00    +0.000 C 
ENDBRANCH  32  34
ENDBRANCH  31  32
ENDBRANCH  30  31
ENDBRANCH   1  30
TORSDOF 9
ENDMDL
MODEL 7
REMARK VINA RESULT:      -7.3      2.148      5.157
REMARK  Name = 
REMARK  9 active torsions:
REMARK  status: ('A' for Active; 'I' for Inactive)
REMARK    1  A    between atoms: C_2  and  C_3
REMARK    2  A    between atoms: C_3  and  C_4
REMARK    3  A    between atoms: C_4  and  C_5
REMARK    4  A    between atoms: C_5  and  N_6
REMARK    5  A    between atoms: N_8  and  C_9
REMARK    6  A    between atoms: C_12  and  C_13
REMARK    7  A    between atoms: C_13  and  N_14
REMARK    8  A    between atoms: N_14  and  C_15
REMARK    9  A    between atoms: C_15  and  C_16
REMARK                            x       y       z     vdW  Elec       q    Type
REMARK                         _______ _______ _______ _____ _____    ______ ____
ROOT
ATOM      1  N   UNL     1       2.315   4.140  18.279  0.00  0.00    +0.000 N 
ATOM      2  C   UNL     1       2.121   5.333  17.487  0.00  0.00    +0.000 C 
ATOM      3  N   UNL     1       3.195   6.293  17.729  0.00  0.00    +0.000 N 
ATOM      4  C   UNL     1       4.493   5.737  17.745  0.00  0.00    +0.000 A 
ATOM      5  C   UNL     1       4.677   4.342  17.904  0.00  0.00    +0.000 A 
ATOM      6  C   UNL     1       5.945   3.771  17.974  0.00  0.00    +0.000 A 
ATOM      7  N   UNL     1       7.103   4.456  17.931  0.00  0.00    +0.000 NA
ATOM      8  C   UNL     1       6.914   5.775  17.760  0.00  0.00    +0.000 A 
ATOM      9  N   UNL     1       7.940   6.676  17.728  0.00  0.00    +0.000 N 
ATOM     10  C   UNL     1       7.454   7.918  17.422  0.00  0.00    +0.000 A 
ATOM     11  C   UNL     1       6.082   7.810  17.312  0.00  0.00    +0.000 A 
ATOM     12  C   UNL     1       5.710   6.462  17.612  0.00  0.00    +0.000 A 
ATOM     13  C   UNL     1       3.517   3.478  18.188  0.00  0.00    +0.000 C 
ATOM     14  O   UNL     1       3.663   2.285  18.424  0.00  0.00    +0.000 OA
ATOM     15  H   UNL     1       8.906   6.425  17.892  0.00  0.00    +0.000 HD
ENDROOT
BRANCH   3  16
ATOM     16  C   UNL     1       2.901   7.477  18.582  0.00  0.00    +0.000 C 
ATOM     17  C   UNL     1       2.141   8.548  17.767  0.00  0.00    +0.000 C 
ATOM     18  C   UNL     1       1.554   9.674  18.626  0.00  0.00    +0.000 C 
ATOM     19  C   UNL     1       0.679   9.116  19.761  0.00  0.00    +0.000 C 
ATOM     20  C   UNL     1       1.542   8.208  20.647  0.00  0.00    +0.000 C 
ATOM     21  C   UNL     1       2.139   7.052  19.851  0.00  0.00    +0.000 C 
BRANCH  19  22
ATOM     22  C   UNL     1       0.010  10.211  20.617  0.00  0.00    +0.000 C 
BRANCH  22  23
ATOM     23  N   UNL     1       0.629  11.512  20.375  0.00  0.00    +0.000 NA
ATOM     24  H   UNL     1       1.326  11.442  19.630  0.00  0.00    +0.000 HD
BRANCH  23  25
ATOM     25  C   UNL     1      -0.362  12.553  20.015  0.00  0.00    +0.000 C 
BRANCH  25  26
ATOM     26  C   UNL     1      -0.228  13.147  18.592  0.00  0.00    +0.000 C 
ATOM     27  F   UNL     1      -1.073  12.564  17.711  0.00  0.00    +0.000 F 
ATOM     28  F   UNL     1      -0.510  14.472  18.596  0.00  0.00    +0.000 F 
ATOM     29  F   UNL     1       1.028  13.001  18.114  0.00  0.00    +0.000 F 
ENDBRANCH  25  26
ENDBRANCH  23  25
ENDBRANCH  22  23
ENDBRANCH  19  22
ENDBRANCH   3  16
BRANCH   1  30
ATOM     30  C   UNL     1       1.200   3.527  18.987  0.00  0.00    +0.000 C 
BRANCH  30  31
ATOM     31  C   UNL     1       1.011   4.035  20.413  0.00  0.00    +0.000 C 
BRANCH  31  32
ATOM     32  C   UNL     1       1.177   2.920  21.448  0.00  0.00    +0.000 C 
BRANCH  32  34
ATOM     33  N   UNL     1       3.670   2.101  21.663  0.00  0.00    +0.000 NA
ATOM     34  C   UNL     1       2.572   2.456  21.547  0.00  0.00    +0.000 C 
ENDBRANCH  32  34
ENDBRANCH  31  32
ENDBRANCH  30  31
ENDBRANCH   1  30
TORSDOF 9
ENDMDL
MODEL 8
REMARK VINA RESULT:      -7.2      1.028      1.301
REMARK  Name = 
REMARK  9 active torsions:
REMARK  status: ('A' for Active; 'I' for Inactive)
REMARK    1  A    between atoms: C_2  and  C_3
REMARK    2  A    between atoms: C_3  and  C_4
REMARK    3  A    between atoms: C_4  and  C_5
REMARK    4  A    between atoms: C_5  and  N_6
REMARK    5  A    between atoms: N_8  and  C_9
REMARK    6  A    between atoms: C_12  and  C_13
REMARK    7  A    between atoms: C_13  and  N_14
REMARK    8  A    between atoms: N_14  and  C_15
REMARK    9  A    between atoms: C_15  and  C_16
REMARK                            x       y       z     vdW  Elec       q    Type
REMARK                         _______ _______ _______ _____ _____    ______ ____
ROOT
ATOM      1  N   UNL     1       5.295   5.956  17.662  0.00  0.00    +0.000 N 
ATOM      2  C   UNL     1       4.756   6.375  18.935  0.00  0.00    +0.000 C 
ATOM      3  N   UNL     1       3.392   5.882  19.105  0.00  0.00    +0.000 N 
ATOM      4  C   UNL     1       3.200   4.532  18.740  0.00  0.00    +0.000 A 
ATOM      5  C   UNL     1       4.148   3.864  17.927  0.00  0.00    +0.000 A 
ATOM      6  C   UNL     1       3.962   2.549  17.509  0.00  0.00    +0.000 A 
ATOM      7  N   UNL     1       2.884   1.794  17.793  0.00  0.00    +0.000 NA
ATOM      8  C   UNL     1       2.003   2.434  18.581  0.00  0.00    +0.000 A 
ATOM      9  N   UNL     1       0.814   1.883  18.968  0.00  0.00    +0.000 N 
ATOM     10  C   UNL     1       0.189   2.713  19.857  0.00  0.00    +0.000 A 
ATOM     11  C   UNL     1       0.975   3.840  19.996  0.00  0.00    +0.000 A 
ATOM     12  C   UNL     1       2.098   3.716  19.118  0.00  0.00    +0.000 A 
ATOM     13  C   UNL     1       5.274   4.617  17.346  0.00  0.00    +0.000 C 
ATOM     14  O   UNL     1       6.052   4.084  16.563  0.00  0.00    +0.000 OA
ATOM     15  H   UNL     1       0.485   0.985  18.639  0.00  0.00    +0.000 HD
ENDROOT
BRANCH   3  16
ATOM     16  C   UNL     1       2.271   6.847  18.937  0.00  0.00    +0.000 C 
ATOM     17  C   UNL     1       1.910   7.490  20.295  0.00  0.00    +0.000 C 
ATOM     18  C   UNL     1       0.964   8.690  20.176  0.00  0.00    +0.000 C 
ATOM     19  C   UNL     1       1.510   9.739  19.193  0.00  0.00    +0.000 C 
ATOM     20  C   UNL     1       1.666   9.087  17.814  0.00  0.00    +0.000 C 
ATOM     21  C   UNL     1       2.616   7.895  17.862  0.00  0.00    +0.000 C 
BRANCH  19  22
ATOM     22  C   UNL     1       0.627  11.000  19.086  0.00  0.00    +0.000 C 
BRANCH  22  23
ATOM     23  N   UNL     1      -0.791  10.647  19.116  0.00  0.00    +0.000 NA
ATOM     24  H   UNL     1      -1.274  11.176  19.845  0.00  0.00    +0.000 HD
BRANCH  23  25
ATOM     25  C   UNL     1      -1.463  10.887  17.817  0.00  0.00    +0.000 C 
BRANCH  25  26
ATOM     26  C   UNL     1      -3.008  10.805  17.834  0.00  0.00    +0.000 C 
ATOM     27  F   UNL     1      -3.544  11.440  18.902  0.00  0.00    +0.000 F 
ATOM     28  F   UNL     1      -3.532  11.380  16.726  0.00  0.00    +0.000 F 
ATOM     29  F   UNL     1      -3.432   9.522  17.864  0.00  0.00    +0.000 F 
ENDBRANCH  25  26
ENDBRANCH  23  25
ENDBRANCH  22  23
ENDBRANCH  19  22
ENDBRANCH   3  16
BRANCH   1  30
ATOM     30  C   UNL     1       6.038   6.887  16.825  0.00  0.00    +0.000 C 
BRANCH  30  31
ATOM     31  C   UNL     1       6.732   8.005  17.597  0.00  0.00    +0.000 C 
BRANCH  31  32
ATOM     32  C   UNL     1       8.141   7.608  18.042  0.00  0.00    +0.000 C 
BRANCH  32  34
ATOM     33  N   UNL     1       8.111   5.454  19.556  0.00  0.00    +0.000 NA
ATOM     34  C   UNL     1       8.136   6.413  18.905  0.00  0.00    +0.000 C 
ENDBRANCH  32  34
ENDBRANCH  31  32
ENDBRANCH  30  31
ENDBRANCH   1  30
TORSDOF 9
ENDMDL
MODEL 9
REMARK VINA RESULT:      -7.2      2.422      2.672
REMARK  Name = 
REMARK  9 active torsions:
REMARK  status: ('A' for Active; 'I' for Inactive)
REMARK    1  A    between atoms: C_2  and  C_3
REMARK    2  A    between atoms: C_3  and  C_4
REMARK    3  A    between atoms: C_4  and  C_5
REMARK    4  A    between atoms: C_5  and  N_6
REMARK    5  A    between atoms: N_8  and  C_9
REMARK    6  A    between atoms: C_12  and  C_13
REMARK    7  A    between atoms: C_13  and  N_14
REMARK    8  A    between atoms: N_14  and  C_15
REMARK    9  A    between atoms: C_15  and  C_16
REMARK                            x       y       z     vdW  Elec       q    Type
REMARK                         _______ _______ _______ _____ _____    ______ ____
ROOT
ATOM      1  N   UNL     1       5.107   6.117  17.692  0.00  0.00    +0.000 N 
ATOM      2  C   UNL     1       4.614   6.437  19.011  0.00  0.00    +0.000 C 
ATOM      3  N   UNL     1       3.267   5.905  19.203  0.00  0.00    +0.000 N 
ATOM      4  C   UNL     1       3.086   4.579  18.755  0.00  0.00    +0.000 A 
ATOM      5  C   UNL     1       4.011   3.988  17.861  0.00  0.00    +0.000 A 
ATOM      6  C   UNL     1       3.832   2.700  17.362  0.00  0.00    +0.000 A 
ATOM      7  N   UNL     1       2.781   1.905  17.637  0.00  0.00    +0.000 NA
ATOM      8  C   UNL     1       1.922   2.471  18.502  0.00  0.00    +0.000 A 
ATOM      9  N   UNL     1       0.760   1.870  18.898  0.00  0.00    +0.000 N 
ATOM     10  C   UNL     1       0.158   2.625  19.866  0.00  0.00    +0.000 A 
ATOM     11  C   UNL     1       0.927   3.757  20.049  0.00  0.00    +0.000 A 
ATOM     12  C   UNL     1       2.015   3.716  19.121  0.00  0.00    +0.000 A 
ATOM     13  C   UNL     1       5.098   4.802  17.287  0.00  0.00    +0.000 C 
ATOM     14  O   UNL     1       5.852   4.339  16.440  0.00  0.00    +0.000 OA
ATOM     15  H   UNL     1       0.434   0.990  18.522  0.00  0.00    +0.000 HD
ENDROOT
BRANCH   3  16
ATOM     16  C   UNL     1       2.122   6.855  19.146  0.00  0.00    +0.000 C 
ATOM     17  C   UNL     1       1.793   7.382  20.560  0.00  0.00    +0.000 C 
ATOM     18  C   UNL     1       0.820   8.567  20.566  0.00  0.00    +0.000 C 
ATOM     19  C   UNL     1       1.313   9.701  19.652  0.00  0.00    +0.000 C 
ATOM     20  C   UNL     1       1.437   9.162  18.221  0.00  0.00    +0.000 C 
ATOM     21  C   UNL     1       2.411   7.991  18.146  0.00  0.00    +0.000 C 
BRANCH  19  22
ATOM     22  C   UNL     1       0.402  10.947  19.671  0.00  0.00    +0.000 C 
BRANCH  22  23
ATOM     23  N   UNL     1       0.366  11.586  18.358  0.00  0.00    +0.000 NA
ATOM     24  H   UNL     1      -0.587  11.584  17.987  0.00  0.00    +0.000 HD
BRANCH  23  25
ATOM     25  C   UNL     1       0.871  12.979  18.390  0.00  0.00    +0.000 C 
BRANCH  25  26
ATOM     26  C   UNL     1       2.411  13.136  18.395  0.00  0.00    +0.000 C 
ATOM     27  F   UNL     1       3.036  12.083  17.820  0.00  0.00    +0.000 F 
ATOM     28  F   UNL     1       2.782  14.242  17.707  0.00  0.00    +0.000 F 
ATOM     29  F   UNL     1       2.889  13.261  19.653  0.00  0.00    +0.000 F 
ENDBRANCH  25  26
ENDBRANCH  23  25
ENDBRANCH  22  23
ENDBRANCH  19  22
ENDBRANCH   3  16
BRANCH   1  30
ATOM     30  C   UNL     1       5.796   7.117  16.891  0.00  0.00    +0.000 C 
BRANCH  30  31
ATOM     31  C   UNL     1       6.894   7.868  17.639  0.00  0.00    +0.000 C 
BRANCH  31  32
ATOM     32  C   UNL     1       8.115   6.985  17.908  0.00  0.00    +0.000 C 
BRANCH  32  34
ATOM     33  N   UNL     1       7.830   5.461  20.035  0.00  0.00    +0.000 NA
ATOM     34  C   UNL     1       7.934   6.132  19.096  0.00  0.00    +0.000 C 
ENDBRANCH  32  34
ENDBRANCH  31  32
ENDBRANCH  30  31
ENDBRANCH   1  30
TORSDOF 9
ENDMDL
