MODEL 1
REMARK VINA RESULT:      -8.1      0.000      0.000
REMARK  Name = 
REMARK  7 active torsions:
REMARK  status: ('A' for Active; 'I' for Inactive)
REMARK    1  A    between atoms: C_2  and  C_3
REMARK    2  A    between atoms: C_2  and  O_14
REMARK    3  A    between atoms: C_3  and  N_4
REMARK    4  A    between atoms: C_5  and  C_7
REMARK    5  A    between atoms: O_14  and  C_15
REMARK    6  A    between atoms: C_15  and  C_16
REMARK    7  A    between atoms: C_18  and  N_19
REMARK                            x       y       z     vdW  Elec       q    Type
REMARK                         _______ _______ _______ _____ _____    ______ ____
ROOT
ATOM      1  O   UNL     1       6.468   5.161  19.771  0.00  0.00    +0.000 OA
ENDROOT
BRANCH   1   3
ATOM      2  O   UNL     1       8.599   5.337  20.617  0.00  0.00    +0.000 OA
ATOM      3  C   UNL     1       7.762   5.580  19.755  0.00  0.00    +0.000 C 
BRANCH   3   4
ATOM      4  C   UNL     1       8.030   6.491  18.562  0.00  0.00    +0.000 C 
BRANCH   4   5
ATOM      5  N   UNL     1       8.609   7.765  18.965  0.00  0.00    +0.000 N 
ATOM      6  C   UNL     1       8.360   8.900  18.220  0.00  0.00    +0.000 C 
ATOM      7  O   UNL     1       7.670   8.879  17.207  0.00  0.00    +0.000 OA
ATOM      8  H   UNL     1       8.964   7.847  19.908  0.00  0.00    +0.000 HD
BRANCH   6   9
ATOM      9  C   UNL     1       8.930  10.188  18.714  0.00  0.00    +0.000 A 
ATOM     10  C   UNL     1       9.082  11.314  17.898  0.00  0.00    +0.000 A 
ATOM     11  C   UNL     1       9.613  12.498  18.431  0.00  0.00    +0.000 A 
ATOM     12  C   UNL     1      10.010  12.549  19.768  0.00  0.00    +0.000 A 
ATOM     13 BR   UNL     1      10.736  14.143  20.477  0.00  0.00    +0.000 Br
ATOM     14  C   UNL     1       9.854  11.439  20.589  0.00  0.00    +0.000 A 
ATOM     15  C   UNL     1       9.285  10.277  20.066  0.00  0.00    +0.000 A 
ENDBRANCH   6   9
ENDBRANCH   4   5
ENDBRANCH   3   4
ENDBRANCH   1   3
BRANCH   1  16
ATOM     16  C   UNL     1       5.864   4.833  18.504  0.00  0.00    +0.000 C 
BRANCH  16  17
ATOM     17  C   UNL     1       4.389   5.192  18.442  0.00  0.00    +0.000 A 
ATOM     18  C   UNL     1       3.956   6.529  18.388  0.00  0.00    +0.000 A 
ATOM     19  C   UNL     1       2.586   6.826  18.325  0.00  0.00    +0.000 A 
ATOM     20  C   UNL     1       1.631   5.802  18.300  0.00  0.00    +0.000 A 
ATOM     21  C   UNL     1       2.048   4.471  18.327  0.00  0.00    +0.000 A 
ATOM     22  C   UNL     1       3.416   4.172  18.424  0.00  0.00    +0.000 A 
ATOM     23  O   UNL     1       3.853   2.871  18.463  0.00  0.00    +0.000 OA
ATOM     24  C   UNL     1       2.800   1.927  18.690  0.00  0.00    +0.000 C 
ATOM     25  O   UNL     1       1.647   2.152  17.892  0.00  0.00    +0.000 OA
ATOM     26  C   UNL     1       1.032   3.371  18.278  0.00  0.00    +0.000 C 
BRANCH  19  27
ATOM     27  N   UNL     1       2.129   8.212  18.265  0.00  0.00    +0.000 N 
ATOM     28  O   UNL     1       2.299   8.829  17.210  0.00  0.00    +0.000 OA
ATOM     29  O   UNL     1       1.594   8.689  19.275  0.00  0.00    +0.000 OA
ENDBRANCH  19  27
ENDBRANCH  16  17
ENDBRANCH   1  16
TORSDOF 7
ENDMDL
MODEL 2
REMARK VINA RESULT:      -8.1      5.112      7.860
REMARK  Name = 
REMARK  7 active torsions:
REMARK  status: ('A' for Active; 'I' for Inactive)
REMARK    1  A    between atoms: C_2  and  C_3
REMARK    2  A    between atoms: C_2  and  O_14
REMARK    3  A    between atoms: C_3  and  N_4
REMARK    4  A    between atoms: C_5  and  C_7
REMARK    5  A    between atoms: O_14  and  C_15
REMARK    6  A    between atoms: C_15  and  C_16
REMARK    7  A    between atoms: C_18  and  N_19
REMARK                            x       y       z     vdW  Elec       q    Type
REMARK                         _______ _______ _______ _____ _____    ______ ____
ROOT
ATOM      1  O   UNL     1       2.653   7.650  19.560  0.00  0.00    +0.000 OA
ENDROOT
BRANCH   1   3
ATOM      2  O   UNL     1       1.267   6.452  20.949  0.00  0.00    +0.000 OA
ATOM      3  C   UNL     1       1.753   7.511  20.570  0.00  0.00    +0.000 C 
BRANCH   3   4
ATOM      4  C   UNL     1       1.338   8.869  21.127  0.00  0.00    +0.000 C 
BRANCH   4   5
ATOM      5  N   UNL     1       0.077   9.328  20.563  0.00  0.00    +0.000 N 
ATOM      6  C   UNL     1       0.078  10.182  19.478  0.00  0.00    +0.000 C 
ATOM      7  O   UNL     1       1.116  10.589  18.968  0.00  0.00    +0.000 OA
ATOM      8  H   UNL     1      -0.764   8.821  20.807  0.00  0.00    +0.000 HD
BRANCH   6   9
ATOM      9  C   UNL     1      -1.244  10.572  18.906  0.00  0.00    +0.000 A 
ATOM     10  C   UNL     1      -1.831   9.906  17.825  0.00  0.00    +0.000 A 
ATOM     11  C   UNL     1      -3.083  10.317  17.345  0.00  0.00    +0.000 A 
ATOM     12  C   UNL     1      -3.736  11.403  17.930  0.00  0.00    +0.000 A 
ATOM     13 BR   UNL     1      -5.418  11.960  17.272  0.00  0.00    +0.000 Br
ATOM     14  C   UNL     1      -3.167  12.065  19.011  0.00  0.00    +0.000 A 
ATOM     15  C   UNL     1      -1.940  11.625  19.512  0.00  0.00    +0.000 A 
ENDBRANCH   6   9
ENDBRANCH   4   5
ENDBRANCH   3   4
ENDBRANCH   1   3
BRANCH   1  16
ATOM     16  C   UNL     1       2.340   7.017  18.303  0.00  0.00    +0.000 C 
BRANCH  16  17
ATOM     17  C   UNL     1       3.339   5.941  17.917  0.00  0.00    +0.000 A 
ATOM     18  C   UNL     1       4.628   6.261  17.452  0.00  0.00    +0.000 A 
ATOM     19  C   UNL     1       5.529   5.242  17.110  0.00  0.00    +0.000 A 
ATOM     20  C   UNL     1       5.171   3.895  17.237  0.00  0.00    +0.000 A 
ATOM     21  C   UNL     1       3.905   3.562  17.722  0.00  0.00    +0.000 A 
ATOM     22  C   UNL     1       2.990   4.580  18.033  0.00  0.00    +0.000 A 
ATOM     23  O   UNL     1       1.734   4.281  18.502  0.00  0.00    +0.000 OA
ATOM     24  C   UNL     1       1.388   2.900  18.350  0.00  0.00    +0.000 C 
ATOM     25  O   UNL     1       2.412   2.004  18.757  0.00  0.00    +0.000 OA
ATOM     26  C   UNL     1       3.523   2.123  17.881  0.00  0.00    +0.000 C 
BRANCH  19  27
ATOM     27  N   UNL     1       6.870   5.567  16.630  0.00  0.00    +0.000 N 
ATOM     28  O   UNL     1       7.118   6.749  16.371  0.00  0.00    +0.000 OA
ATOM     29  O   UNL     1       7.683   4.641  16.512  0.00  0.00    +0.000 OA
ENDBRANCH  19  27
ENDBRANCH  16  17
ENDBRANCH   1  16
TORSDOF 7
ENDMDL
MODEL 3
REMARK VINA RESULT:      -7.8      5.216      7.856
REMARK  Name = 
REMARK  7 active torsions:
REMARK  status: ('A' for Active; 'I' for Inactive)
REMARK    1  A    between atoms: C_2  and  C_3
REMARK    2  A    between atoms: C_2  and  O_14
REMARK    3  A    between atoms: C_3  and  N_4
REMARK    4  A    between atoms: C_5  and  C_7
REMARK    5  A    between atoms: O_14  and  C_15
REMARK    6  A    between atoms: C_15  and  C_16
REMARK    7  A    between atoms: C_18  and  N_19
REMARK                            x       y       z     vdW  Elec       q    Type
REMARK                         _______ _______ _______ _____ _____    ______ ____
ROOT
ATOM      1  O   UNL     1       2.484   8.081  17.754  0.00  0.00    +0.000 OA
ENDROOT
BRANCH   1   3
ATOM      2  O   UNL     1       1.647  10.219  17.630  0.00  0.00    +0.000 OA
ATOM      3  C   UNL     1       1.817   9.165  18.232  0.00  0.00    +0.000 C 
BRANCH   3   4
ATOM      4  C   UNL     1       1.379   8.947  19.677  0.00  0.00    +0.000 C 
BRANCH   4   5
ATOM      5  N   UNL     1       0.234   9.773  20.032  0.00  0.00    +0.000 N 
ATOM      6  C   UNL     1       0.207  10.427  21.247  0.00  0.00    +0.000 C 
ATOM      7  O   UNL     1       1.118  10.329  22.062  0.00  0.00    +0.000 OA
ATOM      8  H   UNL     1      -0.394  10.056  19.291  0.00  0.00    +0.000 HD
BRANCH   6   9
ATOM      9  C   UNL     1      -0.964  11.307  21.532  0.00  0.00    +0.000 A 
ATOM     10  C   UNL     1      -1.653  12.003  20.534  0.00  0.00    +0.000 A 
ATOM     11  C   UNL     1      -2.755  12.802  20.870  0.00  0.00    +0.000 A 
ATOM     12  C   UNL     1      -3.154  12.922  22.202  0.00  0.00    +0.000 A 
ATOM     13 BR   UNL     1      -4.632  14.010  22.651  0.00  0.00    +0.000 Br
ATOM     14  C   UNL     1      -2.483  12.226  23.200  0.00  0.00    +0.000 A 
ATOM     15  C   UNL     1      -1.414  11.398  22.856  0.00  0.00    +0.000 A 
ENDBRANCH   6   9
ENDBRANCH   4   5
ENDBRANCH   3   4
ENDBRANCH   1   3
BRANCH   1  16
ATOM     16  C   UNL     1       2.683   6.975  18.657  0.00  0.00    +0.000 C 
BRANCH  16  17
ATOM     17  C   UNL     1       3.413   5.809  18.013  0.00  0.00    +0.000 A 
ATOM     18  C   UNL     1       4.602   5.993  17.284  0.00  0.00    +0.000 A 
ATOM     19  C   UNL     1       5.255   4.894  16.707  0.00  0.00    +0.000 A 
ATOM     20  C   UNL     1       4.746   3.598  16.856  0.00  0.00    +0.000 A 
ATOM     21  C   UNL     1       3.581   3.398  17.598  0.00  0.00    +0.000 A 
ATOM     22  C   UNL     1       2.908   4.500  18.148  0.00  0.00    +0.000 A 
ATOM     23  O   UNL     1       1.754   4.332  18.874  0.00  0.00    +0.000 OA
ATOM     24  C   UNL     1       1.192   3.021  18.747  0.00  0.00    +0.000 C 
ATOM     25  O   UNL     1       2.143   1.974  18.877  0.00  0.00    +0.000 OA
ATOM     26  C   UNL     1       3.043   2.011  17.780  0.00  0.00    +0.000 C 
BRANCH  19  27
ATOM     27  N   UNL     1       6.492   5.077  15.952  0.00  0.00    +0.000 N 
ATOM     28  O   UNL     1       7.542   4.674  16.461  0.00  0.00    +0.000 OA
ATOM     29  O   UNL     1       6.418   5.624  14.843  0.00  0.00    +0.000 OA
ENDBRANCH  19  27
ENDBRANCH  16  17
ENDBRANCH   1  16
TORSDOF 7
ENDMDL
MODEL 4
REMARK VINA RESULT:      -7.7      5.403      8.085
REMARK  Name = 
REMARK  7 active torsions:
REMARK  status: ('A' for Active; 'I' for Inactive)
REMARK    1  A    between atoms: C_2  and  C_3
REMARK    2  A    between atoms: C_2  and  O_14
REMARK    3  A    between atoms: C_3  and  N_4
REMARK    4  A    between atoms: C_5  and  C_7
REMARK    5  A    between atoms: O_14  and  C_15
REMARK    6  A    between atoms: C_15  and  C_16
REMARK    7  A    between atoms: C_18  and  N_19
REMARK                            x       y       z     vdW  Elec       q    Type
REMARK                         _______ _______ _______ _____ _____    ______ ____
ROOT
ATOM      1  O   UNL     1       2.022   8.275  17.825  0.00  0.00    +0.000 OA
ENDROOT
BRANCH   1   3
ATOM      2  O   UNL     1       0.592  10.076  17.788  0.00  0.00    +0.000 OA
ATOM      3  C   UNL     1       1.200   9.199  18.391  0.00  0.00    +0.000 C 
BRANCH   3   4
ATOM      4  C   UNL     1       1.200   9.076  19.912  0.00  0.00    +0.000 C 
BRANCH   4   5
ATOM      5  N   UNL     1       0.021   9.686  20.509  0.00  0.00    +0.000 N 
ATOM      6  C   UNL     1       0.122  10.916  21.127  0.00  0.00    +0.000 C 
ATOM      7  O   UNL     1       1.185  11.522  21.208  0.00  0.00    +0.000 OA
ATOM      8  H   UNL     1      -0.886   9.327  20.242  0.00  0.00    +0.000 HD
BRANCH   6   9
ATOM      9  C   UNL     1      -1.130  11.520  21.670  0.00  0.00    +0.000 A 
ATOM     10  C   UNL     1      -1.518  11.394  23.008  0.00  0.00    +0.000 A 
ATOM     11  C   UNL     1      -2.701  11.999  23.454  0.00  0.00    +0.000 A 
ATOM     12  C   UNL     1      -3.506  12.710  22.562  0.00  0.00    +0.000 A 
ATOM     13 BR   UNL     1      -5.106  13.514  23.167  0.00  0.00    +0.000 Br
ATOM     14  C   UNL     1      -3.125  12.850  21.233  0.00  0.00    +0.000 A 
ATOM     15  C   UNL     1      -1.924  12.283  20.803  0.00  0.00    +0.000 A 
ENDBRANCH   6   9
ENDBRANCH   4   5
ENDBRANCH   3   4
ENDBRANCH   1   3
BRANCH   1  16
ATOM     16  C   UNL     1       2.679   7.344  18.708  0.00  0.00    +0.000 C 
BRANCH  16  17
ATOM     17  C   UNL     1       3.408   6.238  17.965  0.00  0.00    +0.000 A 
ATOM     18  C   UNL     1       4.583   6.490  17.233  0.00  0.00    +0.000 A 
ATOM     19  C   UNL     1       5.236   5.444  16.563  0.00  0.00    +0.000 A 
ATOM     20  C   UNL     1       4.742   4.136  16.623  0.00  0.00    +0.000 A 
ATOM     21  C   UNL     1       3.592   3.867  17.367  0.00  0.00    +0.000 A 
ATOM     22  C   UNL     1       2.919   4.917  18.010  0.00  0.00    +0.000 A 
ATOM     23  O   UNL     1       1.780   4.682  18.741  0.00  0.00    +0.000 OA
ATOM     24  C   UNL     1       1.228   3.378  18.525  0.00  0.00    +0.000 C 
ATOM     25  O   UNL     1       2.192   2.335  18.559  0.00  0.00    +0.000 OA
ATOM     26  C   UNL     1       3.072   2.465  17.453  0.00  0.00    +0.000 C 
BRANCH  19  27
ATOM     27  N   UNL     1       6.457   5.698  15.803  0.00  0.00    +0.000 N 
ATOM     28  O   UNL     1       6.495   5.315  14.630  0.00  0.00    +0.000 OA
ATOM     29  O   UNL     1       7.385   6.284  16.377  0.00  0.00    +0.000 OA
ENDBRANCH  19  27
ENDBRANCH  16  17
ENDBRANCH   1  16
TORSDOF 7
ENDMDL
MODEL 5
REMARK VINA RESULT:      -7.7      1.273      1.711
REMARK  Name = 
REMARK  7 active torsions:
REMARK  status: ('A' for Active; 'I' for Inactive)
REMARK    1  A    between atoms: C_2  and  C_3
REMARK    2  A    between atoms: C_2  and  O_14
REMARK    3  A    between atoms: C_3  and  N_4
REMARK    4  A    between atoms: C_5  and  C_7
REMARK    5  A    between atoms: O_14  and  C_15
REMARK    6  A    between atoms: C_15  and  C_16
REMARK    7  A    between atoms: C_18  and  N_19
REMARK                            x       y       z     vdW  Elec       q    Type
REMARK                         _______ _______ _______ _____ _____    ______ ____
ROOT
ATOM      1  O   UNL     1       6.138   4.812  19.102  0.00  0.00    +0.000 OA
ENDROOT
BRANCH   1   3
ATOM      2  O   UNL     1       7.821   5.499  20.510  0.00  0.00    +0.000 OA
ATOM      3  C   UNL     1       7.263   5.508  19.419  0.00  0.00    +0.000 C 
BRANCH   3   4
ATOM      4  C   UNL     1       7.704   6.397  18.260  0.00  0.00    +0.000 C 
BRANCH   4   5
ATOM      5  N   UNL     1       8.376   7.603  18.722  0.00  0.00    +0.000 N 
ATOM      6  C   UNL     1       8.153   8.804  18.078  0.00  0.00    +0.000 C 
ATOM      7  O   UNL     1       7.409   8.896  17.107  0.00  0.00    +0.000 OA
ATOM      8  H   UNL     1       8.786   7.593  19.646  0.00  0.00    +0.000 HD
BRANCH   6   9
ATOM      9  C   UNL     1       8.821  10.018  18.631  0.00  0.00    +0.000 A 
ATOM     10  C   UNL     1       9.357  10.070  19.922  0.00  0.00    +0.000 A 
ATOM     11  C   UNL     1       9.984  11.239  20.373  0.00  0.00    +0.000 A 
ATOM     12  C   UNL     1      10.058  12.361  19.545  0.00  0.00    +0.000 A 
ATOM     13 BR   UNL     1      10.894  13.939  20.163  0.00  0.00    +0.000 Br
ATOM     14  C   UNL     1       9.538  12.316  18.257  0.00  0.00    +0.000 A 
ATOM     15  C   UNL     1       8.952  11.136  17.797  0.00  0.00    +0.000 A 
ENDBRANCH   6   9
ENDBRANCH   4   5
ENDBRANCH   3   4
ENDBRANCH   1   3
BRANCH   1  16
ATOM     16  C   UNL     1       5.093   5.523  18.410  0.00  0.00    +0.000 C 
BRANCH  16  17
ATOM     17  C   UNL     1       3.751   5.437  19.116  0.00  0.00    +0.000 A 
ATOM     18  C   UNL     1       3.143   6.568  19.690  0.00  0.00    +0.000 A 
ATOM     19  C   UNL     1       1.900   6.455  20.330  0.00  0.00    +0.000 A 
ATOM     20  C   UNL     1       1.238   5.223  20.396  0.00  0.00    +0.000 A 
ATOM     21  C   UNL     1       1.817   4.097  19.809  0.00  0.00    +0.000 A 
ATOM     22  C   UNL     1       3.076   4.202  19.198  0.00  0.00    +0.000 A 
ATOM     23  O   UNL     1       3.673   3.108  18.620  0.00  0.00    +0.000 OA
ATOM     24  C   UNL     1       3.041   1.870  18.966  0.00  0.00    +0.000 C 
ATOM     25  O   UNL     1       1.625   1.903  18.871  0.00  0.00    +0.000 OA
ATOM     26  C   UNL     1       1.103   2.781  19.857  0.00  0.00    +0.000 C 
BRANCH  19  27
ATOM     27  N   UNL     1       1.262   7.626  20.925  0.00  0.00    +0.000 N 
ATOM     28  O   UNL     1       0.107   7.501  21.345  0.00  0.00    +0.000 OA
ATOM     29  O   UNL     1       1.914   8.677  20.977  0.00  0.00    +0.000 OA
ENDBRANCH  19  27
ENDBRANCH  16  17
ENDBRANCH   1  16
TORSDOF 7
ENDMDL
MODEL 6
REMARK VINA RESULT:      -7.6      4.847      7.375
REMARK  Name = 
REMARK  7 active torsions:
REMARK  status: ('A' for Active; 'I' for Inactive)
REMARK    1  A    between atoms: C_2  and  C_3
REMARK    2  A    between atoms: C_2  and  O_14
REMARK    3  A    between atoms: C_3  and  N_4
REMARK    4  A    between atoms: C_5  and  C_7
REMARK    5  A    between atoms: O_14  and  C_15
REMARK    6  A    between atoms: C_15  and  C_16
REMARK    7  A    between atoms: C_18  and  N_19
REMARK                            x       y       z     vdW  Elec       q    Type
REMARK                         _______ _______ _______ _____ _____    ______ ____
ROOT
ATOM      1  O   UNL     1       2.576   8.735  17.353  0.00  0.00    +0.000 OA
ENDROOT
BRANCH   1   3
ATOM      2  O   UNL     1       2.524  10.972  17.884  0.00  0.00    +0.000 OA
ATOM      3  C   UNL     1       1.984   9.875  17.802  0.00  0.00    +0.000 C 
BRANCH   3   4
ATOM      4  C   UNL     1       0.566   9.601  18.292  0.00  0.00    +0.000 C 
BRANCH   4   5
ATOM      5  N   UNL     1       0.100  10.624  19.217  0.00  0.00    +0.000 N 
ATOM      6  C   UNL     1       0.087  10.371  20.574  0.00  0.00    +0.000 C 
ATOM      7  O   UNL     1       0.446   9.295  21.041  0.00  0.00    +0.000 OA
ATOM      8  H   UNL     1       0.038  11.575  18.879  0.00  0.00    +0.000 HD
BRANCH   6   9
ATOM      9  C   UNL     1      -0.344  11.477  21.478  0.00  0.00    +0.000 A 
ATOM     10  C   UNL     1      -1.305  11.309  22.480  0.00  0.00    +0.000 A 
ATOM     11  C   UNL     1      -1.654  12.388  23.304  0.00  0.00    +0.000 A 
ATOM     12  C   UNL     1      -1.060  13.637  23.114  0.00  0.00    +0.000 A 
ATOM     13 BR   UNL     1      -1.543  15.091  24.219  0.00  0.00    +0.000 Br
ATOM     14  C   UNL     1      -0.096  13.812  22.128  0.00  0.00    +0.000 A 
ATOM     15  C   UNL     1       0.279  12.724  21.339  0.00  0.00    +0.000 A 
ENDBRANCH   6   9
ENDBRANCH   4   5
ENDBRANCH   3   4
ENDBRANCH   1   3
BRANCH   1  16
ATOM     16  C   UNL     1       2.554   7.590  18.228  0.00  0.00    +0.000 C 
BRANCH  16  17
ATOM     17  C   UNL     1       3.494   6.485  17.779  0.00  0.00    +0.000 A 
ATOM     18  C   UNL     1       4.762   6.767  17.238  0.00  0.00    +0.000 A 
ATOM     19  C   UNL     1       5.608   5.721  16.840  0.00  0.00    +0.000 A 
ATOM     20  C   UNL     1       5.216   4.385  16.985  0.00  0.00    +0.000 A 
ATOM     21  C   UNL     1       3.971   4.090  17.544  0.00  0.00    +0.000 A 
ATOM     22  C   UNL     1       3.109   5.135  17.912  0.00  0.00    +0.000 A 
ATOM     23  O   UNL     1       1.875   4.873  18.456  0.00  0.00    +0.000 OA
ATOM     24  C   UNL     1       1.477   3.504  18.321  0.00  0.00    +0.000 C 
ATOM     25  O   UNL     1       2.495   2.575  18.663  0.00  0.00    +0.000 OA
ATOM     26  C   UNL     1       3.554   2.663  17.723  0.00  0.00    +0.000 C 
BRANCH  19  27
ATOM     27  N   UNL     1       6.927   6.006  16.280  0.00  0.00    +0.000 N 
ATOM     28  O   UNL     1       7.210   5.504  15.189  0.00  0.00    +0.000 OA
ATOM     29  O   UNL     1       7.686   6.738  16.930  0.00  0.00    +0.000 OA
ENDBRANCH  19  27
ENDBRANCH  16  17
ENDBRANCH   1  16
TORSDOF 7
ENDMDL
MODEL 7
REMARK VINA RESULT:      -7.6      5.478      8.834
REMARK  Name = 
REMARK  7 active torsions:
REMARK  status: ('A' for Active; 'I' for Inactive)
REMARK    1  A    between atoms: C_2  and  C_3
REMARK    2  A    between atoms: C_2  and  O_14
REMARK    3  A    between atoms: C_3  and  N_4
REMARK    4  A    between atoms: C_5  and  C_7
REMARK    5  A    between atoms: O_14  and  C_15
REMARK    6  A    between atoms: C_15  and  C_16
REMARK    7  A    between atoms: C_18  and  N_19
REMARK                            x       y       z     vdW  Elec       q    Type
REMARK                         _______ _______ _______ _____ _____    ______ ____
ROOT
ATOM      1  O   UNL     1       1.839   8.160  17.836  0.00  0.00    +0.000 OA
ENDROOT
BRANCH   1   3
ATOM      2  O   UNL     1       1.419   8.523  20.068  0.00  0.00    +0.000 OA
ATOM      3  C   UNL     1       1.539   8.929  18.917  0.00  0.00    +0.000 C 
BRANCH   3   4
ATOM      4  C   UNL     1       1.269  10.373  18.506  0.00  0.00    +0.000 C 
BRANCH   4   5
ATOM      5  N   UNL     1      -0.134  10.597  18.188  0.00  0.00    +0.000 N 
ATOM      6  C   UNL     1      -1.003  11.022  19.173  0.00  0.00    +0.000 C 
ATOM      7  O   UNL     1      -0.640  11.210  20.329  0.00  0.00    +0.000 OA
ATOM      8  H   UNL     1      -0.391  10.684  17.214  0.00  0.00    +0.000 HD
BRANCH   6   9
ATOM      9  C   UNL     1      -2.416  11.293  18.776  0.00  0.00    +0.000 A 
ATOM     10  C   UNL     1      -3.028  10.683  17.676  0.00  0.00    +0.000 A 
ATOM     11  C   UNL     1      -4.364  10.972  17.368  0.00  0.00    +0.000 A 
ATOM     12  C   UNL     1      -5.081  11.885  18.143  0.00  0.00    +0.000 A 
ATOM     13 BR   UNL     1      -6.879  12.282  17.715  0.00  0.00    +0.000 Br
ATOM     14  C   UNL     1      -4.486  12.490  19.244  0.00  0.00    +0.000 A 
ATOM     15  C   UNL     1      -3.169  12.165  19.573  0.00  0.00    +0.000 A 
ENDBRANCH   6   9
ENDBRANCH   4   5
ENDBRANCH   3   4
ENDBRANCH   1   3
BRANCH   1  16
ATOM     16  C   UNL     1       3.234   7.960  17.532  0.00  0.00    +0.000 C 
BRANCH  16  17
ATOM     17  C   UNL     1       3.678   6.519  17.712  0.00  0.00    +0.000 A 
ATOM     18  C   UNL     1       2.763   5.497  18.022  0.00  0.00    +0.000 A 
ATOM     19  C   UNL     1       3.207   4.174  18.175  0.00  0.00    +0.000 A 
ATOM     20  C   UNL     1       4.558   3.847  18.010  0.00  0.00    +0.000 A 
ATOM     21  C   UNL     1       5.473   4.847  17.677  0.00  0.00    +0.000 A 
ATOM     22  C   UNL     1       5.037   6.176  17.556  0.00  0.00    +0.000 A 
ATOM     23  O   UNL     1       5.917   7.182  17.239  0.00  0.00    +0.000 OA
ATOM     24  C   UNL     1       7.290   6.786  17.346  0.00  0.00    +0.000 C 
ATOM     25  O   UNL     1       7.572   5.528  16.750  0.00  0.00    +0.000 OA
ATOM     26  C   UNL     1       6.916   4.500  17.476  0.00  0.00    +0.000 C 
BRANCH  19  27
ATOM     27  N   UNL     1       2.262   3.107  18.493  0.00  0.00    +0.000 N 
ATOM     28  O   UNL     1       1.191   3.083  17.879  0.00  0.00    +0.000 OA
ATOM     29  O   UNL     1       2.588   2.284  19.360  0.00  0.00    +0.000 OA
ENDBRANCH  19  27
ENDBRANCH  16  17
ENDBRANCH   1  16
TORSDOF 7
ENDMDL
MODEL 8
REMARK VINA RESULT:      -7.6      5.501      8.294
REMARK  Name = 
REMARK  7 active torsions:
REMARK  status: ('A' for Active; 'I' for Inactive)
REMARK    1  A    between atoms: C_2  and  C_3
REMARK    2  A    between atoms: C_2  and  O_14
REMARK    3  A    between atoms: C_3  and  N_4
REMARK    4  A    between atoms: C_5  and  C_7
REMARK    5  A    between atoms: O_14  and  C_15
REMARK    6  A    between atoms: C_15  and  C_16
REMARK    7  A    between atoms: C_18  and  N_19
REMARK                            x       y       z     vdW  Elec       q    Type
REMARK                         _______ _______ _______ _____ _____    ______ ____
ROOT
ATOM      1  O   UNL     1       2.271   7.790  19.340  0.00  0.00    +0.000 OA
ENDROOT
BRANCH   1   3
ATOM      2  O   UNL     1       0.999   9.565  18.618  0.00  0.00    +0.000 OA
ATOM      3  C   UNL     1       1.425   8.841  19.511  0.00  0.00    +0.000 C 
BRANCH   3   4
ATOM      4  C   UNL     1       1.137   9.080  20.990  0.00  0.00    +0.000 C 
BRANCH   4   5
ATOM      5  N   UNL     1       0.246  10.212  21.198  0.00  0.00    +0.000 N 
ATOM      6  C   UNL     1      -0.164  10.540  22.474  0.00  0.00    +0.000 C 
ATOM      7  O   UNL     1       0.186   9.897  23.458  0.00  0.00    +0.000 OA
ATOM      8  H   UNL     1       0.150  10.884  20.448  0.00  0.00    +0.000 HD
BRANCH   6   9
ATOM      9  C   UNL     1      -1.030  11.745  22.634  0.00  0.00    +0.000 A 
ATOM     10  C   UNL     1      -2.279  11.707  23.262  0.00  0.00    +0.000 A 
ATOM     11  C   UNL     1      -3.035  12.881  23.390  0.00  0.00    +0.000 A 
ATOM     12  C   UNL     1      -2.554  14.084  22.872  0.00  0.00    +0.000 A 
ATOM     13 BR   UNL     1      -3.583  15.661  23.036  0.00  0.00    +0.000 Br
ATOM     14  C   UNL     1      -1.310  14.135  22.255  0.00  0.00    +0.000 A 
ATOM     15  C   UNL     1      -0.542  12.973  22.168  0.00  0.00    +0.000 A 
ENDBRANCH   6   9
ENDBRANCH   4   5
ENDBRANCH   3   4
ENDBRANCH   1   3
BRANCH   1  16
ATOM     16  C   UNL     1       2.977   7.706  18.086  0.00  0.00    +0.000 C 
BRANCH  16  17
ATOM     17  C   UNL     1       3.580   6.334  17.838  0.00  0.00    +0.000 A 
ATOM     18  C   UNL     1       2.817   5.159  17.958  0.00  0.00    +0.000 A 
ATOM     19  C   UNL     1       3.403   3.907  17.715  0.00  0.00    +0.000 A 
ATOM     20  C   UNL     1       4.748   3.807  17.336  0.00  0.00    +0.000 A 
ATOM     21  C   UNL     1       5.509   4.967  17.187  0.00  0.00    +0.000 A 
ATOM     22  C   UNL     1       4.934   6.217  17.463  0.00  0.00    +0.000 A 
ATOM     23  O   UNL     1       5.663   7.374  17.334  0.00  0.00    +0.000 OA
ATOM     24  C   UNL     1       7.070   7.143  17.196  0.00  0.00    +0.000 C 
ATOM     25  O   UNL     1       7.395   6.119  16.267  0.00  0.00    +0.000 OA
ATOM     26  C   UNL     1       6.942   4.868  16.760  0.00  0.00    +0.000 C 
BRANCH  19  27
ATOM     27  N   UNL     1       2.617   2.683  17.836  0.00  0.00    +0.000 N 
ATOM     28  O   UNL     1       1.386   2.785  17.820  0.00  0.00    +0.000 OA
ATOM     29  O   UNL     1       3.227   1.611  17.944  0.00  0.00    +0.000 OA
ENDBRANCH  19  27
ENDBRANCH  16  17
ENDBRANCH   1  16
TORSDOF 7
ENDMDL
MODEL 9
REMARK VINA RESULT:      -7.6      5.347      8.579
REMARK  Name = 
REMARK  7 active torsions:
REMARK  status: ('A' for Active; 'I' for Inactive)
REMARK    1  A    between atoms: C_2  and  C_3
REMARK    2  A    between atoms: C_2  and  O_14
REMARK    3  A    between atoms: C_3  and  N_4
REMARK    4  A    between atoms: C_5  and  C_7
REMARK    5  A    between atoms: O_14  and  C_15
REMARK    6  A    between atoms: C_15  and  C_16
REMARK    7  A    between atoms: C_18  and  N_19
REMARK                            x       y       z     vdW  Elec       q    Type
REMARK                         _______ _______ _______ _____ _____    ______ ____
ROOT
ATOM      1  O   UNL     1       1.590   7.336  20.554  0.00  0.00    +0.000 OA
ENDROOT
BRANCH   1   3
ATOM      2  O   UNL     1       0.723   8.663  22.219  0.00  0.00    +0.000 OA
ATOM      3  C   UNL     1       1.154   8.511  21.081  0.00  0.00    +0.000 C 
BRANCH   3   4
ATOM      4  C   UNL     1       1.172   9.623  20.037  0.00  0.00    +0.000 C 
BRANCH   4   5
ATOM      5  N   UNL     1      -0.162  10.138  19.764  0.00  0.00    +0.000 N 
ATOM      6  C   UNL     1      -0.658  10.115  18.476  0.00  0.00    +0.000 C 
ATOM      7  O   UNL     1      -0.005   9.683  17.532  0.00  0.00    +0.000 OA
ATOM      8  H   UNL     1      -0.791  10.264  20.546  0.00  0.00    +0.000 HD
BRANCH   6   9
ATOM      9  C   UNL     1      -2.053  10.601  18.264  0.00  0.00    +0.000 A 
ATOM     10  C   UNL     1      -2.896  10.085  17.275  0.00  0.00    +0.000 A 
ATOM     11  C   UNL     1      -4.201  10.579  17.140  0.00  0.00    +0.000 A 
ATOM     12  C   UNL     1      -4.655  11.600  17.977  0.00  0.00    +0.000 A 
ATOM     13 BR   UNL     1      -6.412  12.270  17.783  0.00  0.00    +0.000 Br
ATOM     14  C   UNL     1      -3.829  12.112  18.970  0.00  0.00    +0.000 A 
ATOM     15  C   UNL     1      -2.545  11.587  19.128  0.00  0.00    +0.000 A 
ENDBRANCH   6   9
ENDBRANCH   4   5
ENDBRANCH   3   4
ENDBRANCH   1   3
BRANCH   1  16
ATOM     16  C   UNL     1       2.310   7.397  19.306  0.00  0.00    +0.000 C 
BRANCH  16  17
ATOM     17  C   UNL     1       2.612   6.025  18.729  0.00  0.00    +0.000 A 
ATOM     18  C   UNL     1       1.853   4.894  19.077  0.00  0.00    +0.000 A 
ATOM     19  C   UNL     1       2.155   3.641  18.520  0.00  0.00    +0.000 A 
ATOM     20  C   UNL     1       3.203   3.498  17.603  0.00  0.00    +0.000 A 
ATOM     21  C   UNL     1       3.948   4.618  17.230  0.00  0.00    +0.000 A 
ATOM     22  C   UNL     1       3.670   5.864  17.810  0.00  0.00    +0.000 A 
ATOM     23  O   UNL     1       4.394   6.981  17.468  0.00  0.00    +0.000 OA
ATOM     24  C   UNL     1       5.585   6.678  16.733  0.00  0.00    +0.000 C 
ATOM     25  O   UNL     1       5.389   5.742  15.683  0.00  0.00    +0.000 OA
ATOM     26  C   UNL     1       5.057   4.476  16.232  0.00  0.00    +0.000 C 
BRANCH  19  27
ATOM     27  N   UNL     1       1.369   2.463  18.874  0.00  0.00    +0.000 N 
ATOM     28  O   UNL     1       1.910   1.597  19.569  0.00  0.00    +0.000 OA
ATOM     29  O   UNL     1       0.203   2.398  18.460  0.00  0.00    +0.000 OA
ENDBRANCH  19  27
ENDBRANCH  16  17
ENDBRANCH   1  16
TORSDOF 7
ENDMDL
