MODEL 1
REMARK VINA RESULT:      -8.2      0.000      0.000
REMARK  Name = 
REMARK  12 active torsions:
REMARK  status: ('A' for Active; 'I' for Inactive)
REMARK    1  A    between atoms: C_1  and  O_2
REMARK    2  A    between atoms: O_2  and  C_3
REMARK    3  A    between atoms: C_9  and  C_10
REMARK    4  A    between atoms: C_11  and  C_12
REMARK    5  A    between atoms: C_12  and  C_13
REMARK    6  A    between atoms: C_12  and  C_14
REMARK    7  A    between atoms: C_12  and  N_21
REMARK    8  A    between atoms: C_14  and  C_15
REMARK    9  A    between atoms: C_24  and  C_25
REMARK   10  A    between atoms: C_25  and  O_27
REMARK   11  A    between atoms: C_32  and  O_33
REMARK   12  A    between atoms: O_33  and  C_34
REMARK                            x       y       z     vdW  Elec       q    Type
REMARK                         _______ _______ _______ _____ _____    ______ ____
ROOT
ATOM      1  C   UNL     1       2.607   6.393  18.809  0.00  0.00    +0.000 C 
ATOM      2  C   UNL     1       2.296   6.873  17.362  0.00  0.00    +0.000 C 
ENDROOT
BRANCH   1   3
ATOM      3  N   UNL     1       2.082   5.002  19.071  0.00  0.00    +0.000 NA
ATOM      4  C   UNL     1       2.308   4.081  17.940  0.00  0.00    +0.000 C 
ATOM      5  C   UNL     1       1.827   2.648  18.191  0.00  0.00    +0.000 C 
ATOM      6  C   UNL     1       2.435   2.063  19.464  0.00  0.00    +0.000 C 
ATOM      7  C   UNL     1       2.095   3.005  20.619  0.00  0.00    +0.000 C 
ATOM      8  C   UNL     1       2.552   4.444  20.351  0.00  0.00    +0.000 C 
BRANCH   6   9
ATOM      9  C   UNL     1       3.941   1.827  19.350  0.00  0.00    +0.000 C 
ATOM     10  O   UNL     1       4.789   2.332  20.075  0.00  0.00    +0.000 OA
BRANCH   9  11
ATOM     11  O   UNL     1       4.271   0.944  18.388  0.00  0.00    +0.000 OA
ATOM     12  H   UNL     1       3.667   0.921  17.625  0.00  0.00    +0.000 HD
ENDBRANCH   9  11
ENDBRANCH   6   9
ENDBRANCH   1   3
BRANCH   1  14
ATOM     13  C   UNL     1       1.380   8.222  20.576  0.00  0.00    +0.000 C 
ATOM     14  C   UNL     1       1.947   7.378  19.760  0.00  0.00    +0.000 C 
BRANCH  13  21
ATOM     15  C   UNL     1      -1.796  12.239  20.278  0.00  0.00    +0.000 A 
ATOM     16  C   UNL     1      -1.540  11.947  21.628  0.00  0.00    +0.000 A 
ATOM     17  C   UNL     1      -0.704  10.906  22.020  0.00  0.00    +0.000 A 
ATOM     18  N   UNL     1      -0.514  10.652  23.322  0.00  0.00    +0.000 NA
ATOM     19  C   UNL     1       0.295   9.628  23.639  0.00  0.00    +0.000 A 
ATOM     20  N   UNL     1       0.924   8.824  22.779  0.00  0.00    +0.000 NA
ATOM     21  C   UNL     1       0.716   9.112  21.481  0.00  0.00    +0.000 A 
ATOM     22  C   UNL     1      -0.088  10.154  21.018  0.00  0.00    +0.000 A 
ATOM     23  C   UNL     1      -0.298  10.469  19.655  0.00  0.00    +0.000 A 
ATOM     24  C   UNL     1      -1.157  11.499  19.278  0.00  0.00    +0.000 A 
BRANCH  15  26
ATOM     25  C   UNL     1      -4.035  13.016  20.327  0.00  0.00    +0.000 C 
ATOM     26  O   UNL     1      -2.657  13.290  20.086  0.00  0.00    +0.000 OA
ENDBRANCH  15  26
BRANCH  24  27
ATOM     27  O   UNL     1      -1.327  11.856  17.969  0.00  0.00    +0.000 OA
ATOM     28  C   UNL     1      -2.300  11.109  17.245  0.00  0.00    +0.000 C 
ENDBRANCH  24  27
ENDBRANCH  13  21
ENDBRANCH   1  14
BRANCH   1  29
ATOM     29  C   UNL     1       4.166   6.550  19.009  0.00  0.00    +0.000 C 
BRANCH  29  30
ATOM     30  C   UNL     1       5.161   5.854  18.091  0.00  0.00    +0.000 A 
ATOM     31  C   UNL     1       6.191   5.017  18.536  0.00  0.00    +0.000 A 
ATOM     32  C   UNL     1       7.164   4.548  17.649  0.00  0.00    +0.000 A 
ATOM     33  C   UNL     1       7.095   4.870  16.296  0.00  0.00    +0.000 A 
ATOM     34  C   UNL     1       6.036   5.638  15.823  0.00  0.00    +0.000 A 
ATOM     35  C   UNL     1       5.077   6.125  16.713  0.00  0.00    +0.000 A 
ENDBRANCH  29  30
ENDBRANCH   1  29
TORSDOF 9
ENDMDL
MODEL 2
REMARK VINA RESULT:      -8.2      1.344      1.704
REMARK  Name = 
REMARK  12 active torsions:
REMARK  status: ('A' for Active; 'I' for Inactive)
REMARK    1  A    between atoms: C_1  and  O_2
REMARK    2  A    between atoms: O_2  and  C_3
REMARK    3  A    between atoms: C_9  and  C_10
REMARK    4  A    between atoms: C_11  and  C_12
REMARK    5  A    between atoms: C_12  and  C_13
REMARK    6  A    between atoms: C_12  and  C_14
REMARK    7  A    between atoms: C_12  and  N_21
REMARK    8  A    between atoms: C_14  and  C_15
REMARK    9  A    between atoms: C_24  and  C_25
REMARK   10  A    between atoms: C_25  and  O_27
REMARK   11  A    between atoms: C_32  and  O_33
REMARK   12  A    between atoms: O_33  and  C_34
REMARK                            x       y       z     vdW  Elec       q    Type
REMARK                         _______ _______ _______ _____ _____    ______ ____
ROOT
ATOM      1  C   UNL     1       2.610   6.534  18.890  0.00  0.00    +0.000 C 
ATOM      2  C   UNL     1       2.279   6.961  17.431  0.00  0.00    +0.000 C 
ENDROOT
BRANCH   1   3
ATOM      3  N   UNL     1       2.095   5.151  19.208  0.00  0.00    +0.000 NA
ATOM      4  C   UNL     1       2.161   4.235  18.053  0.00  0.00    +0.000 C 
ATOM      5  C   UNL     1       1.688   2.808  18.355  0.00  0.00    +0.000 C 
ATOM      6  C   UNL     1       2.437   2.203  19.540  0.00  0.00    +0.000 C 
ATOM      7  C   UNL     1       2.260   3.143  20.732  0.00  0.00    +0.000 C 
ATOM      8  C   UNL     1       2.709   4.575  20.417  0.00  0.00    +0.000 C 
BRANCH   6   9
ATOM      9  C   UNL     1       3.912   1.940  19.240  0.00  0.00    +0.000 C 
ATOM     10  O   UNL     1       4.840   2.193  19.997  0.00  0.00    +0.000 OA
BRANCH   9  11
ATOM     11  O   UNL     1       4.115   1.335  18.054  0.00  0.00    +0.000 OA
ATOM     12  H   UNL     1       5.035   1.348  17.737  0.00  0.00    +0.000 HD
ENDBRANCH   9  11
ENDBRANCH   6   9
ENDBRANCH   1   3
BRANCH   1  14
ATOM     13  C   UNL     1       1.399   8.421  20.606  0.00  0.00    +0.000 C 
ATOM     14  C   UNL     1       1.958   7.549  19.814  0.00  0.00    +0.000 C 
BRANCH  13  21
ATOM     15  C   UNL     1       0.065  13.364  20.298  0.00  0.00    +0.000 A 
ATOM     16  C   UNL     1      -0.349  12.846  21.536  0.00  0.00    +0.000 A 
ATOM     17  C   UNL     1      -0.118  11.525  21.907  0.00  0.00    +0.000 A 
ATOM     18  N   UNL     1      -0.556  11.074  23.091  0.00  0.00    +0.000 NA
ATOM     19  C   UNL     1      -0.313   9.787  23.388  0.00  0.00    +0.000 A 
ATOM     20  N   UNL     1       0.317   8.903  22.611  0.00  0.00    +0.000 NA
ATOM     21  C   UNL     1       0.748   9.392  21.435  0.00  0.00    +0.000 A 
ATOM     22  C   UNL     1       0.574  10.709  21.010  0.00  0.00    +0.000 A 
ATOM     23  C   UNL     1       1.039  11.231  19.781  0.00  0.00    +0.000 A 
ATOM     24  C   UNL     1       0.779  12.549  19.413  0.00  0.00    +0.000 A 
BRANCH  15  26
ATOM     25  C   UNL     1      -1.476  15.116  20.715  0.00  0.00    +0.000 C 
ATOM     26  O   UNL     1      -0.264  14.682  20.103  0.00  0.00    +0.000 OA
ENDBRANCH  15  26
BRANCH  24  27
ATOM     27  O   UNL     1       1.270  13.088  18.256  0.00  0.00    +0.000 OA
ATOM     28  C   UNL     1       2.678  13.293  18.218  0.00  0.00    +0.000 C 
ENDBRANCH  24  27
ENDBRANCH  13  21
ENDBRANCH   1  14
BRANCH   1  29
ATOM     29  C   UNL     1       4.171   6.704  19.064  0.00  0.00    +0.000 C 
BRANCH  29  30
ATOM     30  C   UNL     1       5.155   6.081  18.084  0.00  0.00    +0.000 A 
ATOM     31  C   UNL     1       5.088   6.236  16.695  0.00  0.00    +0.000 A 
ATOM     32  C   UNL     1       5.926   5.500  15.852  0.00  0.00    +0.000 A 
ATOM     33  C   UNL     1       6.875   4.633  16.388  0.00  0.00    +0.000 A 
ATOM     34  C   UNL     1       7.006   4.522  17.768  0.00  0.00    +0.000 A 
ATOM     35  C   UNL     1       6.154   5.241  18.608  0.00  0.00    +0.000 A 
ENDBRANCH  29  30
ENDBRANCH   1  29
TORSDOF 9
ENDMDL
MODEL 3
REMARK VINA RESULT:      -8.1      2.385      4.287
REMARK  Name = 
REMARK  12 active torsions:
REMARK  status: ('A' for Active; 'I' for Inactive)
REMARK    1  A    between atoms: C_1  and  O_2
REMARK    2  A    between atoms: O_2  and  C_3
REMARK    3  A    between atoms: C_9  and  C_10
REMARK    4  A    between atoms: C_11  and  C_12
REMARK    5  A    between atoms: C_12  and  C_13
REMARK    6  A    between atoms: C_12  and  C_14
REMARK    7  A    between atoms: C_12  and  N_21
REMARK    8  A    between atoms: C_14  and  C_15
REMARK    9  A    between atoms: C_24  and  C_25
REMARK   10  A    between atoms: C_25  and  O_27
REMARK   11  A    between atoms: C_32  and  O_33
REMARK   12  A    between atoms: O_33  and  C_34
REMARK                            x       y       z     vdW  Elec       q    Type
REMARK                         _______ _______ _______ _____ _____    ______ ____
ROOT
ATOM      1  C   UNL     1       2.999   6.551  18.338  0.00  0.00    +0.000 C 
ATOM      2  C   UNL     1       3.403   5.994  19.733  0.00  0.00    +0.000 C 
ENDROOT
BRANCH   1   3
ATOM      3  N   UNL     1       4.196   6.759  17.441  0.00  0.00    +0.000 NA
ATOM      4  C   UNL     1       5.360   7.312  18.157  0.00  0.00    +0.000 C 
ATOM      5  C   UNL     1       6.608   7.492  17.284  0.00  0.00    +0.000 C 
ATOM      6  C   UNL     1       7.000   6.192  16.584  0.00  0.00    +0.000 C 
ATOM      7  C   UNL     1       5.789   5.711  15.784  0.00  0.00    +0.000 C 
ATOM      8  C   UNL     1       4.537   5.559  16.656  0.00  0.00    +0.000 C 
BRANCH   6   9
ATOM      9  C   UNL     1       7.501   5.122  17.553  0.00  0.00    +0.000 C 
ATOM     10  O   UNL     1       7.488   5.217  18.774  0.00  0.00    +0.000 OA
BRANCH   9  11
ATOM     11  O   UNL     1       7.924   4.002  16.938  0.00  0.00    +0.000 OA
ATOM     12  H   UNL     1       7.901   4.031  15.965  0.00  0.00    +0.000 HD
ENDBRANCH   9  11
ENDBRANCH   6   9
ENDBRANCH   1   3
BRANCH   1  14
ATOM     13  C   UNL     1       1.694   9.018  18.771  0.00  0.00    +0.000 C 
ATOM     14  C   UNL     1       2.297   7.879  18.571  0.00  0.00    +0.000 C 
BRANCH  13  21
ATOM     15  C   UNL     1      -2.712  11.242  17.377  0.00  0.00    +0.000 A 
ATOM     16  C   UNL     1      -2.029  12.082  18.272  0.00  0.00    +0.000 A 
ATOM     17  C   UNL     1      -0.795  11.744  18.818  0.00  0.00    +0.000 A 
ATOM     18  N   UNL     1      -0.197  12.569  19.689  0.00  0.00    +0.000 NA
ATOM     19  C   UNL     1       0.987  12.184  20.190  0.00  0.00    +0.000 A 
ATOM     20  N   UNL     1       1.628  11.045  19.915  0.00  0.00    +0.000 NA
ATOM     21  C   UNL     1       1.002  10.245  19.033  0.00  0.00    +0.000 A 
ATOM     22  C   UNL     1      -0.222  10.532  18.429  0.00  0.00    +0.000 A 
ATOM     23  C   UNL     1      -0.875   9.700  17.490  0.00  0.00    +0.000 A 
ATOM     24  C   UNL     1      -2.123  10.041  16.971  0.00  0.00    +0.000 A 
BRANCH  15  26
ATOM     25  C   UNL     1      -4.971  11.715  17.921  0.00  0.00    +0.000 C 
ATOM     26  O   UNL     1      -3.921  11.737  16.956  0.00  0.00    +0.000 OA
ENDBRANCH  15  26
BRANCH  24  27
ATOM     27  O   UNL     1      -2.743   9.279  16.019  0.00  0.00    +0.000 OA
ATOM     28  C   UNL     1      -2.857   9.872  14.730  0.00  0.00    +0.000 C 
ENDBRANCH  24  27
ENDBRANCH  13  21
ENDBRANCH   1  14
BRANCH   1  29
ATOM     29  C   UNL     1       1.912   5.562  17.757  0.00  0.00    +0.000 C 
BRANCH  29  30
ATOM     30  C   UNL     1       1.702   4.176  18.346  0.00  0.00    +0.000 A 
ATOM     31  C   UNL     1       0.992   3.920  19.525  0.00  0.00    +0.000 A 
ATOM     32  C   UNL     1       0.982   2.641  20.090  0.00  0.00    +0.000 A 
ATOM     33  C   UNL     1       1.642   1.589  19.459  0.00  0.00    +0.000 A 
ATOM     34  C   UNL     1       2.289   1.809  18.249  0.00  0.00    +0.000 A 
ATOM     35  C   UNL     1       2.317   3.090  17.696  0.00  0.00    +0.000 A 
ENDBRANCH  29  30
ENDBRANCH   1  29
TORSDOF 9
ENDMDL
MODEL 4
REMARK VINA RESULT:      -8.1      2.209      4.101
REMARK  Name = 
REMARK  12 active torsions:
REMARK  status: ('A' for Active; 'I' for Inactive)
REMARK    1  A    between atoms: C_1  and  O_2
REMARK    2  A    between atoms: O_2  and  C_3
REMARK    3  A    between atoms: C_9  and  C_10
REMARK    4  A    between atoms: C_11  and  C_12
REMARK    5  A    between atoms: C_12  and  C_13
REMARK    6  A    between atoms: C_12  and  C_14
REMARK    7  A    between atoms: C_12  and  N_21
REMARK    8  A    between atoms: C_14  and  C_15
REMARK    9  A    between atoms: C_24  and  C_25
REMARK   10  A    between atoms: C_25  and  O_27
REMARK   11  A    between atoms: C_32  and  O_33
REMARK   12  A    between atoms: O_33  and  C_34
REMARK                            x       y       z     vdW  Elec       q    Type
REMARK                         _______ _______ _______ _____ _____    ______ ____
ROOT
ATOM      1  C   UNL     1       2.798   6.622  18.732  0.00  0.00    +0.000 C 
ATOM      2  C   UNL     1       2.942   5.969  20.137  0.00  0.00    +0.000 C 
ENDROOT
BRANCH   1   3
ATOM      3  N   UNL     1       4.138   6.864  18.079  0.00  0.00    +0.000 NA
ATOM      4  C   UNL     1       5.196   5.974  18.594  0.00  0.00    +0.000 C 
ATOM      5  C   UNL     1       6.559   6.163  17.919  0.00  0.00    +0.000 C 
ATOM      6  C   UNL     1       6.462   6.027  16.400  0.00  0.00    +0.000 C 
ATOM      7  C   UNL     1       5.420   7.033  15.909  0.00  0.00    +0.000 C 
ATOM      8  C   UNL     1       4.066   6.859  16.607  0.00  0.00    +0.000 C 
BRANCH   6   9
ATOM      9  C   UNL     1       6.132   4.605  15.950  0.00  0.00    +0.000 C 
ATOM     10  O   UNL     1       5.663   4.303  14.860  0.00  0.00    +0.000 OA
BRANCH   9  11
ATOM     11  O   UNL     1       6.460   3.668  16.860  0.00  0.00    +0.000 OA
ATOM     12  H   UNL     1       5.940   3.692  17.683  0.00  0.00    +0.000 HD
ENDBRANCH   9  11
ENDBRANCH   6   9
ENDBRANCH   1   3
BRANCH   1  14
ATOM     13  C   UNL     1       1.453   9.079  19.088  0.00  0.00    +0.000 C 
ATOM     14  C   UNL     1       2.075   7.945  18.924  0.00  0.00    +0.000 C 
BRANCH  13  21
ATOM     15  C   UNL     1      -2.867  11.305  17.448  0.00  0.00    +0.000 A 
ATOM     16  C   UNL     1      -2.239  12.141  18.385  0.00  0.00    +0.000 A 
ATOM     17  C   UNL     1      -1.039  11.802  19.001  0.00  0.00    +0.000 A 
ATOM     18  N   UNL     1      -0.494  12.624  19.909  0.00  0.00    +0.000 NA
ATOM     19  C   UNL     1       0.660  12.238  20.477  0.00  0.00    +0.000 A 
ATOM     20  N   UNL     1       1.317  11.102  20.235  0.00  0.00    +0.000 NA
ATOM     21  C   UNL     1       0.745  10.304  19.314  0.00  0.00    +0.000 A 
ATOM     22  C   UNL     1      -0.441  10.593  18.641  0.00  0.00    +0.000 A 
ATOM     23  C   UNL     1      -1.038   9.764  17.662  0.00  0.00    +0.000 A 
ATOM     24  C   UNL     1      -2.253  10.106  17.072  0.00  0.00    +0.000 A 
BRANCH  15  26
ATOM     25  C   UNL     1      -5.216  11.477  17.713  0.00  0.00    +0.000 C 
ATOM     26  O   UNL     1      -4.050  11.800  16.959  0.00  0.00    +0.000 OA
ENDBRANCH  15  26
BRANCH  24  27
ATOM     27  O   UNL     1      -2.816   9.348  16.082  0.00  0.00    +0.000 OA
ATOM     28  C   UNL     1      -2.856   9.947  14.791  0.00  0.00    +0.000 C 
ENDBRANCH  24  27
ENDBRANCH  13  21
ENDBRANCH   1  14
BRANCH   1  29
ATOM     29  C   UNL     1       1.827   5.692  17.903  0.00  0.00    +0.000 C 
BRANCH  29  30
ATOM     30  C   UNL     1       1.840   4.180  18.065  0.00  0.00    +0.000 A 
ATOM     31  C   UNL     1       0.924   3.463  18.843  0.00  0.00    +0.000 A 
ATOM     32  C   UNL     1       1.100   2.095  19.076  0.00  0.00    +0.000 A 
ATOM     33  C   UNL     1       2.168   1.416  18.495  0.00  0.00    +0.000 A 
ATOM     34  C   UNL     1       3.045   2.097  17.658  0.00  0.00    +0.000 A 
ATOM     35  C   UNL     1       2.882   3.466  17.443  0.00  0.00    +0.000 A 
ENDBRANCH  29  30
ENDBRANCH   1  29
TORSDOF 9
ENDMDL
MODEL 5
REMARK VINA RESULT:      -7.9      1.753      2.362
REMARK  Name = 
REMARK  12 active torsions:
REMARK  status: ('A' for Active; 'I' for Inactive)
REMARK    1  A    between atoms: C_1  and  O_2
REMARK    2  A    between atoms: O_2  and  C_3
REMARK    3  A    between atoms: C_9  and  C_10
REMARK    4  A    between atoms: C_11  and  C_12
REMARK    5  A    between atoms: C_12  and  C_13
REMARK    6  A    between atoms: C_12  and  C_14
REMARK    7  A    between atoms: C_12  and  N_21
REMARK    8  A    between atoms: C_14  and  C_15
REMARK    9  A    between atoms: C_24  and  C_25
REMARK   10  A    between atoms: C_25  and  O_27
REMARK   11  A    between atoms: C_32  and  O_33
REMARK   12  A    between atoms: O_33  and  C_34
REMARK                            x       y       z     vdW  Elec       q    Type
REMARK                         _______ _______ _______ _____ _____    ______ ____
ROOT
ATOM      1  C   UNL     1       2.913   6.692  18.413  0.00  0.00    +0.000 C 
ATOM      2  C   UNL     1       2.185   6.151  17.148  0.00  0.00    +0.000 C 
ENDROOT
BRANCH   1   3
ATOM      3  N   UNL     1       3.049   5.638  19.485  0.00  0.00    +0.000 NA
ATOM      4  C   UNL     1       1.781   5.371  20.190  0.00  0.00    +0.000 C 
ATOM      5  C   UNL     1       1.874   4.272  21.255  0.00  0.00    +0.000 C 
ATOM      6  C   UNL     1       2.429   2.972  20.677  0.00  0.00    +0.000 C 
ATOM      7  C   UNL     1       3.782   3.286  20.040  0.00  0.00    +0.000 C 
ATOM      8  C   UNL     1       3.690   4.405  18.996  0.00  0.00    +0.000 C 
BRANCH   6   9
ATOM      9  C   UNL     1       1.476   2.307  19.685  0.00  0.00    +0.000 C 
ATOM     10  O   UNL     1       0.285   2.566  19.573  0.00  0.00    +0.000 OA
BRANCH   9  11
ATOM     11  O   UNL     1       2.083   1.417  18.877  0.00  0.00    +0.000 OA
ATOM     12  H   UNL     1       1.986   1.592  17.924  0.00  0.00    +0.000 HD
ENDBRANCH   9  11
ENDBRANCH   6   9
ENDBRANCH   1   3
BRANCH   1  14
ATOM     13  C   UNL     1       1.386   8.857  19.392  0.00  0.00    +0.000 C 
ATOM     14  C   UNL     1       2.091   7.857  18.940  0.00  0.00    +0.000 C 
BRANCH  13  21
ATOM     15  C   UNL     1      -2.966  11.210  18.040  0.00  0.00    +0.000 A 
ATOM     16  C   UNL     1      -2.420  11.851  19.164  0.00  0.00    +0.000 A 
ATOM     17  C   UNL     1      -1.232  11.435  19.756  0.00  0.00    +0.000 A 
ATOM     18  N   UNL     1      -0.767  12.065  20.844  0.00  0.00    +0.000 NA
ATOM     19  C   UNL     1       0.380  11.612  21.376  0.00  0.00    +0.000 A 
ATOM     20  N   UNL     1       1.102  10.580  20.932  0.00  0.00    +0.000 NA
ATOM     21  C   UNL     1       0.610   9.976  19.836  0.00  0.00    +0.000 A 
ATOM     22  C   UNL     1      -0.561  10.355  19.178  0.00  0.00    +0.000 A 
ATOM     23  C   UNL     1      -1.073   9.732  18.017  0.00  0.00    +0.000 A 
ATOM     24  C   UNL     1      -2.278  10.144  17.450  0.00  0.00    +0.000 A 
BRANCH  15  26
ATOM     25  C   UNL     1      -5.333  11.182  18.164  0.00  0.00    +0.000 C 
ATOM     26  O   UNL     1      -4.151  11.751  17.607  0.00  0.00    +0.000 OA
ENDBRANCH  15  26
BRANCH  24  27
ATOM     27  O   UNL     1      -2.761   9.594  16.295  0.00  0.00    +0.000 OA
ATOM     28  C   UNL     1      -2.737  10.439  15.150  0.00  0.00    +0.000 C 
ENDBRANCH  24  27
ENDBRANCH  13  21
ENDBRANCH   1  14
BRANCH   1  29
ATOM     29  C   UNL     1       4.285   7.298  17.915  0.00  0.00    +0.000 C 
BRANCH  29  30
ATOM     30  C   UNL     1       5.288   6.462  17.135  0.00  0.00    +0.000 A 
ATOM     31  C   UNL     1       5.154   6.131  15.781  0.00  0.00    +0.000 A 
ATOM     32  C   UNL     1       6.030   5.224  15.177  0.00  0.00    +0.000 A 
ATOM     33  C   UNL     1       7.080   4.670  15.905  0.00  0.00    +0.000 A 
ATOM     34  C   UNL     1       7.273   5.045  17.230  0.00  0.00    +0.000 A 
ATOM     35  C   UNL     1       6.386   5.934  17.839  0.00  0.00    +0.000 A 
ENDBRANCH  29  30
ENDBRANCH   1  29
TORSDOF 9
ENDMDL
MODEL 6
REMARK VINA RESULT:      -7.8      1.841      2.344
REMARK  Name = 
REMARK  12 active torsions:
REMARK  status: ('A' for Active; 'I' for Inactive)
REMARK    1  A    between atoms: C_1  and  O_2
REMARK    2  A    between atoms: O_2  and  C_3
REMARK    3  A    between atoms: C_9  and  C_10
REMARK    4  A    between atoms: C_11  and  C_12
REMARK    5  A    between atoms: C_12  and  C_13
REMARK    6  A    between atoms: C_12  and  C_14
REMARK    7  A    between atoms: C_12  and  N_21
REMARK    8  A    between atoms: C_14  and  C_15
REMARK    9  A    between atoms: C_24  and  C_25
REMARK   10  A    between atoms: C_25  and  O_27
REMARK   11  A    between atoms: C_32  and  O_33
REMARK   12  A    between atoms: O_33  and  C_34
REMARK                            x       y       z     vdW  Elec       q    Type
REMARK                         _______ _______ _______ _____ _____    ______ ____
ROOT
ATOM      1  C   UNL     1       2.820   6.660  18.772  0.00  0.00    +0.000 C 
ATOM      2  C   UNL     1       1.913   6.364  17.542  0.00  0.00    +0.000 C 
ENDROOT
BRANCH   1   3
ATOM      3  N   UNL     1       3.106   5.416  19.579  0.00  0.00    +0.000 NA
ATOM      4  C   UNL     1       1.963   4.997  20.412  0.00  0.00    +0.000 C 
ATOM      5  C   UNL     1       2.205   3.711  21.209  0.00  0.00    +0.000 C 
ATOM      6  C   UNL     1       2.636   2.558  20.305  0.00  0.00    +0.000 C 
ATOM      7  C   UNL     1       3.876   3.011  19.533  0.00  0.00    +0.000 C 
ATOM      8  C   UNL     1       3.638   4.313  18.759  0.00  0.00    +0.000 C 
BRANCH   6   9
ATOM      9  C   UNL     1       1.525   2.089  19.367  0.00  0.00    +0.000 C 
ATOM     10  O   UNL     1       0.330   2.300  19.532  0.00  0.00    +0.000 OA
BRANCH   9  11
ATOM     11  O   UNL     1       1.983   1.448  18.275  0.00  0.00    +0.000 OA
ATOM     12  H   UNL     1       2.889   1.684  18.008  0.00  0.00    +0.000 HD
ENDBRANCH   9  11
ENDBRANCH   6   9
ENDBRANCH   1   3
BRANCH   1  14
ATOM     13  C   UNL     1       1.459   8.544  20.377  0.00  0.00    +0.000 C 
ATOM     14  C   UNL     1       2.087   7.674  19.636  0.00  0.00    +0.000 C 
BRANCH  13  21
ATOM     15  C   UNL     1       0.131  13.495  20.222  0.00  0.00    +0.000 A 
ATOM     16  C   UNL     1      -0.289  12.939  21.442  0.00  0.00    +0.000 A 
ATOM     17  C   UNL     1      -0.061  11.606  21.771  0.00  0.00    +0.000 A 
ATOM     18  N   UNL     1      -0.505  11.117  22.937  0.00  0.00    +0.000 NA
ATOM     19  C   UNL     1      -0.264   9.821  23.194  0.00  0.00    +0.000 A 
ATOM     20  N   UNL     1       0.369   8.962  22.392  0.00  0.00    +0.000 NA
ATOM     21  C   UNL     1       0.806   9.488  21.234  0.00  0.00    +0.000 A 
ATOM     22  C   UNL     1       0.634  10.819  20.851  0.00  0.00    +0.000 A 
ATOM     23  C   UNL     1       1.106  11.379  19.641  0.00  0.00    +0.000 A 
ATOM     24  C   UNL     1       0.848  12.709  19.315  0.00  0.00    +0.000 A 
BRANCH  15  26
ATOM     25  C   UNL     1       0.631  15.748  20.765  0.00  0.00    +0.000 C 
ATOM     26  O   UNL     1      -0.197  14.819  20.069  0.00  0.00    +0.000 OA
ENDBRANCH  15  26
BRANCH  24  27
ATOM     27  O   UNL     1       1.345  13.285  18.178  0.00  0.00    +0.000 OA
ATOM     28  C   UNL     1       2.695  13.730  18.249  0.00  0.00    +0.000 C 
ENDBRANCH  24  27
ENDBRANCH  13  21
ENDBRANCH   1  14
BRANCH   1  29
ATOM     29  C   UNL     1       4.107   7.388  18.216  0.00  0.00    +0.000 C 
BRANCH  29  30
ATOM     30  C   UNL     1       5.142   6.648  17.382  0.00  0.00    +0.000 A 
ATOM     31  C   UNL     1       4.977   6.318  16.032  0.00  0.00    +0.000 A 
ATOM     32  C   UNL     1       5.899   5.495  15.379  0.00  0.00    +0.000 A 
ATOM     33  C   UNL     1       7.025   5.028  16.053  0.00  0.00    +0.000 A 
ATOM     34  C   UNL     1       7.244   5.407  17.373  0.00  0.00    +0.000 A 
ATOM     35  C   UNL     1       6.312   6.211  18.031  0.00  0.00    +0.000 A 
ENDBRANCH  29  30
ENDBRANCH   1  29
TORSDOF 9
ENDMDL
MODEL 7
REMARK VINA RESULT:      -7.8      1.001      1.557
REMARK  Name = 
REMARK  12 active torsions:
REMARK  status: ('A' for Active; 'I' for Inactive)
REMARK    1  A    between atoms: C_1  and  O_2
REMARK    2  A    between atoms: O_2  and  C_3
REMARK    3  A    between atoms: C_9  and  C_10
REMARK    4  A    between atoms: C_11  and  C_12
REMARK    5  A    between atoms: C_12  and  C_13
REMARK    6  A    between atoms: C_12  and  C_14
REMARK    7  A    between atoms: C_12  and  N_21
REMARK    8  A    between atoms: C_14  and  C_15
REMARK    9  A    between atoms: C_24  and  C_25
REMARK   10  A    between atoms: C_25  and  O_27
REMARK   11  A    between atoms: C_32  and  O_33
REMARK   12  A    between atoms: O_33  and  C_34
REMARK                            x       y       z     vdW  Elec       q    Type
REMARK                         _______ _______ _______ _____ _____    ______ ____
ROOT
ATOM      1  C   UNL     1       2.828   6.593  18.777  0.00  0.00    +0.000 C 
ATOM      2  C   UNL     1       1.824   6.218  17.648  0.00  0.00    +0.000 C 
ENDROOT
BRANCH   1   3
ATOM      3  N   UNL     1       3.313   5.379  19.532  0.00  0.00    +0.000 NA
ATOM      4  C   UNL     1       2.278   4.797  20.407  0.00  0.00    +0.000 C 
ATOM      5  C   UNL     1       2.723   3.535  21.154  0.00  0.00    +0.000 C 
ATOM      6  C   UNL     1       3.252   2.469  20.196  0.00  0.00    +0.000 C 
ATOM      7  C   UNL     1       4.382   3.095  19.379  0.00  0.00    +0.000 C 
ATOM      8  C   UNL     1       3.939   4.373  18.656  0.00  0.00    +0.000 C 
BRANCH   6   9
ATOM      9  C   UNL     1       2.162   1.881  19.300  0.00  0.00    +0.000 C 
ATOM     10  O   UNL     1       0.958   1.993  19.491  0.00  0.00    +0.000 OA
BRANCH   9  11
ATOM     11  O   UNL     1       2.648   1.251  18.214  0.00  0.00    +0.000 OA
ATOM     12  H   UNL     1       3.543   1.524  17.944  0.00  0.00    +0.000 HD
ENDBRANCH   9  11
ENDBRANCH   6   9
ENDBRANCH   1   3
BRANCH   1  14
ATOM     13  C   UNL     1       1.484   8.340  20.542  0.00  0.00    +0.000 C 
ATOM     14  C   UNL     1       2.105   7.534  19.727  0.00  0.00    +0.000 C 
BRANCH  13  21
ATOM     15  C   UNL     1      -1.849  12.220  20.151  0.00  0.00    +0.000 A 
ATOM     16  C   UNL     1      -1.624  11.933  21.508  0.00  0.00    +0.000 A 
ATOM     17  C   UNL     1      -0.758  10.927  21.925  0.00  0.00    +0.000 A 
ATOM     18  N   UNL     1      -0.599  10.676  23.232  0.00  0.00    +0.000 NA
ATOM     19  C   UNL     1       0.242   9.687  23.572  0.00  0.00    +0.000 A 
ATOM     20  N   UNL     1       0.933   8.914  22.730  0.00  0.00    +0.000 NA
ATOM     21  C   UNL     1       0.754   9.198  21.428  0.00  0.00    +0.000 A 
ATOM     22  C   UNL     1      -0.078  10.206  20.942  0.00  0.00    +0.000 A 
ATOM     23  C   UNL     1      -0.257  10.517  19.573  0.00  0.00    +0.000 A 
ATOM     24  C   UNL     1      -1.147  11.511  19.171  0.00  0.00    +0.000 A 
BRANCH  15  26
ATOM     25  C   UNL     1      -4.017  13.085  20.566  0.00  0.00    +0.000 C 
ATOM     26  O   UNL     1      -2.748  13.234  19.935  0.00  0.00    +0.000 OA
ENDBRANCH  15  26
BRANCH  24  27
ATOM     27  O   UNL     1      -1.291  11.866  17.858  0.00  0.00    +0.000 OA
ATOM     28  C   UNL     1      -2.248  11.118  17.116  0.00  0.00    +0.000 C 
ENDBRANCH  24  27
ENDBRANCH  13  21
ENDBRANCH   1  14
BRANCH   1  29
ATOM     29  C   UNL     1       3.975   7.438  18.093  0.00  0.00    +0.000 C 
BRANCH  29  30
ATOM     30  C   UNL     1       5.068   6.775  17.268  0.00  0.00    +0.000 A 
ATOM     31  C   UNL     1       4.898   6.320  15.955  0.00  0.00    +0.000 A 
ATOM     32  C   UNL     1       5.897   5.575  15.322  0.00  0.00    +0.000 A 
ATOM     33  C   UNL     1       7.099   5.314  15.974  0.00  0.00    +0.000 A 
ATOM     34  C   UNL     1       7.315   5.822  17.250  0.00  0.00    +0.000 A 
ATOM     35  C   UNL     1       6.309   6.548  17.891  0.00  0.00    +0.000 A 
ENDBRANCH  29  30
ENDBRANCH   1  29
TORSDOF 9
ENDMDL
MODEL 8
REMARK VINA RESULT:      -7.7      1.806      2.340
REMARK  Name = 
REMARK  12 active torsions:
REMARK  status: ('A' for Active; 'I' for Inactive)
REMARK    1  A    between atoms: C_1  and  O_2
REMARK    2  A    between atoms: O_2  and  C_3
REMARK    3  A    between atoms: C_9  and  C_10
REMARK    4  A    between atoms: C_11  and  C_12
REMARK    5  A    between atoms: C_12  and  C_13
REMARK    6  A    between atoms: C_12  and  C_14
REMARK    7  A    between atoms: C_12  and  N_21
REMARK    8  A    between atoms: C_14  and  C_15
REMARK    9  A    between atoms: C_24  and  C_25
REMARK   10  A    between atoms: C_25  and  O_27
REMARK   11  A    between atoms: C_32  and  O_33
REMARK   12  A    between atoms: O_33  and  C_34
REMARK                            x       y       z     vdW  Elec       q    Type
REMARK                         _______ _______ _______ _____ _____    ______ ____
ROOT
ATOM      1  C   UNL     1       2.791   6.763  18.268  0.00  0.00    +0.000 C 
ATOM      2  C   UNL     1       1.921   6.094  17.165  0.00  0.00    +0.000 C 
ENDROOT
BRANCH   1   3
ATOM      3  N   UNL     1       3.085   5.820  19.409  0.00  0.00    +0.000 NA
ATOM      4  C   UNL     1       1.932   5.632  20.309  0.00  0.00    +0.000 C 
ATOM      5  C   UNL     1       2.182   4.643  21.454  0.00  0.00    +0.000 C 
ATOM      6  C   UNL     1       2.661   3.289  20.936  0.00  0.00    +0.000 C 
ATOM      7  C   UNL     1       3.909   3.530  20.086  0.00  0.00    +0.000 C 
ATOM      8  C   UNL     1       3.662   4.540  18.960  0.00  0.00    +0.000 C 
BRANCH   6   9
ATOM      9  C   UNL     1       1.584   2.534  20.159  0.00  0.00    +0.000 C 
ATOM     10  O   UNL     1       1.797   1.663  19.326  0.00  0.00    +0.000 OA
BRANCH   9  11
ATOM     11  O   UNL     1       0.331   2.877  20.514  0.00  0.00    +0.000 OA
ATOM     12  H   UNL     1       0.225   3.150  21.442  0.00  0.00    +0.000 HD
ENDBRANCH   9  11
ENDBRANCH   6   9
ENDBRANCH   1   3
BRANCH   1  14
ATOM     13  C   UNL     1       1.351   8.996  19.224  0.00  0.00    +0.000 C 
ATOM     14  C   UNL     1       2.016   7.966  18.783  0.00  0.00    +0.000 C 
BRANCH  13  21
ATOM     15  C   UNL     1      -3.108  11.282  18.130  0.00  0.00    +0.000 A 
ATOM     16  C   UNL     1      -2.517  11.919  19.235  0.00  0.00    +0.000 A 
ATOM     17  C   UNL     1      -1.292  11.518  19.758  0.00  0.00    +0.000 A 
ATOM     18  N   UNL     1      -0.783  12.142  20.830  0.00  0.00    +0.000 NA
ATOM     19  C   UNL     1       0.397  11.704  21.296  0.00  0.00    +0.000 A 
ATOM     20  N   UNL     1       1.115  10.693  20.801  0.00  0.00    +0.000 NA
ATOM     21  C   UNL     1       0.578  10.094  19.723  0.00  0.00    +0.000 A 
ATOM     22  C   UNL     1      -0.632  10.460  19.132  0.00  0.00    +0.000 A 
ATOM     23  C   UNL     1      -1.192   9.842  17.989  0.00  0.00    +0.000 A 
ATOM     24  C   UNL     1      -2.432  10.238  17.491  0.00  0.00    +0.000 A 
BRANCH  15  26
ATOM     25  C   UNL     1      -5.434  11.414  18.570  0.00  0.00    +0.000 C 
ATOM     26  O   UNL     1      -4.324  11.806  17.767  0.00  0.00    +0.000 OA
ENDBRANCH  15  26
BRANCH  24  27
ATOM     27  O   UNL     1      -2.963   9.694  16.355  0.00  0.00    +0.000 OA
ATOM     28  C   UNL     1      -2.779  10.451  15.163  0.00  0.00    +0.000 C 
ENDBRANCH  24  27
ENDBRANCH  13  21
ENDBRANCH   1  14
BRANCH   1  29
ATOM     29  C   UNL     1       4.075   7.331  17.544  0.00  0.00    +0.000 C 
BRANCH  29  30
ATOM     30  C   UNL     1       5.197   6.416  17.077  0.00  0.00    +0.000 A 
ATOM     31  C   UNL     1       6.338   6.120  17.833  0.00  0.00    +0.000 A 
ATOM     32  C   UNL     1       7.401   5.404  17.272  0.00  0.00    +0.000 A 
ATOM     33  C   UNL     1       7.318   4.934  15.964  0.00  0.00    +0.000 A 
ATOM     34  C   UNL     1       6.162   5.155  15.224  0.00  0.00    +0.000 A 
ATOM     35  C   UNL     1       5.110   5.887  15.776  0.00  0.00    +0.000 A 
ENDBRANCH  29  30
ENDBRANCH   1  29
TORSDOF 9
ENDMDL
MODEL 9
REMARK VINA RESULT:      -7.6      0.720      1.222
REMARK  Name = 
REMARK  12 active torsions:
REMARK  status: ('A' for Active; 'I' for Inactive)
REMARK    1  A    between atoms: C_1  and  O_2
REMARK    2  A    between atoms: O_2  and  C_3
REMARK    3  A    between atoms: C_9  and  C_10
REMARK    4  A    between atoms: C_11  and  C_12
REMARK    5  A    between atoms: C_12  and  C_13
REMARK    6  A    between atoms: C_12  and  C_14
REMARK    7  A    between atoms: C_12  and  N_21
REMARK    8  A    between atoms: C_14  and  C_15
REMARK    9  A    between atoms: C_24  and  C_25
REMARK   10  A    between atoms: C_25  and  O_27
REMARK   11  A    between atoms: C_32  and  O_33
REMARK   12  A    between atoms: O_33  and  C_34
REMARK                            x       y       z     vdW  Elec       q    Type
REMARK                         _______ _______ _______ _____ _____    ______ ____
ROOT
ATOM      1  C   UNL     1       2.718   6.549  18.650  0.00  0.00    +0.000 C 
ATOM      2  C   UNL     1       2.597   7.153  17.221  0.00  0.00    +0.000 C 
ENDROOT
BRANCH   1   3
ATOM      3  N   UNL     1       2.102   5.173  18.739  0.00  0.00    +0.000 NA
ATOM      4  C   UNL     1       2.975   4.118  18.192  0.00  0.00    +0.000 C 
ATOM      5  C   UNL     1       2.398   2.702  18.308  0.00  0.00    +0.000 C 
ATOM      6  C   UNL     1       2.017   2.364  19.748  0.00  0.00    +0.000 C 
ATOM      7  C   UNL     1       1.042   3.436  20.235  0.00  0.00    +0.000 C 
ATOM      8  C   UNL     1       1.612   4.852  20.091  0.00  0.00    +0.000 C 
BRANCH   6   9
ATOM      9  C   UNL     1       3.229   2.238  20.670  0.00  0.00    +0.000 C 
ATOM     10  O   UNL     1       4.383   2.076  20.297  0.00  0.00    +0.000 OA
BRANCH   9  11
ATOM     11  O   UNL     1       2.923   2.379  21.974  0.00  0.00    +0.000 OA
ATOM     12  H   UNL     1       3.174   3.233  22.367  0.00  0.00    +0.000 HD
ENDBRANCH   9  11
ENDBRANCH   6   9
ENDBRANCH   1   3
BRANCH   1  14
ATOM     13  C   UNL     1       1.384   8.304  20.415  0.00  0.00    +0.000 C 
ATOM     14  C   UNL     1       2.000   7.494  19.600  0.00  0.00    +0.000 C 
BRANCH  13  21
ATOM     15  C   UNL     1      -1.799  12.323  20.272  0.00  0.00    +0.000 A 
ATOM     16  C   UNL     1      -1.531  11.989  21.609  0.00  0.00    +0.000 A 
ATOM     17  C   UNL     1      -0.691  10.938  21.962  0.00  0.00    +0.000 A 
ATOM     18  N   UNL     1      -0.488  10.643  23.253  0.00  0.00    +0.000 NA
ATOM     19  C   UNL     1       0.324   9.611  23.530  0.00  0.00    +0.000 A 
ATOM     20  N   UNL     1       0.947   8.836  22.640  0.00  0.00    +0.000 NA
ATOM     21  C   UNL     1       0.727   9.164  21.354  0.00  0.00    +0.000 A 
ATOM     22  C   UNL     1      -0.082  10.219  20.931  0.00  0.00    +0.000 A 
ATOM     23  C   UNL     1      -0.304  10.576  19.581  0.00  0.00    +0.000 A 
ATOM     24  C   UNL     1      -1.168  11.616  19.243  0.00  0.00    +0.000 A 
BRANCH  15  26
ATOM     25  C   UNL     1      -2.923  14.142  21.297  0.00  0.00    +0.000 C 
ATOM     26  O   UNL     1      -2.663  13.379  20.121  0.00  0.00    +0.000 OA
ENDBRANCH  15  26
BRANCH  24  27
ATOM     27  O   UNL     1      -1.351  12.014  17.948  0.00  0.00    +0.000 OA
ATOM     28  C   UNL     1      -2.281  11.248  17.190  0.00  0.00    +0.000 C 
ENDBRANCH  24  27
ENDBRANCH  13  21
ENDBRANCH   1  14
BRANCH   1  29
ATOM     29  C   UNL     1       4.250   6.603  19.032  0.00  0.00    +0.000 C 
BRANCH  29  30
ATOM     30  C   UNL     1       5.323   6.060  18.101  0.00  0.00    +0.000 A 
ATOM     31  C   UNL     1       5.283   6.167  16.706  0.00  0.00    +0.000 A 
ATOM     32  C   UNL     1       6.220   5.500  15.910  0.00  0.00    +0.000 A 
ATOM     33  C   UNL     1       7.237   4.754  16.500  0.00  0.00    +0.000 A 
ATOM     34  C   UNL     1       7.336   4.697  17.886  0.00  0.00    +0.000 A 
ATOM     35  C   UNL     1       6.388   5.346  18.679  0.00  0.00    +0.000 A 
ENDBRANCH  29  30
ENDBRANCH   1  29
TORSDOF 9
ENDMDL
