MODEL 1
REMARK VINA RESULT:      -8.5      0.000      0.000
REMARK  Name = 
REMARK  2 active torsions:
REMARK  status: ('A' for Active; 'I' for Inactive)
REMARK    1  A    between atoms: C_2  and  C_3
REMARK    2  A    between atoms: C_15  and  C_16
REMARK                            x       y       z     vdW  Elec       q    Type
REMARK                         _______ _______ _______ _____ _____    ______ ____
ROOT
ATOM      1  O   UNL     1       3.566   3.556  19.161  0.00  0.00    +0.000 OA
ATOM      2  C   UNL     1       3.849   4.530  18.466  0.00  0.00    +0.000 C 
ATOM      3  N   UNL     1       3.162   5.777  18.600  0.00  0.00    +0.000 N 
ATOM      4  C   UNL     1       3.481   6.937  17.772  0.00  0.00    +0.000 C 
ATOM      5  C   UNL     1       2.537   8.111  17.818  0.00  0.00    +0.000 C 
ATOM      6  N   UNL     1       1.924   8.254  19.100  0.00  0.00    +0.000 N 
ATOM      7  N   UNL     1       1.253   9.376  19.364  0.00  0.00    +0.000 NA
ATOM      8  C   UNL     1       0.758   9.183  20.594  0.00  0.00    +0.000 A 
ATOM      9  C   UNL     1       1.143   7.896  21.080  0.00  0.00    +0.000 A 
ATOM     10  C   UNL     1       1.897   7.316  20.076  0.00  0.00    +0.000 A 
ATOM     11  C   UNL     1       2.614   6.015  19.951  0.00  0.00    +0.000 C 
ENDROOT
BRANCH   2  12
ATOM     12  C   UNL     1       5.023   4.443  17.534  0.00  0.00    +0.000 A 
ATOM     13  C   UNL     1       4.862   3.957  16.228  0.00  0.00    +0.000 A 
ATOM     14  C   UNL     1       5.813   4.217  15.240  0.00  0.00    +0.000 A 
ATOM     15  C   UNL     1       7.023   4.803  15.587  0.00  0.00    +0.000 A 
ATOM     16  C   UNL     1       7.282   5.102  16.923  0.00  0.00    +0.000 A 
ATOM     17  C   UNL     1       6.283   4.943  17.898  0.00  0.00    +0.000 A 
ATOM     18 CL   UNL     1       6.696   5.423  19.506  0.00  0.00    +0.000 Cl
ENDBRANCH   2  12
BRANCH   8  19
ATOM     19  C   UNL     1      -0.031  10.226  21.257  0.00  0.00    +0.000 A 
ATOM     20  C   UNL     1      -0.433  10.069  22.585  0.00  0.00    +0.000 A 
ATOM     21  C   UNL     1      -1.204  11.061  23.183  0.00  0.00    +0.000 A 
ATOM     22  C   UNL     1      -1.547  12.184  22.442  0.00  0.00    +0.000 A 
ATOM     23  C   UNL     1      -1.098  12.268  21.134  0.00  0.00    +0.000 A 
ATOM     24  N   UNL     1      -0.348  11.322  20.522  0.00  0.00    +0.000 NA
ENDBRANCH   8  19
TORSDOF 2
ENDMDL
MODEL 2
REMARK VINA RESULT:      -7.6      1.097      1.422
REMARK  Name = 
REMARK  2 active torsions:
REMARK  status: ('A' for Active; 'I' for Inactive)
REMARK    1  A    between atoms: C_2  and  C_3
REMARK    2  A    between atoms: C_15  and  C_16
REMARK                            x       y       z     vdW  Elec       q    Type
REMARK                         _______ _______ _______ _____ _____    ______ ____
ROOT
ATOM      1  O   UNL     1       3.576   3.118  17.739  0.00  0.00    +0.000 OA
ATOM      2  C   UNL     1       3.966   4.202  17.311  0.00  0.00    +0.000 C 
ATOM      3  N   UNL     1       3.374   5.436  17.728  0.00  0.00    +0.000 N 
ATOM      4  C   UNL     1       3.822   6.729  17.217  0.00  0.00    +0.000 C 
ATOM      5  C   UNL     1       2.972   7.935  17.523  0.00  0.00    +0.000 C 
ATOM      6  N   UNL     1       2.314   7.818  18.785  0.00  0.00    +0.000 N 
ATOM      7  N   UNL     1       1.721   8.897  19.297  0.00  0.00    +0.000 NA
ATOM      8  C   UNL     1       1.156   8.457  20.430  0.00  0.00    +0.000 A 
ATOM      9  C   UNL     1       1.415   7.062  20.597  0.00  0.00    +0.000 A 
ATOM     10  C   UNL     1       2.167   6.678  19.501  0.00  0.00    +0.000 A 
ATOM     11  C   UNL     1       2.785   5.388  19.081  0.00  0.00    +0.000 C 
ENDROOT
BRANCH   2  12
ATOM     12  C   UNL     1       5.173   4.240  16.417  0.00  0.00    +0.000 A 
ATOM     13  C   UNL     1       5.056   3.944  15.051  0.00  0.00    +0.000 A 
ATOM     14  C   UNL     1       6.042   4.334  14.142  0.00  0.00    +0.000 A 
ATOM     15  C   UNL     1       7.239   4.858  14.610  0.00  0.00    +0.000 A 
ATOM     16  C   UNL     1       7.453   4.964  15.983  0.00  0.00    +0.000 A 
ATOM     17  C   UNL     1       6.419   4.676  16.891  0.00  0.00    +0.000 A 
ATOM     18 CL   UNL     1       6.778   4.922  18.564  0.00  0.00    +0.000 Cl
ENDBRANCH   2  12
BRANCH   8  19
ATOM     19  C   UNL     1       0.421   9.375  21.307  0.00  0.00    +0.000 A 
ATOM     20  C   UNL     1      -0.208  10.503  20.778  0.00  0.00    +0.000 A 
ATOM     21  C   UNL     1      -0.877  11.373  21.634  0.00  0.00    +0.000 A 
ATOM     22  C   UNL     1      -0.903  11.089  22.992  0.00  0.00    +0.000 A 
ATOM     23  C   UNL     1      -0.263   9.943  23.435  0.00  0.00    +0.000 A 
ATOM     24  N   UNL     1       0.395   9.077  22.631  0.00  0.00    +0.000 NA
ENDBRANCH   8  19
TORSDOF 2
ENDMDL
MODEL 3
REMARK VINA RESULT:      -7.6      2.115      3.560
REMARK  Name = 
REMARK  2 active torsions:
REMARK  status: ('A' for Active; 'I' for Inactive)
REMARK    1  A    between atoms: C_2  and  C_3
REMARK    2  A    between atoms: C_15  and  C_16
REMARK                            x       y       z     vdW  Elec       q    Type
REMARK                         _______ _______ _______ _____ _____    ______ ____
ROOT
ATOM      1  O   UNL     1       2.590   8.562  17.027  0.00  0.00    +0.000 OA
ATOM      2  C   UNL     1       2.440   7.906  18.056  0.00  0.00    +0.000 C 
ATOM      3  N   UNL     1       1.916   8.488  19.253  0.00  0.00    +0.000 N 
ATOM      4  C   UNL     1       1.746   7.722  20.485  0.00  0.00    +0.000 C 
ATOM      5  C   UNL     1       1.429   8.484  21.745  0.00  0.00    +0.000 C 
ATOM      6  N   UNL     1       0.656   9.655  21.482  0.00  0.00    +0.000 N 
ATOM      7  N   UNL     1       0.101  10.298  22.510  0.00  0.00    +0.000 NA
ATOM      8  C   UNL     1      -0.493  11.363  21.953  0.00  0.00    +0.000 A 
ATOM      9  C   UNL     1      -0.279  11.358  20.541  0.00  0.00    +0.000 A 
ATOM     10  C   UNL     1       0.480  10.234  20.270  0.00  0.00    +0.000 A 
ATOM     11  C   UNL     1       1.014   9.633  19.015  0.00  0.00    +0.000 C 
ENDROOT
BRANCH   2  12
ATOM     12  C   UNL     1       2.705   6.428  18.022  0.00  0.00    +0.000 A 
ATOM     13  C   UNL     1       1.662   5.513  18.225  0.00  0.00    +0.000 A 
ATOM     14  C   UNL     1       1.785   4.180  17.827  0.00  0.00    +0.000 A 
ATOM     15  C   UNL     1       3.015   3.703  17.394  0.00  0.00    +0.000 A 
ATOM     16  C   UNL     1       4.117   4.555  17.385  0.00  0.00    +0.000 A 
ATOM     17  C   UNL     1       3.968   5.921  17.679  0.00  0.00    +0.000 A 
ATOM     18 CL   UNL     1       5.392   6.892  17.557  0.00  0.00    +0.000 Cl
ENDBRANCH   2  12
BRANCH   8  19
ATOM     19  C   UNL     1      -1.247  12.315  22.774  0.00  0.00    +0.000 A 
ATOM     20  C   UNL     1      -2.590  12.077  23.076  0.00  0.00    +0.000 A 
ATOM     21  C   UNL     1      -3.292  13.009  23.834  0.00  0.00    +0.000 A 
ATOM     22  C   UNL     1      -2.633  14.148  24.275  0.00  0.00    +0.000 A 
ATOM     23  C   UNL     1      -1.297  14.304  23.941  0.00  0.00    +0.000 A 
ATOM     24  N   UNL     1      -0.586  13.419  23.206  0.00  0.00    +0.000 NA
ENDBRANCH   8  19
TORSDOF 2
ENDMDL
MODEL 4
REMARK VINA RESULT:      -7.5      1.583      1.988
REMARK  Name = 
REMARK  2 active torsions:
REMARK  status: ('A' for Active; 'I' for Inactive)
REMARK    1  A    between atoms: C_2  and  C_3
REMARK    2  A    between atoms: C_15  and  C_16
REMARK                            x       y       z     vdW  Elec       q    Type
REMARK                         _______ _______ _______ _____ _____    ______ ____
ROOT
ATOM      1  O   UNL     1       3.004   4.590  19.902  0.00  0.00    +0.000 OA
ATOM      2  C   UNL     1       3.119   5.482  19.065  0.00  0.00    +0.000 C 
ATOM      3  N   UNL     1       2.437   6.733  19.195  0.00  0.00    +0.000 N 
ATOM      4  C   UNL     1       2.557   7.796  18.199  0.00  0.00    +0.000 C 
ATOM      5  C   UNL     1       1.608   8.961  18.302  0.00  0.00    +0.000 C 
ATOM      6  N   UNL     1       1.252   9.243  19.655  0.00  0.00    +0.000 N 
ATOM      7  N   UNL     1       0.613  10.383  19.923  0.00  0.00    +0.000 NA
ATOM      8  C   UNL     1       0.372  10.325  21.240  0.00  0.00    +0.000 A 
ATOM      9  C   UNL     1       0.879   9.103  21.778  0.00  0.00    +0.000 A 
ATOM     10  C   UNL     1       1.439   8.419  20.714  0.00  0.00    +0.000 A 
ATOM     11  C   UNL     1       2.155   7.117  20.592  0.00  0.00    +0.000 C 
ENDROOT
BRANCH   2  12
ATOM     12  C   UNL     1       4.093   5.299  17.935  0.00  0.00    +0.000 A 
ATOM     13  C   UNL     1       5.219   6.128  17.824  0.00  0.00    +0.000 A 
ATOM     14  C   UNL     1       6.315   5.753  17.044  0.00  0.00    +0.000 A 
ATOM     15  C   UNL     1       6.224   4.639  16.221  0.00  0.00    +0.000 A 
ATOM     16  C   UNL     1       5.030   3.923  16.164  0.00  0.00    +0.000 A 
ATOM     17  C   UNL     1       3.968   4.234  17.030  0.00  0.00    +0.000 A 
ATOM     18 CL   UNL     1       2.570   3.224  16.922  0.00  0.00    +0.000 Cl
ENDBRANCH   2  12
BRANCH   8  19
ATOM     19  C   UNL     1      -0.303  11.431  21.927  0.00  0.00    +0.000 A 
ATOM     20  C   UNL     1      -1.431  11.189  22.714  0.00  0.00    +0.000 A 
ATOM     21  C   UNL     1      -2.069  12.259  23.334  0.00  0.00    +0.000 A 
ATOM     22  C   UNL     1      -1.560  13.538  23.158  0.00  0.00    +0.000 A 
ATOM     23  C   UNL     1      -0.430  13.691  22.371  0.00  0.00    +0.000 A 
ATOM     24  N   UNL     1       0.214  12.674  21.754  0.00  0.00    +0.000 NA
ENDBRANCH   8  19
TORSDOF 2
ENDMDL
MODEL 5
REMARK VINA RESULT:      -7.3      3.474      8.490
REMARK  Name = 
REMARK  2 active torsions:
REMARK  status: ('A' for Active; 'I' for Inactive)
REMARK    1  A    between atoms: C_2  and  C_3
REMARK    2  A    between atoms: C_15  and  C_16
REMARK                            x       y       z     vdW  Elec       q    Type
REMARK                         _______ _______ _______ _____ _____    ______ ____
ROOT
ATOM      1  O   UNL     1       0.398  10.619  22.712  0.00  0.00    +0.000 OA
ATOM      2  C   UNL     1       0.482  10.728  21.490  0.00  0.00    +0.000 C 
ATOM      3  N   UNL     1       1.059   9.701  20.678  0.00  0.00    +0.000 N 
ATOM      4  C   UNL     1       1.175   9.826  19.227  0.00  0.00    +0.000 C 
ATOM      5  C   UNL     1       2.020   8.810  18.503  0.00  0.00    +0.000 C 
ATOM      6  N   UNL     1       1.988   7.534  19.143  0.00  0.00    +0.000 N 
ATOM      7  N   UNL     1       2.490   6.483  18.495  0.00  0.00    +0.000 NA
ATOM      8  C   UNL     1       2.369   5.469  19.364  0.00  0.00    +0.000 A 
ATOM      9  C   UNL     1       1.778   5.935  20.579  0.00  0.00    +0.000 A 
ATOM     10  C   UNL     1       1.550   7.288  20.401  0.00  0.00    +0.000 A 
ATOM     11  C   UNL     1       0.940   8.347  21.254  0.00  0.00    +0.000 C 
ENDROOT
BRANCH   2  12
ATOM     12  C   UNL     1      -0.144  11.919  20.822  0.00  0.00    +0.000 A 
ATOM     13  C   UNL     1      -1.524  11.953  20.574  0.00  0.00    +0.000 A 
ATOM     14  C   UNL     1      -2.181  13.158  20.319  0.00  0.00    +0.000 A 
ATOM     15  C   UNL     1      -1.441  14.317  20.126  0.00  0.00    +0.000 A 
ATOM     16  C   UNL     1      -0.049  14.257  20.163  0.00  0.00    +0.000 A 
ATOM     17  C   UNL     1       0.606  13.068  20.529  0.00  0.00    +0.000 A 
ATOM     18 CL   UNL     1       2.330  13.139  20.618  0.00  0.00    +0.000 Cl
ENDBRANCH   2  12
BRANCH   8  19
ATOM     19  C   UNL     1       2.793   4.114  19.000  0.00  0.00    +0.000 A 
ATOM     20  C   UNL     1       2.202   3.456  17.919  0.00  0.00    +0.000 A 
ATOM     21  C   UNL     1       2.604   2.160  17.610  0.00  0.00    +0.000 A 
ATOM     22  C   UNL     1       3.588   1.561  18.382  0.00  0.00    +0.000 A 
ATOM     23  C   UNL     1       4.132   2.286  19.430  0.00  0.00    +0.000 A 
ATOM     24  N   UNL     1       3.765   3.546  19.758  0.00  0.00    +0.000 NA
ENDBRANCH   8  19
TORSDOF 2
ENDMDL
MODEL 6
REMARK VINA RESULT:      -7.3      2.083      3.032
REMARK  Name = 
REMARK  2 active torsions:
REMARK  status: ('A' for Active; 'I' for Inactive)
REMARK    1  A    between atoms: C_2  and  C_3
REMARK    2  A    between atoms: C_15  and  C_16
REMARK                            x       y       z     vdW  Elec       q    Type
REMARK                         _______ _______ _______ _____ _____    ______ ____
ROOT
ATOM      1  O   UNL     1       3.741   7.221  17.013  0.00  0.00    +0.000 OA
ATOM      2  C   UNL     1       3.202   6.739  18.006  0.00  0.00    +0.000 C 
ATOM      3  N   UNL     1       2.499   7.549  18.952  0.00  0.00    +0.000 N 
ATOM      4  C   UNL     1       1.864   6.987  20.142  0.00  0.00    +0.000 C 
ATOM      5  C   UNL     1       1.375   7.949  21.194  0.00  0.00    +0.000 C 
ATOM      6  N   UNL     1       0.937   9.184  20.627  0.00  0.00    +0.000 N 
ATOM      7  N   UNL     1       0.262  10.036  21.398  0.00  0.00    +0.000 NA
ATOM      8  C   UNL     1       0.051  11.100  20.610  0.00  0.00    +0.000 A 
ATOM      9  C   UNL     1       0.628  10.877  19.323  0.00  0.00    +0.000 A 
ATOM     10  C   UNL     1       1.203   9.620  19.372  0.00  0.00    +0.000 A 
ATOM     11  C   UNL     1       1.928   8.782  18.375  0.00  0.00    +0.000 C 
ENDROOT
BRANCH   2  12
ATOM     12  C   UNL     1       3.180   5.245  18.169  0.00  0.00    +0.000 A 
ATOM     13  C   UNL     1       2.073   4.498  17.738  0.00  0.00    +0.000 A 
ATOM     14  C   UNL     1       2.173   3.123  17.521  0.00  0.00    +0.000 A 
ATOM     15  C   UNL     1       3.323   2.447  17.907  0.00  0.00    +0.000 A 
ATOM     16  C   UNL     1       4.354   3.148  18.531  0.00  0.00    +0.000 A 
ATOM     17  C   UNL     1       4.299   4.547  18.648  0.00  0.00    +0.000 A 
ATOM     18 CL   UNL     1       5.672   5.311  19.366  0.00  0.00    +0.000 Cl
ENDBRANCH   2  12
BRANCH   8  19
ATOM     19  C   UNL     1      -0.699  12.260  21.101  0.00  0.00    +0.000 A 
ATOM     20  C   UNL     1      -1.786  12.755  20.378  0.00  0.00    +0.000 A 
ATOM     21  C   UNL     1      -2.466  13.873  20.852  0.00  0.00    +0.000 A 
ATOM     22  C   UNL     1      -2.045  14.462  22.036  0.00  0.00    +0.000 A 
ATOM     23  C   UNL     1      -0.965  13.903  22.699  0.00  0.00    +0.000 A 
ATOM     24  N   UNL     1      -0.282  12.818  22.267  0.00  0.00    +0.000 NA
ENDBRANCH   8  19
TORSDOF 2
ENDMDL
MODEL 7
REMARK VINA RESULT:      -7.2      2.028      3.427
REMARK  Name = 
REMARK  2 active torsions:
REMARK  status: ('A' for Active; 'I' for Inactive)
REMARK    1  A    between atoms: C_2  and  C_3
REMARK    2  A    between atoms: C_15  and  C_16
REMARK                            x       y       z     vdW  Elec       q    Type
REMARK                         _______ _______ _______ _____ _____    ______ ____
ROOT
ATOM      1  O   UNL     1       2.833   8.351  17.008  0.00  0.00    +0.000 OA
ATOM      2  C   UNL     1       2.629   7.699  18.030  0.00  0.00    +0.000 C 
ATOM      3  N   UNL     1       2.053   8.288  19.200  0.00  0.00    +0.000 N 
ATOM      4  C   UNL     1       1.817   7.525  20.423  0.00  0.00    +0.000 C 
ATOM      5  C   UNL     1       1.446   8.293  21.665  0.00  0.00    +0.000 C 
ATOM      6  N   UNL     1       0.697   9.470  21.363  0.00  0.00    +0.000 N 
ATOM      7  N   UNL     1       0.100  10.120  22.362  0.00  0.00    +0.000 NA
ATOM      8  C   UNL     1      -0.457  11.189  21.775  0.00  0.00    +0.000 A 
ATOM      9  C   UNL     1      -0.176  11.180  20.375  0.00  0.00    +0.000 A 
ATOM     10  C   UNL     1       0.585  10.048  20.143  0.00  0.00    +0.000 A 
ATOM     11  C   UNL     1       1.174   9.440  18.916  0.00  0.00    +0.000 C 
ENDROOT
BRANCH   2  12
ATOM     12  C   UNL     1       2.881   6.218  18.011  0.00  0.00    +0.000 A 
ATOM     13  C   UNL     1       1.828   5.313  18.207  0.00  0.00    +0.000 A 
ATOM     14  C   UNL     1       1.945   3.976  17.822  0.00  0.00    +0.000 A 
ATOM     15  C   UNL     1       3.176   3.485  17.408  0.00  0.00    +0.000 A 
ATOM     16  C   UNL     1       4.286   4.328  17.408  0.00  0.00    +0.000 A 
ATOM     17  C   UNL     1       4.144   5.697  17.688  0.00  0.00    +0.000 A 
ATOM     18 CL   UNL     1       5.578   6.656  17.578  0.00  0.00    +0.000 Cl
ENDBRANCH   2  12
BRANCH   8  19
ATOM     19  C   UNL     1      -1.242  12.149  22.557  0.00  0.00    +0.000 A 
ATOM     20  C   UNL     1      -0.792  13.461  22.721  0.00  0.00    +0.000 A 
ATOM     21  C   UNL     1      -1.541  14.346  23.490  0.00  0.00    +0.000 A 
ATOM     22  C   UNL     1      -2.721  13.900  24.068  0.00  0.00    +0.000 A 
ATOM     23  C   UNL     1      -3.103  12.586  23.848  0.00  0.00    +0.000 A 
ATOM     24  N   UNL     1      -2.399  11.700  23.107  0.00  0.00    +0.000 NA
ENDBRANCH   8  19
TORSDOF 2
ENDMDL
MODEL 8
REMARK VINA RESULT:      -7.2      3.093      4.482
REMARK  Name = 
REMARK  2 active torsions:
REMARK  status: ('A' for Active; 'I' for Inactive)
REMARK    1  A    between atoms: C_2  and  C_3
REMARK    2  A    between atoms: C_15  and  C_16
REMARK                            x       y       z     vdW  Elec       q    Type
REMARK                         _______ _______ _______ _____ _____    ______ ____
ROOT
ATOM      1  O   UNL     1       3.578   6.261  18.184  0.00  0.00    +0.000 OA
ATOM      2  C   UNL     1       2.808   6.231  19.142  0.00  0.00    +0.000 C 
ATOM      3  N   UNL     1       2.200   7.417  19.661  0.00  0.00    +0.000 N 
ATOM      4  C   UNL     1       1.294   7.394  20.806  0.00  0.00    +0.000 C 
ATOM      5  C   UNL     1       0.913   8.714  21.424  0.00  0.00    +0.000 C 
ATOM      6  N   UNL     1       0.868   9.764  20.457  0.00  0.00    +0.000 N 
ATOM      7  N   UNL     1       0.320  10.928  20.805  0.00  0.00    +0.000 NA
ATOM      8  C   UNL     1       0.481  11.706  19.725  0.00  0.00    +0.000 A 
ATOM      9  C   UNL     1       1.155  10.980  18.696  0.00  0.00    +0.000 A 
ATOM     10  C   UNL     1       1.398   9.719  19.212  0.00  0.00    +0.000 A 
ATOM     11  C   UNL     1       2.027   8.487  18.657  0.00  0.00    +0.000 C 
ENDROOT
BRANCH   2  12
ATOM     12  C   UNL     1       2.405   4.899  19.709  0.00  0.00    +0.000 A 
ATOM     13  C   UNL     1       2.785   4.533  21.009  0.00  0.00    +0.000 A 
ATOM     14  C   UNL     1       2.126   3.509  21.691  0.00  0.00    +0.000 A 
ATOM     15  C   UNL     1       1.206   2.717  21.018  0.00  0.00    +0.000 A 
ATOM     16  C   UNL     1       0.970   2.937  19.663  0.00  0.00    +0.000 A 
ATOM     17  C   UNL     1       1.550   4.036  19.006  0.00  0.00    +0.000 A 
ATOM     18 CL   UNL     1       1.120   4.252  17.347  0.00  0.00    +0.000 Cl
ENDBRANCH   2  12
BRANCH   8  19
ATOM     19  C   UNL     1      -0.026  13.081  19.709  0.00  0.00    +0.000 A 
ATOM     20  C   UNL     1       0.493  14.014  18.810  0.00  0.00    +0.000 A 
ATOM     21  C   UNL     1       0.014  15.321  18.832  0.00  0.00    +0.000 A 
ATOM     22  C   UNL     1      -0.974  15.657  19.746  0.00  0.00    +0.000 A 
ATOM     23  C   UNL     1      -1.445  14.669  20.597  0.00  0.00    +0.000 A 
ATOM     24  N   UNL     1      -1.001  13.391  20.602  0.00  0.00    +0.000 NA
ENDBRANCH   8  19
TORSDOF 2
ENDMDL
MODEL 9
REMARK VINA RESULT:      -7.2      2.116      2.977
REMARK  Name = 
REMARK  2 active torsions:
REMARK  status: ('A' for Active; 'I' for Inactive)
REMARK    1  A    between atoms: C_2  and  C_3
REMARK    2  A    between atoms: C_15  and  C_16
REMARK                            x       y       z     vdW  Elec       q    Type
REMARK                         _______ _______ _______ _____ _____    ______ ____
ROOT
ATOM      1  O   UNL     1       4.018   6.646  16.890  0.00  0.00    +0.000 OA
ATOM      2  C   UNL     1       3.406   6.306  17.900  0.00  0.00    +0.000 C 
ATOM      3  N   UNL     1       2.694   7.250  18.706  0.00  0.00    +0.000 N 
ATOM      4  C   UNL     1       1.974   6.858  19.915  0.00  0.00    +0.000 C 
ATOM      5  C   UNL     1       1.477   7.955  20.819  0.00  0.00    +0.000 C 
ATOM      6  N   UNL     1       1.128   9.132  20.090  0.00  0.00    +0.000 N 
ATOM      7  N   UNL     1       0.455  10.097  20.720  0.00  0.00    +0.000 NA
ATOM      8  C   UNL     1       0.336  11.068  19.804  0.00  0.00    +0.000 A 
ATOM      9  C   UNL     1       0.966  10.672  18.585  0.00  0.00    +0.000 A 
ATOM     10  C   UNL     1       1.478   9.407  18.811  0.00  0.00    +0.000 A 
ATOM     11  C   UNL     1       2.213   8.429  17.959  0.00  0.00    +0.000 C 
ENDROOT
BRANCH   2  12
ATOM     12  C   UNL     1       3.305   4.844  18.231  0.00  0.00    +0.000 A 
ATOM     13  C   UNL     1       2.177   4.103  17.848  0.00  0.00    +0.000 A 
ATOM     14  C   UNL     1       2.216   2.708  17.794  0.00  0.00    +0.000 A 
ATOM     15  C   UNL     1       3.318   2.031  18.298  0.00  0.00    +0.000 A 
ATOM     16  C   UNL     1       4.362   2.752  18.875  0.00  0.00    +0.000 A 
ATOM     17  C   UNL     1       4.372   4.156  18.829  0.00  0.00    +0.000 A 
ATOM     18 CL   UNL     1       5.757   4.936  19.506  0.00  0.00    +0.000 Cl
ENDBRANCH   2  12
BRANCH   8  19
ATOM     19  C   UNL     1      -0.383  12.308  20.116  0.00  0.00    +0.000 A 
ATOM     20  C   UNL     1      -1.421  12.305  21.049  0.00  0.00    +0.000 A 
ATOM     21  C   UNL     1      -2.106  13.489  21.308  0.00  0.00    +0.000 A 
ATOM     22  C   UNL     1      -1.731  14.642  20.633  0.00  0.00    +0.000 A 
ATOM     23  C   UNL     1      -0.683  14.563  19.731  0.00  0.00    +0.000 A 
ATOM     24  N   UNL     1       0.003  13.429  19.455  0.00  0.00    +0.000 NA
ENDBRANCH   8  19
TORSDOF 2
ENDMDL
