MODEL 1
REMARK VINA RESULT:      -7.6      0.000      0.000
REMARK  Name = 
REMARK  9 active torsions:
REMARK  status: ('A' for Active; 'I' for Inactive)
REMARK    1  A    between atoms: C_1  and  C_2
REMARK    2  A    between atoms: C_2  and  O_3
REMARK    3  A    between atoms: O_3  and  C_4
REMARK    4  A    between atoms: C_7  and  C_8
REMARK    5  A    between atoms: C_8  and  O_9
REMARK    6  A    between atoms: C_8  and  C_10
REMARK    7  A    between atoms: C_10  and  C_11
REMARK    8  A    between atoms: C_10  and  C_18
REMARK    9  A    between atoms: C_11  and  N_12
REMARK                            x       y       z     vdW  Elec       q    Type
REMARK                         _______ _______ _______ _____ _____    ______ ____
ROOT
ATOM      1  C   UNL     1       3.428   4.990  18.321  0.00  0.00    +0.000 C 
ENDROOT
BRANCH   1   2
ATOM      2  C   UNL     1       2.862   6.403  18.592  0.00  0.00    +0.000 A 
ATOM      3  C   UNL     1       2.317   6.774  19.872  0.00  0.00    +0.000 A 
ATOM      4  C   UNL     1       1.731   8.022  20.060  0.00  0.00    +0.000 A 
ATOM      5  C   UNL     1       1.677   8.942  19.023  0.00  0.00    +0.000 A 
ATOM      6  C   UNL     1       2.242   8.621  17.783  0.00  0.00    +0.000 A 
ATOM      7  C   UNL     1       2.823   7.374  17.579  0.00  0.00    +0.000 A 
ENDBRANCH   1   2
BRANCH   1   8
ATOM      8  C   UNL     1       4.538   5.093  17.084  0.00  0.00    +0.000 C 
BRANCH   8  12
ATOM      9  C   UNL     1       8.049   7.440  18.358  0.00  0.00    +0.000 A 
ATOM     10  C   UNL     1       7.347   7.783  17.161  0.00  0.00    +0.000 A 
ATOM     11  C   UNL     1       6.318   6.959  16.693  0.00  0.00    +0.000 A 
ATOM     12  C   UNL     1       5.950   5.754  17.366  0.00  0.00    +0.000 A 
ATOM     13  C   UNL     1       6.805   5.339  18.411  0.00  0.00    +0.000 A 
ATOM     14  C   UNL     1       7.797   6.177  18.895  0.00  0.00    +0.000 A 
BRANCH   9  15
ATOM     15  O   UNL     1       8.847   8.352  18.921  0.00  0.00    +0.000 OA
BRANCH  15  17
ATOM     16  C   UNL     1       9.401  10.558  19.791  0.00  0.00    +0.000 C 
ATOM     17  C   UNL     1       8.848   9.734  18.627  0.00  0.00    +0.000 C 
ENDBRANCH  15  17
ENDBRANCH   9  15
ENDBRANCH   8  12
BRANCH   8  18
ATOM     18  O   UNL     1       4.649   3.925  16.334  0.00  0.00    +0.000 OA
ATOM     19  H   UNL     1       4.884   4.173  15.405  0.00  0.00    +0.000 HD
ENDBRANCH   8  18
ENDBRANCH   1   8
BRANCH   1  20
ATOM     20  C   UNL     1       3.684   4.316  19.810  0.00  0.00    +0.000 C 
BRANCH  20  21
ATOM     21  N   UNL     1       3.386   2.873  20.101  0.00  0.00    +0.000 NA
ATOM     22  C   UNL     1       2.837   2.038  18.982  0.00  0.00    +0.000 C 
ATOM     23  C   UNL     1       1.384   2.452  18.570  0.00  0.00    +0.000 C 
ATOM     24  O   UNL     1       0.492   2.547  19.675  0.00  0.00    +0.000 OA
ATOM     25  C   UNL     1       1.052   3.378  20.668  0.00  0.00    +0.000 C 
ATOM     26  C   UNL     1       2.393   2.768  21.150  0.00  0.00    +0.000 C 
ENDBRANCH  20  21
ENDBRANCH   1  20
TORSDOF 8
ENDMDL
MODEL 2
REMARK VINA RESULT:      -7.5      0.555      1.147
REMARK  Name = 
REMARK  9 active torsions:
REMARK  status: ('A' for Active; 'I' for Inactive)
REMARK    1  A    between atoms: C_1  and  C_2
REMARK    2  A    between atoms: C_2  and  O_3
REMARK    3  A    between atoms: O_3  and  C_4
REMARK    4  A    between atoms: C_7  and  C_8
REMARK    5  A    between atoms: C_8  and  O_9
REMARK    6  A    between atoms: C_8  and  C_10
REMARK    7  A    between atoms: C_10  and  C_11
REMARK    8  A    between atoms: C_10  and  C_18
REMARK    9  A    between atoms: C_11  and  N_12
REMARK                            x       y       z     vdW  Elec       q    Type
REMARK                         _______ _______ _______ _____ _____    ______ ____
ROOT
ATOM      1  C   UNL     1       3.642   4.757  18.075  0.00  0.00    +0.000 C 
ENDROOT
BRANCH   1   2
ATOM      2  C   UNL     1       2.980   6.110  18.425  0.00  0.00    +0.000 A 
ATOM      3  C   UNL     1       2.901   7.189  17.477  0.00  0.00    +0.000 A 
ATOM      4  C   UNL     1       2.383   8.426  17.848  0.00  0.00    +0.000 A 
ATOM      5  C   UNL     1       1.913   8.638  19.137  0.00  0.00    +0.000 A 
ATOM      6  C   UNL     1       1.937   7.590  20.063  0.00  0.00    +0.000 A 
ATOM      7  C   UNL     1       2.460   6.352  19.708  0.00  0.00    +0.000 A 
ENDBRANCH   1   2
BRANCH   1   8
ATOM      8  C   UNL     1       4.777   5.016  16.884  0.00  0.00    +0.000 C 
BRANCH   8  12
ATOM      9  C   UNL     1       8.102   7.488  18.399  0.00  0.00    +0.000 A 
ATOM     10  C   UNL     1       7.455   7.824  17.170  0.00  0.00    +0.000 A 
ATOM     11  C   UNL     1       6.492   6.966  16.629  0.00  0.00    +0.000 A 
ATOM     12  C   UNL     1       6.140   5.732  17.259  0.00  0.00    +0.000 A 
ATOM     13  C   UNL     1       6.952   5.334  18.344  0.00  0.00    +0.000 A 
ATOM     14  C   UNL     1       7.876   6.205  18.899  0.00  0.00    +0.000 A 
BRANCH   9  15
ATOM     15  O   UNL     1       8.825   8.422  19.023  0.00  0.00    +0.000 OA
BRANCH  15  17
ATOM     16  C   UNL     1       9.383  10.661  19.804  0.00  0.00    +0.000 C 
ATOM     17  C   UNL     1       8.912   9.781  18.644  0.00  0.00    +0.000 C 
ENDBRANCH  15  17
ENDBRANCH   9  15
ENDBRANCH   8  12
BRANCH   8  18
ATOM     18  O   UNL     1       4.976   3.917  16.053  0.00  0.00    +0.000 OA
ATOM     19  H   UNL     1       4.387   3.184  16.361  0.00  0.00    +0.000 HD
ENDBRANCH   8  18
ENDBRANCH   1   8
BRANCH   1  20
ATOM     20  C   UNL     1       3.898   3.997  19.521  0.00  0.00    +0.000 C 
BRANCH  20  21
ATOM     21  N   UNL     1       3.426   2.596  19.787  0.00  0.00    +0.000 NA
ATOM     22  C   UNL     1       2.135   2.167  19.154  0.00  0.00    +0.000 C 
ATOM     23  C   UNL     1       0.890   2.904  19.752  0.00  0.00    +0.000 C 
ATOM     24  O   UNL     1       0.844   2.869  21.174  0.00  0.00    +0.000 OA
ATOM     25  C   UNL     1       2.072   3.323  21.701  0.00  0.00    +0.000 C 
ATOM     26  C   UNL     1       3.214   2.400  21.206  0.00  0.00    +0.000 C 
ENDBRANCH  20  21
ENDBRANCH   1  20
TORSDOF 8
ENDMDL
MODEL 3
REMARK VINA RESULT:      -7.4      2.808      6.756
REMARK  Name = 
REMARK  9 active torsions:
REMARK  status: ('A' for Active; 'I' for Inactive)
REMARK    1  A    between atoms: C_1  and  C_2
REMARK    2  A    between atoms: C_2  and  O_3
REMARK    3  A    between atoms: O_3  and  C_4
REMARK    4  A    between atoms: C_7  and  C_8
REMARK    5  A    between atoms: C_8  and  O_9
REMARK    6  A    between atoms: C_8  and  C_10
REMARK    7  A    between atoms: C_10  and  C_11
REMARK    8  A    between atoms: C_10  and  C_18
REMARK    9  A    between atoms: C_11  and  N_12
REMARK                            x       y       z     vdW  Elec       q    Type
REMARK                         _______ _______ _______ _____ _____    ______ ____
ROOT
ATOM      1  C   UNL     1       3.355   5.914  18.760  0.00  0.00    +0.000 C 
ENDROOT
BRANCH   1   2
ATOM      2  C   UNL     1       2.814   4.466  18.793  0.00  0.00    +0.000 A 
ATOM      3  C   UNL     1       1.500   4.132  18.312  0.00  0.00    +0.000 A 
ATOM      4  C   UNL     1       1.004   2.838  18.439  0.00  0.00    +0.000 A 
ATOM      5  C   UNL     1       1.777   1.838  19.013  0.00  0.00    +0.000 A 
ATOM      6  C   UNL     1       3.075   2.129  19.446  0.00  0.00    +0.000 A 
ATOM      7  C   UNL     1       3.579   3.419  19.334  0.00  0.00    +0.000 A 
ENDBRANCH   1   2
BRANCH   1   8
ATOM      8  C   UNL     1       2.606   6.787  19.965  0.00  0.00    +0.000 C 
BRANCH   8  12
ATOM      9  C   UNL     1       0.096  10.179  18.679  0.00  0.00    +0.000 A 
ATOM     10  C   UNL     1       1.094   9.647  17.806  0.00  0.00    +0.000 A 
ATOM     11  C   UNL     1       1.973   8.661  18.265  0.00  0.00    +0.000 A 
ATOM     12  C   UNL     1       1.925   8.171  19.607  0.00  0.00    +0.000 A 
ATOM     13  C   UNL     1       1.078   8.871  20.494  0.00  0.00    +0.000 A 
ATOM     14  C   UNL     1       0.183   9.820  20.025  0.00  0.00    +0.000 A 
BRANCH   9  15
ATOM     15  O   UNL     1      -0.882  10.927  18.161  0.00  0.00    +0.000 OA
BRANCH  15  17
ATOM     16  C   UNL     1      -2.868   9.744  17.394  0.00  0.00    +0.000 C 
ATOM     17  C   UNL     1      -2.264  10.740  18.386  0.00  0.00    +0.000 C 
ENDBRANCH  15  17
ENDBRANCH   9  15
ENDBRANCH   8  12
BRANCH   8  18
ATOM     18  O   UNL     1       1.805   6.011  20.800  0.00  0.00    +0.000 OA
ATOM     19  H   UNL     1       2.079   6.178  21.736  0.00  0.00    +0.000 HD
ENDBRANCH   8  18
ENDBRANCH   1   8
BRANCH   1  20
ATOM     20  C   UNL     1       4.986   5.778  18.523  0.00  0.00    +0.000 C 
BRANCH  20  21
ATOM     21  N   UNL     1       5.691   6.453  17.382  0.00  0.00    +0.000 NA
ATOM     22  C   UNL     1       5.463   5.906  16.003  0.00  0.00    +0.000 C 
ATOM     23  C   UNL     1       6.091   4.486  15.801  0.00  0.00    +0.000 C 
ATOM     24  O   UNL     1       7.453   4.410  16.204  0.00  0.00    +0.000 OA
ATOM     25  C   UNL     1       7.587   4.902  17.521  0.00  0.00    +0.000 C 
ATOM     26  C   UNL     1       7.126   6.380  17.565  0.00  0.00    +0.000 C 
ENDBRANCH  20  21
ENDBRANCH   1  20
TORSDOF 8
ENDMDL
MODEL 4
REMARK VINA RESULT:      -7.3      2.863      6.805
REMARK  Name = 
REMARK  9 active torsions:
REMARK  status: ('A' for Active; 'I' for Inactive)
REMARK    1  A    between atoms: C_1  and  C_2
REMARK    2  A    between atoms: C_2  and  O_3
REMARK    3  A    between atoms: O_3  and  C_4
REMARK    4  A    between atoms: C_7  and  C_8
REMARK    5  A    between atoms: C_8  and  O_9
REMARK    6  A    between atoms: C_8  and  C_10
REMARK    7  A    between atoms: C_10  and  C_11
REMARK    8  A    between atoms: C_10  and  C_18
REMARK    9  A    between atoms: C_11  and  N_12
REMARK                            x       y       z     vdW  Elec       q    Type
REMARK                         _______ _______ _______ _____ _____    ______ ____
ROOT
ATOM      1  C   UNL     1       3.244   5.991  18.738  0.00  0.00    +0.000 C 
ENDROOT
BRANCH   1   2
ATOM      2  C   UNL     1       2.696   4.556  18.920  0.00  0.00    +0.000 A 
ATOM      3  C   UNL     1       3.398   3.563  19.690  0.00  0.00    +0.000 A 
ATOM      4  C   UNL     1       2.928   2.255  19.760  0.00  0.00    +0.000 A 
ATOM      5  C   UNL     1       1.761   1.887  19.105  0.00  0.00    +0.000 A 
ATOM      6  C   UNL     1       1.037   2.846  18.388  0.00  0.00    +0.000 A 
ATOM      7  C   UNL     1       1.500   4.154  18.303  0.00  0.00    +0.000 A 
ENDBRANCH   1   2
BRANCH   1   8
ATOM      8  C   UNL     1       2.615   6.955  19.941  0.00  0.00    +0.000 C 
BRANCH   8  12
ATOM      9  C   UNL     1      -0.123  10.143  18.600  0.00  0.00    +0.000 A 
ATOM     10  C   UNL     1       0.864   9.617  17.710  0.00  0.00    +0.000 A 
ATOM     11  C   UNL     1       1.812   8.703  18.178  0.00  0.00    +0.000 A 
ATOM     12  C   UNL     1       1.847   8.282  19.544  0.00  0.00    +0.000 A 
ATOM     13  C   UNL     1       1.003   8.985  20.432  0.00  0.00    +0.000 A 
ATOM     14  C   UNL     1       0.040   9.861  19.957  0.00  0.00    +0.000 A 
BRANCH   9  15
ATOM     15  O   UNL     1      -1.160  10.813  18.089  0.00  0.00    +0.000 OA
BRANCH  15  17
ATOM     16  C   UNL     1      -3.281   9.725  17.588  0.00  0.00    +0.000 C 
ATOM     17  C   UNL     1      -1.997  10.357  17.046  0.00  0.00    +0.000 C 
ENDBRANCH  15  17
ENDBRANCH   9  15
ENDBRANCH   8  12
BRANCH   8  18
ATOM     18  O   UNL     1       1.948   6.243  20.935  0.00  0.00    +0.000 OA
ATOM     19  H   UNL     1       1.282   6.843  21.354  0.00  0.00    +0.000 HD
ENDBRANCH   8  18
ENDBRANCH   1   8
BRANCH   1  20
ATOM     20  C   UNL     1       4.846   5.814  18.365  0.00  0.00    +0.000 C 
BRANCH  20  21
ATOM     21  N   UNL     1       5.473   6.484  17.177  0.00  0.00    +0.000 NA
ATOM     22  C   UNL     1       5.315   5.819  15.841  0.00  0.00    +0.000 C 
ATOM     23  C   UNL     1       6.103   4.470  15.736  0.00  0.00    +0.000 C 
ATOM     24  O   UNL     1       7.463   4.580  16.138  0.00  0.00    +0.000 OA
ATOM     25  C   UNL     1       7.535   5.174  17.416  0.00  0.00    +0.000 C 
ATOM     26  C   UNL     1       6.906   6.589  17.359  0.00  0.00    +0.000 C 
ENDBRANCH  20  21
ENDBRANCH   1  20
TORSDOF 8
ENDMDL
MODEL 5
REMARK VINA RESULT:      -7.3      2.546      6.385
REMARK  Name = 
REMARK  9 active torsions:
REMARK  status: ('A' for Active; 'I' for Inactive)
REMARK    1  A    between atoms: C_1  and  C_2
REMARK    2  A    between atoms: C_2  and  O_3
REMARK    3  A    between atoms: O_3  and  C_4
REMARK    4  A    between atoms: C_7  and  C_8
REMARK    5  A    between atoms: C_8  and  O_9
REMARK    6  A    between atoms: C_8  and  C_10
REMARK    7  A    between atoms: C_10  and  C_11
REMARK    8  A    between atoms: C_10  and  C_18
REMARK    9  A    between atoms: C_11  and  N_12
REMARK                            x       y       z     vdW  Elec       q    Type
REMARK                         _______ _______ _______ _____ _____    ______ ____
ROOT
ATOM      1  C   UNL     1       3.782   5.594  18.191  0.00  0.00    +0.000 C 
ENDROOT
BRANCH   1   2
ATOM      2  C   UNL     1       2.859   4.527  18.824  0.00  0.00    +0.000 A 
ATOM      3  C   UNL     1       1.786   3.913  18.088  0.00  0.00    +0.000 A 
ATOM      4  C   UNL     1       0.913   3.025  18.710  0.00  0.00    +0.000 A 
ATOM      5  C   UNL     1       1.074   2.697  20.050  0.00  0.00    +0.000 A 
ATOM      6  C   UNL     1       2.138   3.246  20.773  0.00  0.00    +0.000 A 
ATOM      7  C   UNL     1       3.012   4.141  20.166  0.00  0.00    +0.000 A 
ENDBRANCH   1   2
BRANCH   1   8
ATOM      8  C   UNL     1       2.848   6.888  17.717  0.00  0.00    +0.000 C 
BRANCH   8  12
ATOM      9  C   UNL     1       0.514   9.309  20.572  0.00  0.00    +0.000 A 
ATOM     10  C   UNL     1       0.832   9.826  19.279  0.00  0.00    +0.000 A 
ATOM     11  C   UNL     1       1.681   9.111  18.428  0.00  0.00    +0.000 A 
ATOM     12  C   UNL     1       2.271   7.869  18.819  0.00  0.00    +0.000 A 
ATOM     13  C   UNL     1       2.111   7.504  20.174  0.00  0.00    +0.000 A 
ATOM     14  C   UNL     1       1.238   8.195  21.000  0.00  0.00    +0.000 A 
BRANCH   9  15
ATOM     15  O   UNL     1      -0.481   9.872  21.264  0.00  0.00    +0.000 OA
BRANCH  15  17
ATOM     16  C   UNL     1      -1.400  11.132  23.134  0.00  0.00    +0.000 C 
ATOM     17  C   UNL     1      -0.565   9.936  22.673  0.00  0.00    +0.000 C 
ENDBRANCH  15  17
ENDBRANCH   9  15
ENDBRANCH   8  12
BRANCH   8  18
ATOM     18  O   UNL     1       3.362   7.577  16.623  0.00  0.00    +0.000 OA
ATOM     19  H   UNL     1       2.711   7.514  15.880  0.00  0.00    +0.000 HD
ENDBRANCH   8  18
ENDBRANCH   1   8
BRANCH   1  20
ATOM     20  C   UNL     1       5.122   5.658  19.159  0.00  0.00    +0.000 C 
BRANCH  20  21
ATOM     21  N   UNL     1       6.409   4.975  18.796  0.00  0.00    +0.000 NA
ATOM     22  C   UNL     1       7.687   5.710  19.073  0.00  0.00    +0.000 C 
ATOM     23  C   UNL     1       7.876   6.969  18.160  0.00  0.00    +0.000 C 
ATOM     24  O   UNL     1       7.688   6.694  16.776  0.00  0.00    +0.000 OA
ATOM     25  C   UNL     1       6.452   6.040  16.585  0.00  0.00    +0.000 C 
ATOM     26  C   UNL     1       6.450   4.706  17.373  0.00  0.00    +0.000 C 
ENDBRANCH  20  21
ENDBRANCH   1  20
TORSDOF 8
ENDMDL
MODEL 6
REMARK VINA RESULT:      -7.2      2.763      6.843
REMARK  Name = 
REMARK  9 active torsions:
REMARK  status: ('A' for Active; 'I' for Inactive)
REMARK    1  A    between atoms: C_1  and  C_2
REMARK    2  A    between atoms: C_2  and  O_3
REMARK    3  A    between atoms: O_3  and  C_4
REMARK    4  A    between atoms: C_7  and  C_8
REMARK    5  A    between atoms: C_8  and  O_9
REMARK    6  A    between atoms: C_8  and  C_10
REMARK    7  A    between atoms: C_10  and  C_11
REMARK    8  A    between atoms: C_10  and  C_18
REMARK    9  A    between atoms: C_11  and  N_12
REMARK                            x       y       z     vdW  Elec       q    Type
REMARK                         _______ _______ _______ _____ _____    ______ ____
ROOT
ATOM      1  C   UNL     1       2.903   5.842  18.206  0.00  0.00    +0.000 C 
ENDROOT
BRANCH   1   2
ATOM      2  C   UNL     1       2.514   4.390  18.567  0.00  0.00    +0.000 A 
ATOM      3  C   UNL     1       1.219   3.846  18.255  0.00  0.00    +0.000 A 
ATOM      4  C   UNL     1       0.864   2.567  18.674  0.00  0.00    +0.000 A 
ATOM      5  C   UNL     1       1.762   1.782  19.384  0.00  0.00    +0.000 A 
ATOM      6  C   UNL     1       3.043   2.271  19.659  0.00  0.00    +0.000 A 
ATOM      7  C   UNL     1       3.407   3.551  19.254  0.00  0.00    +0.000 A 
ENDBRANCH   1   2
BRANCH   1   8
ATOM      8  C   UNL     1       2.734   6.789  19.566  0.00  0.00    +0.000 C 
BRANCH   8  12
ATOM      9  C   UNL     1      -0.153  10.087  19.070  0.00  0.00    +0.000 A 
ATOM     10  C   UNL     1       0.700   9.706  17.990  0.00  0.00    +0.000 A 
ATOM     11  C   UNL     1       1.702   8.750  18.191  0.00  0.00    +0.000 A 
ATOM     12  C   UNL     1       1.923   8.145  19.467  0.00  0.00    +0.000 A 
ATOM     13  C   UNL     1       1.212   8.704  20.552  0.00  0.00    +0.000 A 
ATOM     14  C   UNL     1       0.194   9.622  20.340  0.00  0.00    +0.000 A 
BRANCH   9  15
ATOM     15  O   UNL     1      -1.249  10.803  18.805  0.00  0.00    +0.000 OA
BRANCH  15  17
ATOM     16  C   UNL     1      -3.045   9.807  17.497  0.00  0.00    +0.000 C 
ATOM     17  C   UNL     1      -1.922  10.843  17.563  0.00  0.00    +0.000 C 
ENDBRANCH  15  17
ENDBRANCH   9  15
ENDBRANCH   8  12
BRANCH   8  18
ATOM     18  O   UNL     1       2.408   6.067  20.712  0.00  0.00    +0.000 OA
ATOM     19  H   UNL     1       2.827   5.173  20.646  0.00  0.00    +0.000 HD
ENDBRANCH   8  18
ENDBRANCH   1   8
BRANCH   1  20
ATOM     20  C   UNL     1       4.253   5.723  17.260  0.00  0.00    +0.000 C 
BRANCH  20  21
ATOM     21  N   UNL     1       5.510   5.050  17.734  0.00  0.00    +0.000 NA
ATOM     22  C   UNL     1       6.606   5.923  18.269  0.00  0.00    +0.000 C 
ATOM     23  C   UNL     1       7.271   6.811  17.164  0.00  0.00    +0.000 C 
ATOM     24  O   UNL     1       7.668   6.074  16.013  0.00  0.00    +0.000 OA
ATOM     25  C   UNL     1       6.580   5.309  15.540  0.00  0.00    +0.000 C 
ATOM     26  C   UNL     1       6.129   4.321  16.646  0.00  0.00    +0.000 C 
ENDBRANCH  20  21
ENDBRANCH   1  20
TORSDOF 8
ENDMDL
MODEL 7
REMARK VINA RESULT:      -7.2      2.843      6.549
REMARK  Name = 
REMARK  9 active torsions:
REMARK  status: ('A' for Active; 'I' for Inactive)
REMARK    1  A    between atoms: C_1  and  C_2
REMARK    2  A    between atoms: C_2  and  O_3
REMARK    3  A    between atoms: O_3  and  C_4
REMARK    4  A    between atoms: C_7  and  C_8
REMARK    5  A    between atoms: C_8  and  O_9
REMARK    6  A    between atoms: C_8  and  C_10
REMARK    7  A    between atoms: C_10  and  C_11
REMARK    8  A    between atoms: C_10  and  C_18
REMARK    9  A    between atoms: C_11  and  N_12
REMARK                            x       y       z     vdW  Elec       q    Type
REMARK                         _______ _______ _______ _____ _____    ______ ____
ROOT
ATOM      1  C   UNL     1       3.478   5.762  18.788  0.00  0.00    +0.000 C 
ENDROOT
BRANCH   1   2
ATOM      2  C   UNL     1       2.868   4.343  18.724  0.00  0.00    +0.000 A 
ATOM      3  C   UNL     1       1.457   4.127  18.542  0.00  0.00    +0.000 A 
ATOM      4  C   UNL     1       0.924   2.842  18.581  0.00  0.00    +0.000 A 
ATOM      5  C   UNL     1       1.746   1.741  18.775  0.00  0.00    +0.000 A 
ATOM      6  C   UNL     1       3.127   1.923  18.908  0.00  0.00    +0.000 A 
ATOM      7  C   UNL     1       3.671   3.201  18.880  0.00  0.00    +0.000 A 
ENDBRANCH   1   2
BRANCH   1   8
ATOM      8  C   UNL     1       2.760   6.591  20.041  0.00  0.00    +0.000 C 
BRANCH   8  12
ATOM      9  C   UNL     1       0.771  10.480  19.425  0.00  0.00    +0.000 A 
ATOM     10  C   UNL     1       0.551   9.739  20.627  0.00  0.00    +0.000 A 
ATOM     11  C   UNL     1       1.078   8.451  20.762  0.00  0.00    +0.000 A 
ATOM     12  C   UNL     1       1.824   7.826  19.714  0.00  0.00    +0.000 A 
ATOM     13  C   UNL     1       1.830   8.496  18.471  0.00  0.00    +0.000 A 
ATOM     14  C   UNL     1       1.341   9.788  18.355  0.00  0.00    +0.000 A 
BRANCH   9  15
ATOM     15  O   UNL     1       0.480  11.784  19.409  0.00  0.00    +0.000 OA
BRANCH  15  17
ATOM     16  C   UNL     1      -1.884  12.149  18.951  0.00  0.00    +0.000 C 
ATOM     17  C   UNL     1      -0.436  12.409  18.532  0.00  0.00    +0.000 C 
ENDBRANCH  15  17
ENDBRANCH   9  15
ENDBRANCH   8  12
BRANCH   8  18
ATOM     18  O   UNL     1       2.211   5.763  21.016  0.00  0.00    +0.000 OA
ATOM     19  H   UNL     1       2.867   5.668  21.750  0.00  0.00    +0.000 HD
ENDBRANCH   8  18
ENDBRANCH   1   8
BRANCH   1  20
ATOM     20  C   UNL     1       5.103   5.562  18.552  0.00  0.00    +0.000 C 
BRANCH  20  21
ATOM     21  N   UNL     1       5.856   6.297  17.481  0.00  0.00    +0.000 NA
ATOM     22  C   UNL     1       5.777   5.758  16.083  0.00  0.00    +0.000 C 
ATOM     23  C   UNL     1       6.507   4.382  15.919  0.00  0.00    +0.000 C 
ATOM     24  O   UNL     1       7.834   4.384  16.434  0.00  0.00    +0.000 OA
ATOM     25  C   UNL     1       7.828   4.863  17.762  0.00  0.00    +0.000 C 
ATOM     26  C   UNL     1       7.273   6.309  17.782  0.00  0.00    +0.000 C 
ENDBRANCH  20  21
ENDBRANCH   1  20
TORSDOF 8
ENDMDL
MODEL 8
REMARK VINA RESULT:      -7.2      2.816      6.582
REMARK  Name = 
REMARK  9 active torsions:
REMARK  status: ('A' for Active; 'I' for Inactive)
REMARK    1  A    between atoms: C_1  and  C_2
REMARK    2  A    between atoms: C_2  and  O_3
REMARK    3  A    between atoms: O_3  and  C_4
REMARK    4  A    between atoms: C_7  and  C_8
REMARK    5  A    between atoms: C_8  and  O_9
REMARK    6  A    between atoms: C_8  and  C_10
REMARK    7  A    between atoms: C_10  and  C_11
REMARK    8  A    between atoms: C_10  and  C_18
REMARK    9  A    between atoms: C_11  and  N_12
REMARK                            x       y       z     vdW  Elec       q    Type
REMARK                         _______ _______ _______ _____ _____    ______ ____
ROOT
ATOM      1  C   UNL     1       3.287   5.978  18.759  0.00  0.00    +0.000 C 
ENDROOT
BRANCH   1   2
ATOM      2  C   UNL     1       2.778   4.522  18.858  0.00  0.00    +0.000 A 
ATOM      3  C   UNL     1       3.615   3.451  19.330  0.00  0.00    +0.000 A 
ATOM      4  C   UNL     1       3.161   2.136  19.321  0.00  0.00    +0.000 A 
ATOM      5  C   UNL     1       1.882   1.833  18.874  0.00  0.00    +0.000 A 
ATOM      6  C   UNL     1       1.033   2.863  18.454  0.00  0.00    +0.000 A 
ATOM      7  C   UNL     1       1.478   4.180  18.450  0.00  0.00    +0.000 A 
ENDBRANCH   1   2
BRANCH   1   8
ATOM      8  C   UNL     1       2.579   6.870  19.975  0.00  0.00    +0.000 C 
BRANCH   8  12
ATOM      9  C   UNL     1      -0.081  10.152  18.706  0.00  0.00    +0.000 A 
ATOM     10  C   UNL     1       0.899   9.630  17.808  0.00  0.00    +0.000 A 
ATOM     11  C   UNL     1       1.825   8.682  18.256  0.00  0.00    +0.000 A 
ATOM     12  C   UNL     1       1.842   8.224  19.610  0.00  0.00    +0.000 A 
ATOM     13  C   UNL     1       1.009   8.921  20.512  0.00  0.00    +0.000 A 
ATOM     14  C   UNL     1       0.067   9.830  20.056  0.00  0.00    +0.000 A 
BRANCH   9  15
ATOM     15  O   UNL     1      -1.101  10.858  18.209  0.00  0.00    +0.000 OA
BRANCH  15  17
ATOM     16  C   UNL     1      -0.342  13.169  18.314  0.00  0.00    +0.000 C 
ATOM     17  C   UNL     1      -1.461  12.167  18.601  0.00  0.00    +0.000 C 
ENDBRANCH  15  17
ENDBRANCH   9  15
ENDBRANCH   8  12
BRANCH   8  18
ATOM     18  O   UNL     1       1.846   6.103  20.876  0.00  0.00    +0.000 OA
ATOM     19  H   UNL     1       2.060   6.410  21.792  0.00  0.00    +0.000 HD
ENDBRANCH   8  18
ENDBRANCH   1   8
BRANCH   1  20
ATOM     20  C   UNL     1       4.907   5.866  18.446  0.00  0.00    +0.000 C 
BRANCH  20  21
ATOM     21  N   UNL     1       5.520   6.394  17.181  0.00  0.00    +0.000 NA
ATOM     22  C   UNL     1       5.367   5.569  15.938  0.00  0.00    +0.000 C 
ATOM     23  C   UNL     1       6.175   4.229  15.994  0.00  0.00    +0.000 C 
ATOM     24  O   UNL     1       7.535   4.407  16.373  0.00  0.00    +0.000 OA
ATOM     25  C   UNL     1       7.602   5.154  17.568  0.00  0.00    +0.000 C 
ATOM     26  C   UNL     1       6.952   6.542  17.341  0.00  0.00    +0.000 C 
ENDBRANCH  20  21
ENDBRANCH   1  20
TORSDOF 8
ENDMDL
MODEL 9
REMARK VINA RESULT:      -7.1      2.920      6.282
REMARK  Name = 
REMARK  9 active torsions:
REMARK  status: ('A' for Active; 'I' for Inactive)
REMARK    1  A    between atoms: C_1  and  C_2
REMARK    2  A    between atoms: C_2  and  O_3
REMARK    3  A    between atoms: O_3  and  C_4
REMARK    4  A    between atoms: C_7  and  C_8
REMARK    5  A    between atoms: C_8  and  O_9
REMARK    6  A    between atoms: C_8  and  C_10
REMARK    7  A    between atoms: C_10  and  C_11
REMARK    8  A    between atoms: C_10  and  C_18
REMARK    9  A    between atoms: C_11  and  N_12
REMARK                            x       y       z     vdW  Elec       q    Type
REMARK                         _______ _______ _______ _____ _____    ______ ____
ROOT
ATOM      1  C   UNL     1       3.113   5.419  17.747  0.00  0.00    +0.000 C 
ENDROOT
BRANCH   1   2
ATOM      2  C   UNL     1       2.529   4.101  18.305  0.00  0.00    +0.000 A 
ATOM      3  C   UNL     1       1.219   4.037  18.897  0.00  0.00    +0.000 A 
ATOM      4  C   UNL     1       0.756   2.859  19.475  0.00  0.00    +0.000 A 
ATOM      5  C   UNL     1       1.541   1.714  19.474  0.00  0.00    +0.000 A 
ATOM      6  C   UNL     1       2.800   1.740  18.864  0.00  0.00    +0.000 A 
ATOM      7  C   UNL     1       3.278   2.913  18.291  0.00  0.00    +0.000 A 
ENDBRANCH   1   2
BRANCH   1   8
ATOM      8  C   UNL     1       3.208   6.524  18.990  0.00  0.00    +0.000 C 
BRANCH   8  12
ATOM      9  C   UNL     1       0.909  10.261  19.443  0.00  0.00    +0.000 A 
ATOM     10  C   UNL     1       0.940   9.300  20.500  0.00  0.00    +0.000 A 
ATOM     11  C   UNL     1       1.560   8.062  20.303  0.00  0.00    +0.000 A 
ATOM     12  C   UNL     1       2.156   7.706  19.053  0.00  0.00    +0.000 A 
ATOM     13  C   UNL     1       1.913   8.586  17.976  0.00  0.00    +0.000 A 
ATOM     14  C   UNL     1       1.333   9.827  18.186  0.00  0.00    +0.000 A 
BRANCH   9  15
ATOM     15  O   UNL     1       0.540  11.515  19.722  0.00  0.00    +0.000 OA
BRANCH  15  17
ATOM     16  C   UNL     1       0.957  13.646  20.823  0.00  0.00    +0.000 C 
ATOM     17  C   UNL     1       0.678  12.150  20.977  0.00  0.00    +0.000 C 
ENDBRANCH  15  17
ENDBRANCH   9  15
ENDBRANCH   8  12
BRANCH   8  18
ATOM     18  O   UNL     1       3.418   5.944  20.238  0.00  0.00    +0.000 OA
ATOM     19  H   UNL     1       2.888   5.110  20.287  0.00  0.00    +0.000 HD
ENDBRANCH   8  18
ENDBRANCH   1   8
BRANCH   1  20
ATOM     20  C   UNL     1       4.347   4.971  16.741  0.00  0.00    +0.000 C 
BRANCH  20  21
ATOM     21  N   UNL     1       5.377   5.947  16.250  0.00  0.00    +0.000 NA
ATOM     22  C   UNL     1       6.079   5.626  14.963  0.00  0.00    +0.000 C 
ATOM     23  C   UNL     1       7.031   4.388  15.082  0.00  0.00    +0.000 C 
ATOM     24  O   UNL     1       7.921   4.466  16.189  0.00  0.00    +0.000 OA
ATOM     25  C   UNL     1       7.191   4.729  17.368  0.00  0.00    +0.000 C 
ATOM     26  C   UNL     1       6.445   6.079  17.219  0.00  0.00    +0.000 C 
ENDBRANCH  20  21
ENDBRANCH   1  20
TORSDOF 8
ENDMDL
