MODEL 1
REMARK VINA RESULT:      -7.5      0.000      0.000
REMARK  Name = 
REMARK  5 active torsions:
REMARK  status: ('A' for Active; 'I' for Inactive)
REMARK    1  A    between atoms: C_1  and  C_2
REMARK    2  A    between atoms: C_2  and  C_3
REMARK    3  A    between atoms: N_5  and  C_6
REMARK    4  A    between atoms: C_11  and  C_12
REMARK    5  A    between atoms: C_17  and  C_18
REMARK                            x       y       z     vdW  Elec       q    Type
REMARK                         _______ _______ _______ _____ _____    ______ ____
ROOT
ATOM      1  C   UNL     1       0.256  10.723  20.490  0.00  0.00    +0.000 C 
ATOM      2  C   UNL     1      -0.355  10.048  21.724  0.00  0.00    +0.000 C 
ATOM      3  C   UNL     1       0.697   9.207  22.433  0.00  0.00    +0.000 C 
ATOM      4  C   UNL     1       1.160   8.081  21.513  0.00  0.00    +0.000 C 
ATOM      5  C   UNL     1       1.475   8.489  20.086  0.00  0.00    +0.000 A 
ATOM      6  C   UNL     1       2.158   7.625  19.183  0.00  0.00    +0.000 A 
ATOM      7  C   UNL     1       2.366   8.136  17.890  0.00  0.00    +0.000 A 
ATOM      8  N   UNL     1       1.978   9.352  17.441  0.00  0.00    +0.000 NA
ATOM      9  C   UNL     1       1.310  10.124  18.315  0.00  0.00    +0.000 A 
ATOM     10  C   UNL     1       1.022   9.749  19.624  0.00  0.00    +0.000 A 
ENDROOT
BRANCH   6  11
ATOM     11  C   UNL     1       2.629   6.245  19.494  0.00  0.00    +0.000 A 
ATOM     12  C   UNL     1       3.920   5.808  19.132  0.00  0.00    +0.000 A 
ATOM     13  C   UNL     1       4.348   4.499  19.388  0.00  0.00    +0.000 A 
ATOM     14  C   UNL     1       3.510   3.612  20.053  0.00  0.00    +0.000 A 
ATOM     15  F   UNL     1       3.948   2.372  20.311  0.00  0.00    +0.000 F 
ATOM     16  C   UNL     1       2.232   3.999  20.437  0.00  0.00    +0.000 A 
ATOM     17  C   UNL     1       1.330   3.092  21.216  0.00  0.00    +0.000 C 
ATOM     18  C   UNL     1       1.798   5.295  20.116  0.00  0.00    +0.000 A 
ENDBRANCH   6  11
BRANCH   1  21
ATOM     19  C   UNL     1       0.834  13.123  20.565  0.00  0.00    +0.000 C 
ATOM     20  O   UNL     1      -0.118  13.443  19.863  0.00  0.00    +0.000 OA
ATOM     21  N   UNL     1       1.129  11.817  20.884  0.00  0.00    +0.000 N 
ATOM     22  H   UNL     1       1.860  11.628  21.559  0.00  0.00    +0.000 HD
BRANCH  19  24
ATOM     23  C   UNL     1       3.175  14.042  20.550  0.00  0.00    +0.000 C 
ATOM     24  C   UNL     1       1.798  14.115  21.184  0.00  0.00    +0.000 C 
ENDBRANCH  19  24
ENDBRANCH   1  21
TORSDOF 3
ENDMDL
MODEL 2
REMARK VINA RESULT:      -7.1      5.214      7.836
REMARK  Name = 
REMARK  5 active torsions:
REMARK  status: ('A' for Active; 'I' for Inactive)
REMARK    1  A    between atoms: C_1  and  C_2
REMARK    2  A    between atoms: C_2  and  C_3
REMARK    3  A    between atoms: N_5  and  C_6
REMARK    4  A    between atoms: C_11  and  C_12
REMARK    5  A    between atoms: C_17  and  C_18
REMARK                            x       y       z     vdW  Elec       q    Type
REMARK                         _______ _______ _______ _____ _____    ______ ____
ROOT
ATOM      1  C   UNL     1       3.984   5.607  19.424  0.00  0.00    +0.000 C 
ATOM      2  C   UNL     1       2.908   6.223  18.522  0.00  0.00    +0.000 C 
ATOM      3  C   UNL     1       2.715   5.365  17.280  0.00  0.00    +0.000 C 
ATOM      4  C   UNL     1       4.002   5.349  16.461  0.00  0.00    +0.000 C 
ATOM      5  C   UNL     1       5.277   5.113  17.250  0.00  0.00    +0.000 A 
ATOM      6  C   UNL     1       6.516   4.813  16.616  0.00  0.00    +0.000 A 
ATOM      7  C   UNL     1       7.613   4.633  17.477  0.00  0.00    +0.000 A 
ATOM      8  N   UNL     1       7.591   4.721  18.828  0.00  0.00    +0.000 NA
ATOM      9  C   UNL     1       6.408   5.036  19.383  0.00  0.00    +0.000 A 
ATOM     10  C   UNL     1       5.240   5.253  18.659  0.00  0.00    +0.000 A 
ENDROOT
BRANCH   6  11
ATOM     11  C   UNL     1       6.734   4.707  15.145  0.00  0.00    +0.000 A 
ATOM     12  C   UNL     1       7.736   5.455  14.493  0.00  0.00    +0.000 A 
ATOM     13  C   UNL     1       7.914   5.386  13.105  0.00  0.00    +0.000 A 
ATOM     14  C   UNL     1       7.124   4.533  12.346  0.00  0.00    +0.000 A 
ATOM     15  F   UNL     1       7.327   4.462  11.023  0.00  0.00    +0.000 F 
ATOM     16  C   UNL     1       6.128   3.769  12.944  0.00  0.00    +0.000 A 
ATOM     17  C   UNL     1       5.306   2.788  12.166  0.00  0.00    +0.000 C 
ATOM     18  C   UNL     1       5.923   3.899  14.327  0.00  0.00    +0.000 A 
ENDBRANCH   6  11
BRANCH   1  21
ATOM     19  C   UNL     1       2.369   4.483  20.916  0.00  0.00    +0.000 C 
ATOM     20  O   UNL     1       1.803   5.531  21.204  0.00  0.00    +0.000 OA
ATOM     21  N   UNL     1       3.473   4.423  20.096  0.00  0.00    +0.000 N 
ATOM     22  H   UNL     1       3.824   3.519  19.807  0.00  0.00    +0.000 HD
BRANCH  19  24
ATOM     23  C   UNL     1       1.673   2.156  20.260  0.00  0.00    +0.000 C 
ATOM     24  C   UNL     1       1.923   3.120  21.406  0.00  0.00    +0.000 C 
ENDBRANCH  19  24
ENDBRANCH   1  21
TORSDOF 3
ENDMDL
MODEL 3
REMARK VINA RESULT:      -7.1      0.428      1.424
REMARK  Name = 
REMARK  5 active torsions:
REMARK  status: ('A' for Active; 'I' for Inactive)
REMARK    1  A    between atoms: C_1  and  C_2
REMARK    2  A    between atoms: C_2  and  C_3
REMARK    3  A    between atoms: N_5  and  C_6
REMARK    4  A    between atoms: C_11  and  C_12
REMARK    5  A    between atoms: C_17  and  C_18
REMARK                            x       y       z     vdW  Elec       q    Type
REMARK                         _______ _______ _______ _____ _____    ______ ____
ROOT
ATOM      1  C   UNL     1       0.231  10.964  20.593  0.00  0.00    +0.000 C 
ATOM      2  C   UNL     1      -0.428  10.325  21.822  0.00  0.00    +0.000 C 
ATOM      3  C   UNL     1       0.576   9.443  22.551  0.00  0.00    +0.000 C 
ATOM      4  C   UNL     1       1.002   8.291  21.646  0.00  0.00    +0.000 C 
ATOM      5  C   UNL     1       1.355   8.675  20.220  0.00  0.00    +0.000 A 
ATOM      6  C   UNL     1       2.013   7.776  19.334  0.00  0.00    +0.000 A 
ATOM      7  C   UNL     1       2.263   8.268  18.041  0.00  0.00    +0.000 A 
ATOM      8  N   UNL     1       1.936   9.498  17.578  0.00  0.00    +0.000 NA
ATOM      9  C   UNL     1       1.290  10.304  18.438  0.00  0.00    +0.000 A 
ATOM     10  C   UNL     1       0.966   9.951  19.745  0.00  0.00    +0.000 A 
ENDROOT
BRANCH   6  11
ATOM     11  C   UNL     1       2.417   6.378  19.660  0.00  0.00    +0.000 A 
ATOM     12  C   UNL     1       1.635   5.562  20.502  0.00  0.00    +0.000 A 
ATOM     13  C   UNL     1       2.035   4.263  20.840  0.00  0.00    +0.000 A 
ATOM     14  C   UNL     1       3.205   3.736  20.306  0.00  0.00    +0.000 A 
ATOM     15  F   UNL     1       3.557   2.482  20.622  0.00  0.00    +0.000 F 
ATOM     16  C   UNL     1       4.005   4.499  19.465  0.00  0.00    +0.000 A 
ATOM     17  C   UNL     1       5.234   3.938  18.818  0.00  0.00    +0.000 C 
ATOM     18  C   UNL     1       3.620   5.821  19.187  0.00  0.00    +0.000 A 
ENDBRANCH   6  11
BRANCH   1  21
ATOM     19  C   UNL     1       0.938  13.330  20.624  0.00  0.00    +0.000 C 
ATOM     20  O   UNL     1       0.036  13.679  19.871  0.00  0.00    +0.000 OA
ATOM     21  N   UNL     1       1.146  12.020  20.994  0.00  0.00    +0.000 N 
ATOM     22  H   UNL     1       1.835  11.813  21.706  0.00  0.00    +0.000 HD
BRANCH  19  24
ATOM     23  C   UNL     1       3.294  14.210  20.599  0.00  0.00    +0.000 C 
ATOM     24  C   UNL     1       1.928  14.286  21.257  0.00  0.00    +0.000 C 
ENDBRANCH  19  24
ENDBRANCH   1  21
TORSDOF 3
ENDMDL
MODEL 4
REMARK VINA RESULT:      -6.9      2.634      4.015
REMARK  Name = 
REMARK  5 active torsions:
REMARK  status: ('A' for Active; 'I' for Inactive)
REMARK    1  A    between atoms: C_1  and  C_2
REMARK    2  A    between atoms: C_2  and  C_3
REMARK    3  A    between atoms: N_5  and  C_6
REMARK    4  A    between atoms: C_11  and  C_12
REMARK    5  A    between atoms: C_17  and  C_18
REMARK                            x       y       z     vdW  Elec       q    Type
REMARK                         _______ _______ _______ _____ _____    ______ ____
ROOT
ATOM      1  C   UNL     1      -1.369  12.314  19.913  0.00  0.00    +0.000 C 
ATOM      2  C   UNL     1      -1.172  12.302  18.393  0.00  0.00    +0.000 C 
ATOM      3  C   UNL     1      -1.326  10.885  17.858  0.00  0.00    +0.000 C 
ATOM      4  C   UNL     1      -0.232   9.994  18.439  0.00  0.00    +0.000 C 
ATOM      5  C   UNL     1      -0.004  10.128  19.934  0.00  0.00    +0.000 A 
ATOM      6  C   UNL     1       0.785   9.196  20.667  0.00  0.00    +0.000 A 
ATOM      7  C   UNL     1       0.917   9.458  22.041  0.00  0.00    +0.000 A 
ATOM      8  N   UNL     1       0.371  10.500  22.712  0.00  0.00    +0.000 NA
ATOM      9  C   UNL     1      -0.341  11.371  21.977  0.00  0.00    +0.000 A 
ATOM     10  C   UNL     1      -0.549  11.249  20.606  0.00  0.00    +0.000 A 
ENDROOT
BRANCH   6  11
ATOM     11  C   UNL     1       1.485   8.013  20.092  0.00  0.00    +0.000 A 
ATOM     12  C   UNL     1       2.175   8.089  18.864  0.00  0.00    +0.000 A 
ATOM     13  C   UNL     1       2.799   6.967  18.304  0.00  0.00    +0.000 A 
ATOM     14  C   UNL     1       2.786   5.755  18.983  0.00  0.00    +0.000 A 
ATOM     15  F   UNL     1       3.411   4.699  18.442  0.00  0.00    +0.000 F 
ATOM     16  C   UNL     1       2.127   5.632  20.200  0.00  0.00    +0.000 A 
ATOM     17  C   UNL     1       2.153   4.359  20.990  0.00  0.00    +0.000 C 
ATOM     18  C   UNL     1       1.454   6.751  20.715  0.00  0.00    +0.000 A 
ENDBRANCH   6  11
BRANCH   1  21
ATOM     19  C   UNL     1      -3.478  13.123  20.912  0.00  0.00    +0.000 C 
ATOM     20  O   UNL     1      -2.960  14.148  21.339  0.00  0.00    +0.000 OA
ATOM     21  N   UNL     1      -2.774  12.143  20.249  0.00  0.00    +0.000 N 
ATOM     22  H   UNL     1      -3.278  11.376  19.823  0.00  0.00    +0.000 HD
BRANCH  19  24
ATOM     23  C   UNL     1      -5.511  12.163  19.784  0.00  0.00    +0.000 C 
ATOM     24  C   UNL     1      -4.953  12.804  21.042  0.00  0.00    +0.000 C 
ENDBRANCH  19  24
ENDBRANCH   1  21
TORSDOF 3
ENDMDL
MODEL 5
REMARK VINA RESULT:      -6.9      5.105      7.835
REMARK  Name = 
REMARK  5 active torsions:
REMARK  status: ('A' for Active; 'I' for Inactive)
REMARK    1  A    between atoms: C_1  and  C_2
REMARK    2  A    between atoms: C_2  and  C_3
REMARK    3  A    between atoms: N_5  and  C_6
REMARK    4  A    between atoms: C_11  and  C_12
REMARK    5  A    between atoms: C_17  and  C_18
REMARK                            x       y       z     vdW  Elec       q    Type
REMARK                         _______ _______ _______ _____ _____    ______ ____
ROOT
ATOM      1  C   UNL     1       3.929   5.747  19.587  0.00  0.00    +0.000 C 
ATOM      2  C   UNL     1       2.817   6.271  18.671  0.00  0.00    +0.000 C 
ATOM      3  C   UNL     1       2.620   5.323  17.496  0.00  0.00    +0.000 C 
ATOM      4  C   UNL     1       3.889   5.282  16.650  0.00  0.00    +0.000 C 
ATOM      5  C   UNL     1       5.187   5.135  17.423  0.00  0.00    +0.000 A 
ATOM      6  C   UNL     1       6.419   4.822  16.782  0.00  0.00    +0.000 A 
ATOM      7  C   UNL     1       7.539   4.732  17.627  0.00  0.00    +0.000 A 
ATOM      8  N   UNL     1       7.544   4.915  18.968  0.00  0.00    +0.000 NA
ATOM      9  C   UNL     1       6.367   5.238  19.528  0.00  0.00    +0.000 A 
ATOM     10  C   UNL     1       5.176   5.373  18.819  0.00  0.00    +0.000 A 
ENDROOT
BRANCH   6  11
ATOM     11  C   UNL     1       6.607   4.619  15.317  0.00  0.00    +0.000 A 
ATOM     12  C   UNL     1       5.871   3.648  14.607  0.00  0.00    +0.000 A 
ATOM     13  C   UNL     1       6.076   3.429  13.239  0.00  0.00    +0.000 A 
ATOM     14  C   UNL     1       6.990   4.209  12.541  0.00  0.00    +0.000 A 
ATOM     15  F   UNL     1       7.153   4.002  11.227  0.00  0.00    +0.000 F 
ATOM     16  C   UNL     1       7.734   5.185  13.195  0.00  0.00    +0.000 A 
ATOM     17  C   UNL     1       8.675   6.089  12.460  0.00  0.00    +0.000 C 
ATOM     18  C   UNL     1       7.559   5.346  14.579  0.00  0.00    +0.000 A 
ENDBRANCH   6  11
BRANCH   1  21
ATOM     19  C   UNL     1       2.294   4.646  21.075  0.00  0.00    +0.000 C 
ATOM     20  O   UNL     1       1.619   5.661  21.196  0.00  0.00    +0.000 OA
ATOM     21  N   UNL     1       3.466   4.601  20.353  0.00  0.00    +0.000 N 
ATOM     22  H   UNL     1       3.915   3.708  20.197  0.00  0.00    +0.000 HD
BRANCH  19  24
ATOM     23  C   UNL     1       1.487   2.304  20.636  0.00  0.00    +0.000 C 
ATOM     24  C   UNL     1       1.926   3.309  21.686  0.00  0.00    +0.000 C 
ENDBRANCH  19  24
ENDBRANCH   1  21
TORSDOF 3
ENDMDL
MODEL 6
REMARK VINA RESULT:      -6.7      2.646      4.296
REMARK  Name = 
REMARK  5 active torsions:
REMARK  status: ('A' for Active; 'I' for Inactive)
REMARK    1  A    between atoms: C_1  and  C_2
REMARK    2  A    between atoms: C_2  and  C_3
REMARK    3  A    between atoms: N_5  and  C_6
REMARK    4  A    between atoms: C_11  and  C_12
REMARK    5  A    between atoms: C_17  and  C_18
REMARK                            x       y       z     vdW  Elec       q    Type
REMARK                         _______ _______ _______ _____ _____    ______ ____
ROOT
ATOM      1  C   UNL     1      -1.354  12.301  20.242  0.00  0.00    +0.000 C 
ATOM      2  C   UNL     1      -1.036  12.356  18.743  0.00  0.00    +0.000 C 
ATOM      3  C   UNL     1      -1.189  10.973  18.126  0.00  0.00    +0.000 C 
ATOM      4  C   UNL     1      -0.172  10.018  18.745  0.00  0.00    +0.000 C 
ATOM      5  C   UNL     1      -0.061  10.071  20.257  0.00  0.00    +0.000 A 
ATOM      6  C   UNL     1       0.639   9.079  21.001  0.00  0.00    +0.000 A 
ATOM      7  C   UNL     1       0.668   9.270  22.393  0.00  0.00    +0.000 A 
ATOM      8  N   UNL     1       0.101  10.295  23.071  0.00  0.00    +0.000 NA
ATOM      9  C   UNL     1      -0.523  11.225  22.329  0.00  0.00    +0.000 A 
ATOM     10  C   UNL     1      -0.625  11.176  20.941  0.00  0.00    +0.000 A 
ENDROOT
BRANCH   6  11
ATOM     11  C   UNL     1       1.348   7.902  20.423  0.00  0.00    +0.000 A 
ATOM     12  C   UNL     1       1.226   6.617  20.990  0.00  0.00    +0.000 A 
ATOM     13  C   UNL     1       1.924   5.519  20.471  0.00  0.00    +0.000 A 
ATOM     14  C   UNL     1       2.722   5.673  19.344  0.00  0.00    +0.000 A 
ATOM     15  F   UNL     1       3.361   4.605  18.848  0.00  0.00    +0.000 F 
ATOM     16  C   UNL     1       2.867   6.919  18.744  0.00  0.00    +0.000 A 
ATOM     17  C   UNL     1       3.663   7.106  17.490  0.00  0.00    +0.000 C 
ATOM     18  C   UNL     1       2.210   8.020  19.317  0.00  0.00    +0.000 A 
ENDBRANCH   6  11
BRANCH   1  21
ATOM     19  C   UNL     1      -3.505  13.116  21.140  0.00  0.00    +0.000 C 
ATOM     20  O   UNL     1      -2.988  14.085  21.683  0.00  0.00    +0.000 OA
ATOM     21  N   UNL     1      -2.786  12.162  20.457  0.00  0.00    +0.000 N 
ATOM     22  H   UNL     1      -3.281  11.449  19.936  0.00  0.00    +0.000 HD
BRANCH  19  24
ATOM     23  C   UNL     1      -5.461  12.241  19.822  0.00  0.00    +0.000 C 
ATOM     24  C   UNL     1      -4.996  12.847  21.134  0.00  0.00    +0.000 C 
ENDBRANCH  19  24
ENDBRANCH   1  21
TORSDOF 3
ENDMDL
MODEL 7
REMARK VINA RESULT:      -6.7      4.199      7.347
REMARK  Name = 
REMARK  5 active torsions:
REMARK  status: ('A' for Active; 'I' for Inactive)
REMARK    1  A    between atoms: C_1  and  C_2
REMARK    2  A    between atoms: C_2  and  C_3
REMARK    3  A    between atoms: N_5  and  C_6
REMARK    4  A    between atoms: C_11  and  C_12
REMARK    5  A    between atoms: C_17  and  C_18
REMARK                            x       y       z     vdW  Elec       q    Type
REMARK                         _______ _______ _______ _____ _____    ______ ____
ROOT
ATOM      1  C   UNL     1       4.314   5.037  17.705  0.00  0.00    +0.000 C 
ATOM      2  C   UNL     1       4.260   6.032  16.539  0.00  0.00    +0.000 C 
ATOM      3  C   UNL     1       4.395   7.456  17.062  0.00  0.00    +0.000 C 
ATOM      4  C   UNL     1       3.208   7.786  17.962  0.00  0.00    +0.000 C 
ATOM      5  C   UNL     1       2.846   6.725  18.986  0.00  0.00    +0.000 A 
ATOM      6  C   UNL     1       1.946   6.983  20.058  0.00  0.00    +0.000 A 
ATOM      7  C   UNL     1       1.698   5.899  20.918  0.00  0.00    +0.000 A 
ATOM      8  N   UNL     1       2.229   4.658  20.813  0.00  0.00    +0.000 NA
ATOM      9  C   UNL     1       3.049   4.450  19.769  0.00  0.00    +0.000 A 
ATOM     10  C   UNL     1       3.380   5.423  18.831  0.00  0.00    +0.000 A 
ENDROOT
BRANCH   6  11
ATOM     11  C   UNL     1       1.245   8.274  20.311  0.00  0.00    +0.000 A 
ATOM     12  C   UNL     1       1.118   9.253  19.304  0.00  0.00    +0.000 A 
ATOM     13  C   UNL     1       0.495  10.482  19.553  0.00  0.00    +0.000 A 
ATOM     14  C   UNL     1      -0.055  10.741  20.802  0.00  0.00    +0.000 A 
ATOM     15  F   UNL     1      -0.670  11.913  21.013  0.00  0.00    +0.000 F 
ATOM     16  C   UNL     1       0.037   9.804  21.825  0.00  0.00    +0.000 A 
ATOM     17  C   UNL     1      -0.605  10.023  23.160  0.00  0.00    +0.000 C 
ATOM     18  C   UNL     1       0.721   8.603  21.575  0.00  0.00    +0.000 A 
ENDBRANCH   6  11
BRANCH   1  21
ATOM     19  C   UNL     1       6.702   4.478  17.418  0.00  0.00    +0.000 C 
ATOM     20  O   UNL     1       6.539   4.077  16.272  0.00  0.00    +0.000 OA
ATOM     21  N   UNL     1       5.670   4.918  18.216  0.00  0.00    +0.000 N 
ATOM     22  H   UNL     1       5.884   5.342  19.110  0.00  0.00    +0.000 HD
BRANCH  19  24
ATOM     23  C   UNL     1       8.081   5.624  19.182  0.00  0.00    +0.000 C 
ATOM     24  C   UNL     1       8.052   4.558  18.101  0.00  0.00    +0.000 C 
ENDBRANCH  19  24
ENDBRANCH   1  21
TORSDOF 3
ENDMDL
MODEL 8
REMARK VINA RESULT:      -6.7      1.962      2.837
REMARK  Name = 
REMARK  5 active torsions:
REMARK  status: ('A' for Active; 'I' for Inactive)
REMARK    1  A    between atoms: C_1  and  C_2
REMARK    2  A    between atoms: C_2  and  C_3
REMARK    3  A    between atoms: N_5  and  C_6
REMARK    4  A    between atoms: C_11  and  C_12
REMARK    5  A    between atoms: C_17  and  C_18
REMARK                            x       y       z     vdW  Elec       q    Type
REMARK                         _______ _______ _______ _____ _____    ______ ____
ROOT
ATOM      1  C   UNL     1      -0.784  10.688  21.677  0.00  0.00    +0.000 C 
ATOM      2  C   UNL     1      -0.581   9.699  22.831  0.00  0.00    +0.000 C 
ATOM      3  C   UNL     1       0.882   9.288  22.914  0.00  0.00    +0.000 C 
ATOM      4  C   UNL     1       1.281   8.547  21.640  0.00  0.00    +0.000 C 
ATOM      5  C   UNL     1       0.837   9.194  20.341  0.00  0.00    +0.000 A 
ATOM      6  C   UNL     1       1.343   8.779  19.077  0.00  0.00    +0.000 A 
ATOM      7  C   UNL     1       0.828   9.462  17.961  0.00  0.00    +0.000 A 
ATOM      8  N   UNL     1      -0.090  10.456  17.987  0.00  0.00    +0.000 NA
ATOM      9  C   UNL     1      -0.563  10.796  19.198  0.00  0.00    +0.000 A 
ATOM     10  C   UNL     1      -0.156  10.203  20.389  0.00  0.00    +0.000 A 
ENDROOT
BRANCH   6  11
ATOM     11  C   UNL     1       2.330   7.684  18.855  0.00  0.00    +0.000 A 
ATOM     12  C   UNL     1       2.433   6.594  19.743  0.00  0.00    +0.000 A 
ATOM     13  C   UNL     1       3.388   5.586  19.557  0.00  0.00    +0.000 A 
ATOM     14  C   UNL     1       4.229   5.623  18.452  0.00  0.00    +0.000 A 
ATOM     15  F   UNL     1       5.118   4.635  18.278  0.00  0.00    +0.000 F 
ATOM     16  C   UNL     1       4.159   6.672  17.543  0.00  0.00    +0.000 A 
ATOM     17  C   UNL     1       5.002   6.706  16.305  0.00  0.00    +0.000 C 
ATOM     18  C   UNL     1       3.239   7.705  17.781  0.00  0.00    +0.000 A 
ENDBRANCH   6  11
BRANCH   1  21
ATOM     19  C   UNL     1      -1.045  13.115  22.051  0.00  0.00    +0.000 C 
ATOM     20  O   UNL     1      -2.222  13.109  21.710  0.00  0.00    +0.000 OA
ATOM     21  N   UNL     1      -0.246  11.994  22.020  0.00  0.00    +0.000 N 
ATOM     22  H   UNL     1       0.683  12.039  22.420  0.00  0.00    +0.000 HD
BRANCH  19  24
ATOM     23  C   UNL     1      -1.011  14.952  23.769  0.00  0.00    +0.000 C 
ATOM     24  C   UNL     1      -0.320  14.343  22.562  0.00  0.00    +0.000 C 
ENDBRANCH  19  24
ENDBRANCH   1  21
TORSDOF 3
ENDMDL
MODEL 9
REMARK VINA RESULT:      -6.6      2.440      4.023
REMARK  Name = 
REMARK  5 active torsions:
REMARK  status: ('A' for Active; 'I' for Inactive)
REMARK    1  A    between atoms: C_1  and  C_2
REMARK    2  A    between atoms: C_2  and  C_3
REMARK    3  A    between atoms: N_5  and  C_6
REMARK    4  A    between atoms: C_11  and  C_12
REMARK    5  A    between atoms: C_17  and  C_18
REMARK                            x       y       z     vdW  Elec       q    Type
REMARK                         _______ _______ _______ _____ _____    ______ ____
ROOT
ATOM      1  C   UNL     1       0.904   9.966  19.828  0.00  0.00    +0.000 C 
ATOM      2  C   UNL     1       1.758  10.766  18.836  0.00  0.00    +0.000 C 
ATOM      3  C   UNL     1       1.884  10.005  17.524  0.00  0.00    +0.000 C 
ATOM      4  C   UNL     1       2.622   8.690  17.762  0.00  0.00    +0.000 C 
ATOM      5  C   UNL     1       2.159   7.887  18.964  0.00  0.00    +0.000 A 
ATOM      6  C   UNL     1       2.557   6.536  19.172  0.00  0.00    +0.000 A 
ATOM      7  C   UNL     1       2.059   5.927  20.337  0.00  0.00    +0.000 A 
ATOM      8  N   UNL     1       1.252   6.504  21.257  0.00  0.00    +0.000 NA
ATOM      9  C   UNL     1       0.925   7.789  21.038  0.00  0.00    +0.000 A 
ATOM     10  C   UNL     1       1.351   8.525  19.936  0.00  0.00    +0.000 A 
ENDROOT
BRANCH   6  11
ATOM     11  C   UNL     1       3.463   5.753  18.284  0.00  0.00    +0.000 A 
ATOM     12  C   UNL     1       3.041   4.554  17.674  0.00  0.00    +0.000 A 
ATOM     13  C   UNL     1       3.904   3.797  16.872  0.00  0.00    +0.000 A 
ATOM     14  C   UNL     1       5.195   4.248  16.625  0.00  0.00    +0.000 A 
ATOM     15  F   UNL     1       5.998   3.522  15.833  0.00  0.00    +0.000 F 
ATOM     16  C   UNL     1       5.655   5.429  17.196  0.00  0.00    +0.000 A 
ATOM     17  C   UNL     1       7.015   5.978  16.895  0.00  0.00    +0.000 C 
ATOM     18  C   UNL     1       4.795   6.141  18.048  0.00  0.00    +0.000 A 
ENDBRANCH   6  11
BRANCH   1  21
ATOM     19  C   UNL     1      -1.185  11.207  19.391  0.00  0.00    +0.000 C 
ATOM     20  O   UNL     1      -0.699  12.279  19.730  0.00  0.00    +0.000 OA
ATOM     21  N   UNL     1      -0.499  10.015  19.452  0.00  0.00    +0.000 N 
ATOM     22  H   UNL     1      -0.917   9.185  19.052  0.00  0.00    +0.000 HD
BRANCH  19  24
ATOM     23  C   UNL     1      -2.636  10.146  17.631  0.00  0.00    +0.000 C 
ATOM     24  C   UNL     1      -2.592  11.052  18.849  0.00  0.00    +0.000 C 
ENDBRANCH  19  24
ENDBRANCH   1  21
TORSDOF 3
ENDMDL
