MODEL 1
REMARK VINA RESULT:      -8.0      0.000      0.000
REMARK  Name = 
REMARK  5 active torsions:
REMARK  status: ('A' for Active; 'I' for Inactive)
REMARK    1  A    between atoms: C_7  and  C_8
REMARK    2  A    between atoms: C_8  and  O_9
REMARK    3  A    between atoms: C_8  and  C_10
REMARK    4  A    between atoms: N_12  and  C_13
REMARK    5  A    between atoms: C_13  and  C_14
REMARK                            x       y       z     vdW  Elec       q    Type
REMARK                         _______ _______ _______ _____ _____    ______ ____
ROOT
ATOM      1  C   UNL     1       4.777   4.067  17.972  0.00  0.00    +0.000 A 
ATOM      2  C   UNL     1       4.493   4.289  16.637  0.00  0.00    +0.000 A 
ATOM      3  N   UNL     1       5.350   5.249  16.156  0.00  0.00    +0.000 N 
ATOM      4  C   UNL     1       6.221   5.643  17.152  0.00  0.00    +0.000 A 
ATOM      5  C   UNL     1       7.237   6.614  17.162  0.00  0.00    +0.000 A 
ATOM      6  C   UNL     1       7.967   6.801  18.338  0.00  0.00    +0.000 A 
ATOM      7  C   UNL     1       7.719   6.019  19.460  0.00  0.00    +0.000 A 
ATOM      8  C   UNL     1       6.706   5.054  19.443  0.00  0.00    +0.000 A 
ATOM      9  C   UNL     1       5.922   4.876  18.282  0.00  0.00    +0.000 A 
ENDROOT
BRANCH   1  10
ATOM     10  C   UNL     1       4.025   3.187  18.939  0.00  0.00    +0.000 C 
BRANCH  10  17
ATOM     11  C   UNL     1       1.912   5.179  20.883  0.00  0.00    +0.000 C 
ATOM     12  C   UNL     1       2.031   3.952  20.363  0.00  0.00    +0.000 C 
ATOM     13  C   UNL     1       1.565   2.740  21.073  0.00  0.00    +0.000 C 
ATOM     14  O   UNL     1       1.337   2.638  22.263  0.00  0.00    +0.000 OA
ATOM     15  O   UNL     1       1.462   1.749  20.148  0.00  0.00    +0.000 OA
ATOM     16  C   UNL     1       1.650   2.300  18.840  0.00  0.00    +0.000 C 
ATOM     17  C   UNL     1       2.516   3.540  19.014  0.00  0.00    +0.000 C 
ENDBRANCH  10  17
BRANCH  10  18
ATOM     18  O   UNL     1       4.152   1.805  18.568  0.00  0.00    +0.000 OA
ATOM     19  H   UNL     1       5.033   1.692  18.178  0.00  0.00    +0.000 HD
ENDBRANCH  10  18
ENDBRANCH   1  10
BRANCH   3  20
ATOM     20  C   UNL     1       5.308   5.775  14.795  0.00  0.00    +0.000 C 
BRANCH  20  21
ATOM     21  C   UNL     1       5.859   4.765  13.819  0.00  0.00    +0.000 A 
ATOM     22  C   UNL     1       7.203   4.823  13.417  0.00  0.00    +0.000 A 
ATOM     23  C   UNL     1       7.686   3.969  12.426  0.00  0.00    +0.000 A 
ATOM     24  C   UNL     1       6.833   3.041  11.838  0.00  0.00    +0.000 A 
ATOM     25 CL   UNL     1       7.412   2.022  10.580  0.00  0.00    +0.000 Cl
ATOM     26  C   UNL     1       5.504   2.946  12.248  0.00  0.00    +0.000 A 
ATOM     27  C   UNL     1       5.019   3.805  13.236  0.00  0.00    +0.000 A 
ENDBRANCH  20  21
ENDBRANCH   3  20
TORSDOF 5
ENDMDL
MODEL 2
REMARK VINA RESULT:      -7.9      4.029      7.776
REMARK  Name = 
REMARK  5 active torsions:
REMARK  status: ('A' for Active; 'I' for Inactive)
REMARK    1  A    between atoms: C_7  and  C_8
REMARK    2  A    between atoms: C_8  and  O_9
REMARK    3  A    between atoms: C_8  and  C_10
REMARK    4  A    between atoms: N_12  and  C_13
REMARK    5  A    between atoms: C_13  and  C_14
REMARK                            x       y       z     vdW  Elec       q    Type
REMARK                         _______ _______ _______ _____ _____    ______ ____
ROOT
ATOM      1  C   UNL     1       4.179   4.322  18.348  0.00  0.00    +0.000 A 
ATOM      2  C   UNL     1       4.098   5.345  19.276  0.00  0.00    +0.000 A 
ATOM      3  N   UNL     1       2.918   5.221  19.968  0.00  0.00    +0.000 N 
ATOM      4  C   UNL     1       2.230   4.107  19.529  0.00  0.00    +0.000 A 
ATOM      5  C   UNL     1       0.974   3.592  19.894  0.00  0.00    +0.000 A 
ATOM      6  C   UNL     1       0.525   2.429  19.265  0.00  0.00    +0.000 A 
ATOM      7  C   UNL     1       1.317   1.776  18.329  0.00  0.00    +0.000 A 
ATOM      8  C   UNL     1       2.566   2.294  17.971  0.00  0.00    +0.000 A 
ATOM      9  C   UNL     1       3.026   3.494  18.557  0.00  0.00    +0.000 A 
ENDROOT
BRANCH   1  10
ATOM     10  C   UNL     1       5.238   4.120  17.292  0.00  0.00    +0.000 C 
BRANCH  10  17
ATOM     11  C   UNL     1       5.390   4.096  13.801  0.00  0.00    +0.000 C 
ATOM     12  C   UNL     1       5.840   4.751  14.878  0.00  0.00    +0.000 C 
ATOM     13  C   UNL     1       7.203   5.323  14.948  0.00  0.00    +0.000 C 
ATOM     14  O   UNL     1       8.152   5.026  14.249  0.00  0.00    +0.000 OA
ATOM     15  O   UNL     1       7.205   6.231  15.961  0.00  0.00    +0.000 OA
ATOM     16  C   UNL     1       5.865   6.421  16.429  0.00  0.00    +0.000 C 
ATOM     17  C   UNL     1       5.114   5.133  16.124  0.00  0.00    +0.000 C 
ENDBRANCH  10  17
BRANCH  10  18
ATOM     18  O   UNL     1       6.550   4.241  17.863  0.00  0.00    +0.000 OA
ATOM     19  H   UNL     1       6.516   4.959  18.514  0.00  0.00    +0.000 HD
ENDBRANCH  10  18
ENDBRANCH   1  10
BRANCH   3  20
ATOM     20  C   UNL     1       2.470   6.158  20.994  0.00  0.00    +0.000 C 
BRANCH  20  21
ATOM     21  C   UNL     1       1.852   7.381  20.361  0.00  0.00    +0.000 A 
ATOM     22  C   UNL     1       2.159   7.729  19.037  0.00  0.00    +0.000 A 
ATOM     23  C   UNL     1       1.688   8.921  18.487  0.00  0.00    +0.000 A 
ATOM     24  C   UNL     1       0.894   9.767  19.254  0.00  0.00    +0.000 A 
ATOM     25 CL   UNL     1       0.353  11.262  18.597  0.00  0.00    +0.000 Cl
ATOM     26  C   UNL     1       0.549   9.422  20.560  0.00  0.00    +0.000 A 
ATOM     27  C   UNL     1       1.026   8.232  21.111  0.00  0.00    +0.000 A 
ENDBRANCH  20  21
ENDBRANCH   3  20
TORSDOF 5
ENDMDL
MODEL 3
REMARK VINA RESULT:      -7.8      4.076      7.809
REMARK  Name = 
REMARK  5 active torsions:
REMARK  status: ('A' for Active; 'I' for Inactive)
REMARK    1  A    between atoms: C_7  and  C_8
REMARK    2  A    between atoms: C_8  and  O_9
REMARK    3  A    between atoms: C_8  and  C_10
REMARK    4  A    between atoms: N_12  and  C_13
REMARK    5  A    between atoms: C_13  and  C_14
REMARK                            x       y       z     vdW  Elec       q    Type
REMARK                         _______ _______ _______ _____ _____    ______ ____
ROOT
ATOM      1  C   UNL     1       4.172   4.520  18.645  0.00  0.00    +0.000 A 
ATOM      2  C   UNL     1       3.910   5.518  19.567  0.00  0.00    +0.000 A 
ATOM      3  N   UNL     1       2.676   5.292  20.124  0.00  0.00    +0.000 N 
ATOM      4  C   UNL     1       2.129   4.137  19.604  0.00  0.00    +0.000 A 
ATOM      5  C   UNL     1       0.884   3.521  19.824  0.00  0.00    +0.000 A 
ATOM      6  C   UNL     1       0.599   2.337  19.140  0.00  0.00    +0.000 A 
ATOM      7  C   UNL     1       1.537   1.763  18.291  0.00  0.00    +0.000 A 
ATOM      8  C   UNL     1       2.773   2.381  18.077  0.00  0.00    +0.000 A 
ATOM      9  C   UNL     1       3.070   3.603  18.720  0.00  0.00    +0.000 A 
ENDROOT
BRANCH   1  10
ATOM     10  C   UNL     1       5.351   4.418  17.710  0.00  0.00    +0.000 C 
BRANCH  10  17
ATOM     11  C   UNL     1       5.199   4.327  14.220  0.00  0.00    +0.000 C 
ATOM     12  C   UNL     1       5.824   4.928  15.239  0.00  0.00    +0.000 C 
ATOM     13  C   UNL     1       7.252   5.309  15.181  0.00  0.00    +0.000 C 
ATOM     14  O   UNL     1       8.089   4.876  14.413  0.00  0.00    +0.000 OA
ATOM     15  O   UNL     1       7.464   6.221  16.168  0.00  0.00    +0.000 OA
ATOM     16  C   UNL     1       6.207   6.599  16.741  0.00  0.00    +0.000 C 
ATOM     17  C   UNL     1       5.266   5.422  16.532  0.00  0.00    +0.000 C 
ENDBRANCH  10  17
BRANCH  10  18
ATOM     18  O   UNL     1       6.579   4.649  18.418  0.00  0.00    +0.000 OA
ATOM     19  H   UNL     1       7.289   4.684  17.758  0.00  0.00    +0.000 HD
ENDBRANCH  10  18
ENDBRANCH   1  10
BRANCH   3  20
ATOM     20  C   UNL     1       2.046   6.175  21.103  0.00  0.00    +0.000 C 
BRANCH  20  21
ATOM     21  C   UNL     1       1.745   7.519  20.486  0.00  0.00    +0.000 A 
ATOM     22  C   UNL     1       1.083   8.510  21.228  0.00  0.00    +0.000 A 
ATOM     23  C   UNL     1       0.695   9.707  20.628  0.00  0.00    +0.000 A 
ATOM     24  C   UNL     1       0.977   9.929  19.284  0.00  0.00    +0.000 A 
ATOM     25 CL   UNL     1       0.454  11.382  18.527  0.00  0.00    +0.000 Cl
ATOM     26  C   UNL     1       1.663   8.970  18.539  0.00  0.00    +0.000 A 
ATOM     27  C   UNL     1       2.047   7.770  19.140  0.00  0.00    +0.000 A 
ENDBRANCH  20  21
ENDBRANCH   3  20
TORSDOF 5
ENDMDL
MODEL 4
REMARK VINA RESULT:      -7.6      0.968      1.300
REMARK  Name = 
REMARK  5 active torsions:
REMARK  status: ('A' for Active; 'I' for Inactive)
REMARK    1  A    between atoms: C_7  and  C_8
REMARK    2  A    between atoms: C_8  and  O_9
REMARK    3  A    between atoms: C_8  and  C_10
REMARK    4  A    between atoms: N_12  and  C_13
REMARK    5  A    between atoms: C_13  and  C_14
REMARK                            x       y       z     vdW  Elec       q    Type
REMARK                         _______ _______ _______ _____ _____    ______ ____
ROOT
ATOM      1  C   UNL     1       4.996   4.189  18.212  0.00  0.00    +0.000 A 
ATOM      2  C   UNL     1       4.610   4.351  16.893  0.00  0.00    +0.000 A 
ATOM      3  N   UNL     1       5.389   5.327  16.322  0.00  0.00    +0.000 N 
ATOM      4  C   UNL     1       6.309   5.792  17.241  0.00  0.00    +0.000 A 
ATOM      5  C   UNL     1       7.280   6.805  17.147  0.00  0.00    +0.000 A 
ATOM      6  C   UNL     1       8.080   7.063  18.262  0.00  0.00    +0.000 A 
ATOM      7  C   UNL     1       7.944   6.313  19.424  0.00  0.00    +0.000 A 
ATOM      8  C   UNL     1       6.976   5.307  19.510  0.00  0.00    +0.000 A 
ATOM      9  C   UNL     1       6.122   5.055  18.413  0.00  0.00    +0.000 A 
ENDROOT
BRANCH   1  10
ATOM     10  C   UNL     1       4.351   3.313  19.257  0.00  0.00    +0.000 C 
BRANCH  10  17
ATOM     11  C   UNL     1       1.760   2.437  21.433  0.00  0.00    +0.000 C 
ATOM     12  C   UNL     1       2.009   3.072  20.281  0.00  0.00    +0.000 C 
ATOM     13  C   UNL     1       1.079   3.026  19.131  0.00  0.00    +0.000 C 
ATOM     14  O   UNL     1       0.196   2.211  18.943  0.00  0.00    +0.000 OA
ATOM     15  O   UNL     1       1.411   4.054  18.306  0.00  0.00    +0.000 OA
ATOM     16  C   UNL     1       2.384   4.884  18.951  0.00  0.00    +0.000 C 
ATOM     17  C   UNL     1       3.131   3.991  19.932  0.00  0.00    +0.000 C 
ENDBRANCH  10  17
BRANCH  10  18
ATOM     18  O   UNL     1       3.920   2.070  18.680  0.00  0.00    +0.000 OA
ATOM     19  H   UNL     1       3.854   2.206  17.721  0.00  0.00    +0.000 HD
ENDBRANCH  10  18
ENDBRANCH   1  10
BRANCH   3  20
ATOM     20  C   UNL     1       5.230   5.803  14.951  0.00  0.00    +0.000 C 
BRANCH  20  21
ATOM     21  C   UNL     1       5.807   4.807  13.975  0.00  0.00    +0.000 A 
ATOM     22  C   UNL     1       7.162   4.869  13.611  0.00  0.00    +0.000 A 
ATOM     23  C   UNL     1       7.671   4.030  12.621  0.00  0.00    +0.000 A 
ATOM     24  C   UNL     1       6.833   3.113  11.995  0.00  0.00    +0.000 A 
ATOM     25 CL   UNL     1       7.446   2.112  10.737  0.00  0.00    +0.000 Cl
ATOM     26  C   UNL     1       5.493   3.014  12.366  0.00  0.00    +0.000 A 
ATOM     27  C   UNL     1       4.982   3.858  13.353  0.00  0.00    +0.000 A 
ENDBRANCH  20  21
ENDBRANCH   3  20
TORSDOF 5
ENDMDL
MODEL 5
REMARK VINA RESULT:      -7.5      4.086      7.542
REMARK  Name = 
REMARK  5 active torsions:
REMARK  status: ('A' for Active; 'I' for Inactive)
REMARK    1  A    between atoms: C_7  and  C_8
REMARK    2  A    between atoms: C_8  and  O_9
REMARK    3  A    between atoms: C_8  and  C_10
REMARK    4  A    between atoms: N_12  and  C_13
REMARK    5  A    between atoms: C_13  and  C_14
REMARK                            x       y       z     vdW  Elec       q    Type
REMARK                         _______ _______ _______ _____ _____    ______ ____
ROOT
ATOM      1  C   UNL     1       4.603   4.936  19.209  0.00  0.00    +0.000 A 
ATOM      2  C   UNL     1       3.902   5.853  19.972  0.00  0.00    +0.000 A 
ATOM      3  N   UNL     1       2.587   5.462  20.034  0.00  0.00    +0.000 N 
ATOM      4  C   UNL     1       2.415   4.278  19.346  0.00  0.00    +0.000 A 
ATOM      5  C   UNL     1       1.262   3.515  19.091  0.00  0.00    +0.000 A 
ATOM      6  C   UNL     1       1.393   2.340  18.347  0.00  0.00    +0.000 A 
ATOM      7  C   UNL     1       2.640   1.917  17.903  0.00  0.00    +0.000 A 
ATOM      8  C   UNL     1       3.783   2.681  18.160  0.00  0.00    +0.000 A 
ATOM      9  C   UNL     1       3.672   3.897  18.871  0.00  0.00    +0.000 A 
ENDROOT
BRANCH   1  10
ATOM     10  C   UNL     1       6.045   5.012  18.775  0.00  0.00    +0.000 C 
BRANCH  10  17
ATOM     11  C   UNL     1       4.282   6.810  16.353  0.00  0.00    +0.000 C 
ATOM     12  C   UNL     1       5.439   6.173  16.567  0.00  0.00    +0.000 C 
ATOM     13  C   UNL     1       6.127   5.398  15.512  0.00  0.00    +0.000 C 
ATOM     14  O   UNL     1       5.634   4.972  14.485  0.00  0.00    +0.000 OA
ATOM     15  O   UNL     1       7.414   5.226  15.915  0.00  0.00    +0.000 OA
ATOM     16  C   UNL     1       7.652   6.014  17.088  0.00  0.00    +0.000 C 
ATOM     17  C   UNL     1       6.307   6.173  17.781  0.00  0.00    +0.000 C 
ENDBRANCH  10  17
BRANCH  10  18
ATOM     18  O   UNL     1       6.907   5.182  19.911  0.00  0.00    +0.000 OA
ATOM     19  H   UNL     1       6.351   5.469  20.653  0.00  0.00    +0.000 HD
ENDBRANCH  10  18
ENDBRANCH   1  10
BRANCH   3  20
ATOM     20  C   UNL     1       1.540   6.220  20.714  0.00  0.00    +0.000 C 
BRANCH  20  21
ATOM     21  C   UNL     1       1.509   7.644  20.216  0.00  0.00    +0.000 A 
ATOM     22  C   UNL     1       1.049   8.679  21.045  0.00  0.00    +0.000 A 
ATOM     23  C   UNL     1       0.905   9.975  20.552  0.00  0.00    +0.000 A 
ATOM     24  C   UNL     1       1.233  10.250  19.229  0.00  0.00    +0.000 A 
ATOM     25 CL   UNL     1       1.008  11.836  18.602  0.00  0.00    +0.000 Cl
ATOM     26  C   UNL     1       1.724   9.243  18.399  0.00  0.00    +0.000 A 
ATOM     27  C   UNL     1       1.862   7.945  18.892  0.00  0.00    +0.000 A 
ENDBRANCH  20  21
ENDBRANCH   3  20
TORSDOF 5
ENDMDL
MODEL 6
REMARK VINA RESULT:      -7.5      4.371      7.739
REMARK  Name = 
REMARK  5 active torsions:
REMARK  status: ('A' for Active; 'I' for Inactive)
REMARK    1  A    between atoms: C_7  and  C_8
REMARK    2  A    between atoms: C_8  and  O_9
REMARK    3  A    between atoms: C_8  and  C_10
REMARK    4  A    between atoms: N_12  and  C_13
REMARK    5  A    between atoms: C_13  and  C_14
REMARK                            x       y       z     vdW  Elec       q    Type
REMARK                         _______ _______ _______ _____ _____    ______ ____
ROOT
ATOM      1  C   UNL     1       3.720   5.309  18.032  0.00  0.00    +0.000 A 
ATOM      2  C   UNL     1       3.585   6.413  18.854  0.00  0.00    +0.000 A 
ATOM      3  N   UNL     1       2.587   6.166  19.765  0.00  0.00    +0.000 N 
ATOM      4  C   UNL     1       2.080   4.896  19.574  0.00  0.00    +0.000 A 
ATOM      5  C   UNL     1       1.035   4.211  20.217  0.00  0.00    +0.000 A 
ATOM      6  C   UNL     1       0.737   2.911  19.801  0.00  0.00    +0.000 A 
ATOM      7  C   UNL     1       1.481   2.298  18.800  0.00  0.00    +0.000 A 
ATOM      8  C   UNL     1       2.520   2.986  18.165  0.00  0.00    +0.000 A 
ATOM      9  C   UNL     1       2.813   4.317  18.534  0.00  0.00    +0.000 A 
ENDROOT
BRANCH   1  10
ATOM     10  C   UNL     1       4.608   5.168  16.820  0.00  0.00    +0.000 C 
BRANCH  10  17
ATOM     11  C   UNL     1       6.840   5.539  19.483  0.00  0.00    +0.000 C 
ATOM     12  C   UNL     1       6.755   5.627  18.151  0.00  0.00    +0.000 C 
ATOM     13  C   UNL     1       7.491   6.648  17.373  0.00  0.00    +0.000 C 
ATOM     14  O   UNL     1       7.970   7.680  17.800  0.00  0.00    +0.000 OA
ATOM     15  O   UNL     1       7.510   6.230  16.079  0.00  0.00    +0.000 OA
ATOM     16  C   UNL     1       6.994   4.895  16.006  0.00  0.00    +0.000 C 
ATOM     17  C   UNL     1       6.050   4.731  17.188  0.00  0.00    +0.000 C 
ENDBRANCH  10  17
BRANCH  10  18
ATOM     18  O   UNL     1       4.062   4.209  15.901  0.00  0.00    +0.000 OA
ATOM     19  H   UNL     1       3.231   4.578  15.562  0.00  0.00    +0.000 HD
ENDBRANCH  10  18
ENDBRANCH   1  10
BRANCH   3  20
ATOM     20  C   UNL     1       2.131   7.132  20.761  0.00  0.00    +0.000 C 
BRANCH  20  21
ATOM     21  C   UNL     1       1.405   8.275  20.096  0.00  0.00    +0.000 A 
ATOM     22  C   UNL     1       0.404   8.979  20.784  0.00  0.00    +0.000 A 
ATOM     23  C   UNL     1      -0.352   9.955  20.136  0.00  0.00    +0.000 A 
ATOM     24  C   UNL     1      -0.104  10.244  18.798  0.00  0.00    +0.000 A 
ATOM     25 CL   UNL     1      -1.069  11.411  17.981  0.00  0.00    +0.000 Cl
ATOM     26  C   UNL     1       0.908   9.580  18.108  0.00  0.00    +0.000 A 
ATOM     27  C   UNL     1       1.661   8.599  18.756  0.00  0.00    +0.000 A 
ENDBRANCH  20  21
ENDBRANCH   3  20
TORSDOF 5
ENDMDL
MODEL 7
REMARK VINA RESULT:      -7.5      2.037      3.457
REMARK  Name = 
REMARK  5 active torsions:
REMARK  status: ('A' for Active; 'I' for Inactive)
REMARK    1  A    between atoms: C_7  and  C_8
REMARK    2  A    between atoms: C_8  and  O_9
REMARK    3  A    between atoms: C_8  and  C_10
REMARK    4  A    between atoms: N_12  and  C_13
REMARK    5  A    between atoms: C_13  and  C_14
REMARK                            x       y       z     vdW  Elec       q    Type
REMARK                         _______ _______ _______ _____ _____    ______ ____
ROOT
ATOM      1  C   UNL     1       3.424   4.401  19.964  0.00  0.00    +0.000 A 
ATOM      2  C   UNL     1       4.745   4.095  19.689  0.00  0.00    +0.000 A 
ATOM      3  N   UNL     1       5.251   5.049  18.840  0.00  0.00    +0.000 N 
ATOM      4  C   UNL     1       4.288   6.001  18.575  0.00  0.00    +0.000 A 
ATOM      5  C   UNL     1       4.311   7.133  17.741  0.00  0.00    +0.000 A 
ATOM      6  C   UNL     1       3.163   7.926  17.666  0.00  0.00    +0.000 A 
ATOM      7  C   UNL     1       2.040   7.624  18.425  0.00  0.00    +0.000 A 
ATOM      8  C   UNL     1       2.024   6.496  19.252  0.00  0.00    +0.000 A 
ATOM      9  C   UNL     1       3.154   5.651  19.313  0.00  0.00    +0.000 A 
ENDROOT
BRANCH   1  10
ATOM     10  C   UNL     1       2.435   3.580  20.755  0.00  0.00    +0.000 C 
BRANCH  10  17
ATOM     11  C   UNL     1       3.584   1.223  18.444  0.00  0.00    +0.000 C 
ATOM     12  C   UNL     1       2.589   2.089  18.670  0.00  0.00    +0.000 C 
ATOM     13  C   UNL     1       1.945   2.861  17.585  0.00  0.00    +0.000 C 
ATOM     14  O   UNL     1       2.396   3.070  16.475  0.00  0.00    +0.000 OA
ATOM     15  O   UNL     1       0.759   3.319  18.068  0.00  0.00    +0.000 OA
ATOM     16  C   UNL     1       0.507   2.725  19.346  0.00  0.00    +0.000 C 
ATOM     17  C   UNL     1       1.867   2.388  19.941  0.00  0.00    +0.000 C 
ENDBRANCH  10  17
BRANCH  10  18
ATOM     18  O   UNL     1       3.045   3.067  21.949  0.00  0.00    +0.000 OA
ATOM     19  H   UNL     1       3.154   3.813  22.560  0.00  0.00    +0.000 HD
ENDBRANCH  10  18
ENDBRANCH   1  10
BRANCH   3  20
ATOM     20  C   UNL     1       6.605   5.022  18.294  0.00  0.00    +0.000 C 
BRANCH  20  21
ATOM     21  C   UNL     1       6.581   4.625  16.838  0.00  0.00    +0.000 A 
ATOM     22  C   UNL     1       7.341   5.332  15.895  0.00  0.00    +0.000 A 
ATOM     23  C   UNL     1       7.230   5.049  14.534  0.00  0.00    +0.000 A 
ATOM     24  C   UNL     1       6.366   4.045  14.107  0.00  0.00    +0.000 A 
ATOM     25 CL   UNL     1       6.187   3.726  12.426  0.00  0.00    +0.000 Cl
ATOM     26  C   UNL     1       5.628   3.308  15.032  0.00  0.00    +0.000 A 
ATOM     27  C   UNL     1       5.736   3.597  16.394  0.00  0.00    +0.000 A 
ENDBRANCH  20  21
ENDBRANCH   3  20
TORSDOF 5
ENDMDL
MODEL 8
REMARK VINA RESULT:      -7.4      6.726      8.863
REMARK  Name = 
REMARK  5 active torsions:
REMARK  status: ('A' for Active; 'I' for Inactive)
REMARK    1  A    between atoms: C_7  and  C_8
REMARK    2  A    between atoms: C_8  and  O_9
REMARK    3  A    between atoms: C_8  and  C_10
REMARK    4  A    between atoms: N_12  and  C_13
REMARK    5  A    between atoms: C_13  and  C_14
REMARK                            x       y       z     vdW  Elec       q    Type
REMARK                         _______ _______ _______ _____ _____    ______ ____
ROOT
ATOM      1  C   UNL     1      -0.149   9.883  18.623  0.00  0.00    +0.000 A 
ATOM      2  C   UNL     1       0.866   9.045  18.196  0.00  0.00    +0.000 A 
ATOM      3  N   UNL     1       1.548   8.583  19.295  0.00  0.00    +0.000 N 
ATOM      4  C   UNL     1       0.976   9.081  20.448  0.00  0.00    +0.000 A 
ATOM      5  C   UNL     1       1.336   8.933  21.799  0.00  0.00    +0.000 A 
ATOM      6  C   UNL     1       0.558   9.569  22.768  0.00  0.00    +0.000 A 
ATOM      7  C   UNL     1      -0.567  10.301  22.407  0.00  0.00    +0.000 A 
ATOM      8  C   UNL     1      -0.919  10.445  21.061  0.00  0.00    +0.000 A 
ATOM      9  C   UNL     1      -0.124   9.850  20.057  0.00  0.00    +0.000 A 
ENDROOT
BRANCH   1  10
ATOM     10  C   UNL     1      -1.082  10.706  17.769  0.00  0.00    +0.000 C 
BRANCH  10  17
ATOM     11  C   UNL     1      -2.992  10.598  14.845  0.00  0.00    +0.000 C 
ATOM     12  C   UNL     1      -3.093  10.578  16.179  0.00  0.00    +0.000 C 
ATOM     13  C   UNL     1      -4.209  11.228  16.901  0.00  0.00    +0.000 C 
ATOM     14  O   UNL     1      -4.951  12.088  16.468  0.00  0.00    +0.000 OA
ATOM     15  O   UNL     1      -4.236  10.702  18.155  0.00  0.00    +0.000 OA
ATOM     16  C   UNL     1      -3.319   9.603  18.227  0.00  0.00    +0.000 C 
ATOM     17  C   UNL     1      -2.246   9.867  17.181  0.00  0.00    +0.000 C 
ENDBRANCH  10  17
BRANCH  10  18
ATOM     18  O   UNL     1      -1.639  11.789  18.530  0.00  0.00    +0.000 OA
ATOM     19  H   UNL     1      -1.674  11.502  19.456  0.00  0.00    +0.000 HD
ENDBRANCH  10  18
ENDBRANCH   1  10
BRANCH   3  20
ATOM     20  C   UNL     1       2.720   7.714  19.224  0.00  0.00    +0.000 C 
BRANCH  20  21
ATOM     21  C   UNL     1       2.302   6.266  19.154  0.00  0.00    +0.000 A 
ATOM     22  C   UNL     1       2.265   5.594  17.922  0.00  0.00    +0.000 A 
ATOM     23  C   UNL     1       1.765   4.296  17.834  0.00  0.00    +0.000 A 
ATOM     24  C   UNL     1       1.310   3.653  18.981  0.00  0.00    +0.000 A 
ATOM     25 CL   UNL     1       0.644   2.070  18.869  0.00  0.00    +0.000 Cl
ATOM     26  C   UNL     1       1.370   4.291  20.219  0.00  0.00    +0.000 A 
ATOM     27  C   UNL     1       1.865   5.593  20.304  0.00  0.00    +0.000 A 
ENDBRANCH  20  21
ENDBRANCH   3  20
TORSDOF 5
ENDMDL
MODEL 9
REMARK VINA RESULT:      -7.4      8.007     10.495
REMARK  Name = 
REMARK  5 active torsions:
REMARK  status: ('A' for Active; 'I' for Inactive)
REMARK    1  A    between atoms: C_7  and  C_8
REMARK    2  A    between atoms: C_8  and  O_9
REMARK    3  A    between atoms: C_8  and  C_10
REMARK    4  A    between atoms: N_12  and  C_13
REMARK    5  A    between atoms: C_13  and  C_14
REMARK                            x       y       z     vdW  Elec       q    Type
REMARK                         _______ _______ _______ _____ _____    ______ ____
ROOT
ATOM      1  C   UNL     1      -1.051  12.591  19.898  0.00  0.00    +0.000 A 
ATOM      2  C   UNL     1       0.269  12.236  19.681  0.00  0.00    +0.000 A 
ATOM      3  N   UNL     1       0.305  11.212  18.767  0.00  0.00    +0.000 N 
ATOM      4  C   UNL     1      -0.975  10.905  18.352  0.00  0.00    +0.000 A 
ATOM      5  C   UNL     1      -1.451   9.918  17.472  0.00  0.00    +0.000 A 
ATOM      6  C   UNL     1      -2.827   9.840  17.242  0.00  0.00    +0.000 A 
ATOM      7  C   UNL     1      -3.699  10.741  17.840  0.00  0.00    +0.000 A 
ATOM      8  C   UNL     1      -3.218  11.722  18.714  0.00  0.00    +0.000 A 
ATOM      9  C   UNL     1      -1.837  11.794  19.000  0.00  0.00    +0.000 A 
ENDROOT
BRANCH   1  10
ATOM     10  C   UNL     1      -1.582  13.586  20.900  0.00  0.00    +0.000 C 
BRANCH  10  17
ATOM     11  C   UNL     1      -1.245  10.831  23.023  0.00  0.00    +0.000 C 
ATOM     12  C   UNL     1      -1.703  12.087  22.981  0.00  0.00    +0.000 C 
ATOM     13  C   UNL     1      -2.921  12.514  23.704  0.00  0.00    +0.000 C 
ATOM     14  O   UNL     1      -3.803  11.794  24.130  0.00  0.00    +0.000 OA
ATOM     15  O   UNL     1      -2.884  13.871  23.785  0.00  0.00    +0.000 OA
ATOM     16  C   UNL     1      -1.612  14.339  23.322  0.00  0.00    +0.000 C 
ATOM     17  C   UNL     1      -1.097  13.293  22.344  0.00  0.00    +0.000 C 
ENDBRANCH  10  17
BRANCH  10  18
ATOM     18  O   UNL     1      -1.184  14.920  20.548  0.00  0.00    +0.000 OA
ATOM     19  H   UNL     1      -1.695  15.175  19.763  0.00  0.00    +0.000 HD
ENDBRANCH  10  18
ENDBRANCH   1  10
BRANCH   3  20
ATOM     20  C   UNL     1       1.531  10.545  18.334  0.00  0.00    +0.000 C 
BRANCH  20  21
ATOM     21  C   UNL     1       1.617   9.160  18.924  0.00  0.00    +0.000 A 
ATOM     22  C   UNL     1       1.191   8.918  20.240  0.00  0.00    +0.000 A 
ATOM     23  C   UNL     1       1.380   7.670  20.831  0.00  0.00    +0.000 A 
ATOM     24  C   UNL     1       1.984   6.648  20.106  0.00  0.00    +0.000 A 
ATOM     25 CL   UNL     1       2.265   5.121  20.848  0.00  0.00    +0.000 Cl
ATOM     26  C   UNL     1       2.382   6.858  18.787  0.00  0.00    +0.000 A 
ATOM     27  C   UNL     1       2.198   8.110  18.198  0.00  0.00    +0.000 A 
ENDBRANCH  20  21
ENDBRANCH   3  20
TORSDOF 5
ENDMDL
