MODEL 1
REMARK VINA RESULT:      -9.3      0.000      0.000
REMARK  Name = 
REMARK  8 active torsions:
REMARK  status: ('A' for Active; 'I' for Inactive)
REMARK    1  A    between atoms: O_1  and  C_2
REMARK    2  A    between atoms: C_2  and  C_3
REMARK    3  A    between atoms: C_2  and  C_28
REMARK    4  A    between atoms: C_3  and  C_4
REMARK    5  A    between atoms: C_4  and  C_5
REMARK    6  A    between atoms: C_5  and  C_6
REMARK    7  A    between atoms: C_6  and  N_7
REMARK    8  A    between atoms: N_19  and  C_20
REMARK                            x       y       z     vdW  Elec       q    Type
REMARK                         _______ _______ _______ _____ _____    ______ ____
ROOT
ATOM      1  N   UNL     1       1.672   8.561  19.762  0.00  0.00    +0.000 NA
ATOM      2  C   UNL     1       1.915   8.564  18.302  0.00  0.00    +0.000 C 
ATOM      3  C   UNL     1       3.209   7.795  17.934  0.00  0.00    +0.000 C 
ATOM      4  C   UNL     1       3.237   6.480  18.649  0.00  0.00    +0.000 A 
ATOM      5  C   UNL     1       2.406   6.222  19.718  0.00  0.00    +0.000 A 
ATOM      6  C   UNL     1       2.623   4.885  20.125  0.00  0.00    +0.000 A 
ATOM      7  C   UNL     1       2.069   4.093  21.152  0.00  0.00    +0.000 A 
ATOM      8  C   UNL     1       2.507   2.786  21.312  0.00  0.00    +0.000 A 
ATOM      9  F   UNL     1       1.980   2.032  22.288  0.00  0.00    +0.000 F 
ATOM     10  C   UNL     1       3.488   2.252  20.497  0.00  0.00    +0.000 A 
ATOM     11  C   UNL     1       4.063   3.025  19.483  0.00  0.00    +0.000 A 
ATOM     12  C   UNL     1       3.598   4.344  19.274  0.00  0.00    +0.000 A 
ATOM     13  N   UNL     1       3.972   5.343  18.354  0.00  0.00    +0.000 N 
ATOM     14  C   UNL     1       1.420   7.193  20.272  0.00  0.00    +0.000 C 
ENDROOT
BRANCH  13  15
ATOM     15  C   UNL     1       4.929   5.209  17.304  0.00  0.00    +0.000 A 
ATOM     16  C   UNL     1       6.184   5.829  17.400  0.00  0.00    +0.000 A 
ATOM     17  C   UNL     1       7.101   5.730  16.353  0.00  0.00    +0.000 A 
ATOM     18  C   UNL     1       6.780   4.986  15.225  0.00  0.00    +0.000 A 
ATOM     19  F   UNL     1       7.664   4.889  14.224  0.00  0.00    +0.000 F 
ATOM     20  C   UNL     1       5.556   4.341  15.122  0.00  0.00    +0.000 A 
ATOM     21  C   UNL     1       4.626   4.460  16.154  0.00  0.00    +0.000 A 
ENDBRANCH  13  15
BRANCH   1  22
ATOM     22  C   UNL     1       0.551   9.450  20.104  0.00  0.00    +0.000 C 
BRANCH  22  23
ATOM     23  C   UNL     1      -0.281   8.948  21.293  0.00  0.00    +0.000 C 
BRANCH  23  24
ATOM     24  C   UNL     1       0.155   9.574  22.620  0.00  0.00    +0.000 C 
BRANCH  24  25
ATOM     25  C   UNL     1      -0.955  10.459  23.192  0.00  0.00    +0.000 C 
BRANCH  25  26
ATOM     26  C   UNL     1      -1.150  11.751  22.388  0.00  0.00    +0.000 C 
BRANCH  26  27
ATOM     27  C   UNL     1      -1.882  12.809  23.187  0.00  0.00    +0.000 A 
ATOM     28  C   UNL     1      -3.255  12.679  23.445  0.00  0.00    +0.000 A 
ATOM     29  C   UNL     1      -3.938  13.673  24.152  0.00  0.00    +0.000 A 
ATOM     30  C   UNL     1      -3.249  14.789  24.606  0.00  0.00    +0.000 A 
ATOM     31  F   UNL     1      -3.908  15.747  25.272  0.00  0.00    +0.000 F 
ATOM     32  C   UNL     1      -1.887  14.935  24.371  0.00  0.00    +0.000 A 
ATOM     33  C   UNL     1      -1.207  13.946  23.661  0.00  0.00    +0.000 A 
ENDBRANCH  26  27
BRANCH  26  34
ATOM     34  O   UNL     1       0.111  12.306  22.015  0.00  0.00    +0.000 OA
ATOM     35  H   UNL     1       0.451  11.785  21.269  0.00  0.00    +0.000 HD
ENDBRANCH  26  34
ENDBRANCH  25  26
ENDBRANCH  24  25
ENDBRANCH  23  24
ENDBRANCH  22  23
ENDBRANCH   1  22
TORSDOF 8
ENDMDL
MODEL 2
REMARK VINA RESULT:      -9.3      2.886      3.347
REMARK  Name = 
REMARK  8 active torsions:
REMARK  status: ('A' for Active; 'I' for Inactive)
REMARK    1  A    between atoms: O_1  and  C_2
REMARK    2  A    between atoms: C_2  and  C_3
REMARK    3  A    between atoms: C_2  and  C_28
REMARK    4  A    between atoms: C_3  and  C_4
REMARK    5  A    between atoms: C_4  and  C_5
REMARK    6  A    between atoms: C_5  and  C_6
REMARK    7  A    between atoms: C_6  and  N_7
REMARK    8  A    between atoms: N_19  and  C_20
REMARK                            x       y       z     vdW  Elec       q    Type
REMARK                         _______ _______ _______ _____ _____    ______ ____
ROOT
ATOM      1  N   UNL     1       1.638   8.665  19.768  0.00  0.00    +0.000 NA
ATOM      2  C   UNL     1       1.890   8.666  18.309  0.00  0.00    +0.000 C 
ATOM      3  C   UNL     1       3.179   7.885  17.949  0.00  0.00    +0.000 C 
ATOM      4  C   UNL     1       3.190   6.569  18.663  0.00  0.00    +0.000 A 
ATOM      5  C   UNL     1       2.350   6.318  19.728  0.00  0.00    +0.000 A 
ATOM      6  C   UNL     1       2.552   4.979  20.135  0.00  0.00    +0.000 A 
ATOM      7  C   UNL     1       1.984   4.193  21.158  0.00  0.00    +0.000 A 
ATOM      8  C   UNL     1       2.408   2.881  21.320  0.00  0.00    +0.000 A 
ATOM      9  F   UNL     1       1.867   2.132  22.292  0.00  0.00    +0.000 F 
ATOM     10  C   UNL     1       3.389   2.338  20.511  0.00  0.00    +0.000 A 
ATOM     11  C   UNL     1       3.978   3.106  19.501  0.00  0.00    +0.000 A 
ATOM     12  C   UNL     1       3.526   4.430  19.289  0.00  0.00    +0.000 A 
ATOM     13  N   UNL     1       3.916   5.425  18.373  0.00  0.00    +0.000 N 
ATOM     14  C   UNL     1       1.370   7.299  20.276  0.00  0.00    +0.000 C 
ENDROOT
BRANCH  13  15
ATOM     15  C   UNL     1       4.878   5.282  17.328  0.00  0.00    +0.000 A 
ATOM     16  C   UNL     1       6.144   5.877  17.439  0.00  0.00    +0.000 A 
ATOM     17  C   UNL     1       7.067   5.770  16.398  0.00  0.00    +0.000 A 
ATOM     18  C   UNL     1       6.740   5.043  15.261  0.00  0.00    +0.000 A 
ATOM     19  F   UNL     1       7.630   4.938  14.266  0.00  0.00    +0.000 F 
ATOM     20  C   UNL     1       5.504   4.423  15.142  0.00  0.00    +0.000 A 
ATOM     21  C   UNL     1       4.569   4.551  16.169  0.00  0.00    +0.000 A 
ENDBRANCH  13  15
BRANCH   1  22
ATOM     22  C   UNL     1       0.524   9.564  20.103  0.00  0.00    +0.000 C 
BRANCH  22  23
ATOM     23  C   UNL     1       0.335  10.702  19.089  0.00  0.00    +0.000 C 
BRANCH  23  24
ATOM     24  C   UNL     1      -0.079  12.018  19.753  0.00  0.00    +0.000 C 
BRANCH  24  25
ATOM     25  C   UNL     1      -1.188  12.703  18.951  0.00  0.00    +0.000 C 
BRANCH  25  26
ATOM     26  C   UNL     1      -1.993  11.714  18.098  0.00  0.00    +0.000 C 
BRANCH  26  27
ATOM     27  C   UNL     1      -3.456  11.694  18.489  0.00  0.00    +0.000 A 
ATOM     28  C   UNL     1      -4.396  11.032  17.684  0.00  0.00    +0.000 A 
ATOM     29  C   UNL     1      -5.752  11.043  18.026  0.00  0.00    +0.000 A 
ATOM     30  C   UNL     1      -6.165  11.708  19.172  0.00  0.00    +0.000 A 
ATOM     31  F   UNL     1      -7.467  11.730  19.490  0.00  0.00    +0.000 F 
ATOM     32  C   UNL     1      -5.252  12.363  19.989  0.00  0.00    +0.000 A 
ATOM     33  C   UNL     1      -3.900  12.355  19.646  0.00  0.00    +0.000 A 
ENDBRANCH  26  27
BRANCH  26  34
ATOM     34  O   UNL     1      -1.933  12.075  16.719  0.00  0.00    +0.000 OA
ATOM     35  H   UNL     1      -2.537  11.489  16.236  0.00  0.00    +0.000 HD
ENDBRANCH  26  34
ENDBRANCH  25  26
ENDBRANCH  24  25
ENDBRANCH  23  24
ENDBRANCH  22  23
ENDBRANCH   1  22
TORSDOF 8
ENDMDL
MODEL 3
REMARK VINA RESULT:      -9.2      3.395      3.990
REMARK  Name = 
REMARK  8 active torsions:
REMARK  status: ('A' for Active; 'I' for Inactive)
REMARK    1  A    between atoms: O_1  and  C_2
REMARK    2  A    between atoms: C_2  and  C_3
REMARK    3  A    between atoms: C_2  and  C_28
REMARK    4  A    between atoms: C_3  and  C_4
REMARK    5  A    between atoms: C_4  and  C_5
REMARK    6  A    between atoms: C_5  and  C_6
REMARK    7  A    between atoms: C_6  and  N_7
REMARK    8  A    between atoms: N_19  and  C_20
REMARK                            x       y       z     vdW  Elec       q    Type
REMARK                         _______ _______ _______ _____ _____    ______ ____
ROOT
ATOM      1  N   UNL     1       1.541   8.857  19.533  0.00  0.00    +0.000 NA
ATOM      2  C   UNL     1       1.810   8.801  18.078  0.00  0.00    +0.000 C 
ATOM      3  C   UNL     1       3.112   8.021  17.766  0.00  0.00    +0.000 C 
ATOM      4  C   UNL     1       3.129   6.736  18.534  0.00  0.00    +0.000 A 
ATOM      5  C   UNL     1       2.280   6.520  19.598  0.00  0.00    +0.000 A 
ATOM      6  C   UNL     1       2.492   5.201  20.062  0.00  0.00    +0.000 A 
ATOM      7  C   UNL     1       1.920   4.450  21.111  0.00  0.00    +0.000 A 
ATOM      8  C   UNL     1       2.357   3.152  21.332  0.00  0.00    +0.000 A 
ATOM      9  F   UNL     1       1.813   2.437  22.327  0.00  0.00    +0.000 F 
ATOM     10  C   UNL     1       3.354   2.587  20.557  0.00  0.00    +0.000 A 
ATOM     11  C   UNL     1       3.946   3.320  19.523  0.00  0.00    +0.000 A 
ATOM     12  C   UNL     1       3.483   4.628  19.251  0.00  0.00    +0.000 A 
ATOM     13  N   UNL     1       3.872   5.590  18.299  0.00  0.00    +0.000 N 
ATOM     14  C   UNL     1       1.282   7.510  20.093  0.00  0.00    +0.000 C 
ENDROOT
BRANCH  13  15
ATOM     15  C   UNL     1       4.848   5.415  17.273  0.00  0.00    +0.000 A 
ATOM     16  C   UNL     1       6.108   6.024  17.377  0.00  0.00    +0.000 A 
ATOM     17  C   UNL     1       7.045   5.886  16.352  0.00  0.00    +0.000 A 
ATOM     18  C   UNL     1       6.738   5.113  15.239  0.00  0.00    +0.000 A 
ATOM     19  F   UNL     1       7.641   4.978  14.259  0.00  0.00    +0.000 F 
ATOM     20  C   UNL     1       5.509   4.479  15.129  0.00  0.00    +0.000 A 
ATOM     21  C   UNL     1       4.560   4.638  16.139  0.00  0.00    +0.000 A 
ENDBRANCH  13  15
BRANCH   1  22
ATOM     22  C   UNL     1       0.413   9.757  19.818  0.00  0.00    +0.000 C 
BRANCH  22  23
ATOM     23  C   UNL     1       0.468  11.071  19.025  0.00  0.00    +0.000 C 
BRANCH  23  24
ATOM     24  C   UNL     1      -0.901  11.485  18.479  0.00  0.00    +0.000 C 
BRANCH  24  25
ATOM     25  C   UNL     1      -1.816  10.267  18.332  0.00  0.00    +0.000 C 
BRANCH  25  26
ATOM     26  C   UNL     1      -2.706  10.347  17.085  0.00  0.00    +0.000 C 
BRANCH  26  27
ATOM     27  C   UNL     1      -4.111  10.798  17.423  0.00  0.00    +0.000 A 
ATOM     28  C   UNL     1      -4.664  11.927  16.800  0.00  0.00    +0.000 A 
ATOM     29  C   UNL     1      -5.948  12.364  17.138  0.00  0.00    +0.000 A 
ATOM     30  C   UNL     1      -6.680  11.670  18.091  0.00  0.00    +0.000 A 
ATOM     31  F   UNL     1      -7.905  12.099  18.424  0.00  0.00    +0.000 F 
ATOM     32  C   UNL     1      -6.158  10.544  18.716  0.00  0.00    +0.000 A 
ATOM     33  C   UNL     1      -4.875  10.111  18.381  0.00  0.00    +0.000 A 
ENDBRANCH  26  27
BRANCH  26  34
ATOM     34  O   UNL     1      -2.177  11.286  16.150  0.00  0.00    +0.000 OA
ATOM     35  H   UNL     1      -1.250  11.446  16.387  0.00  0.00    +0.000 HD
ENDBRANCH  26  34
ENDBRANCH  25  26
ENDBRANCH  24  25
ENDBRANCH  23  24
ENDBRANCH  22  23
ENDBRANCH   1  22
TORSDOF 8
ENDMDL
MODEL 4
REMARK VINA RESULT:      -9.2      2.895      3.494
REMARK  Name = 
REMARK  8 active torsions:
REMARK  status: ('A' for Active; 'I' for Inactive)
REMARK    1  A    between atoms: O_1  and  C_2
REMARK    2  A    between atoms: C_2  and  C_3
REMARK    3  A    between atoms: C_2  and  C_28
REMARK    4  A    between atoms: C_3  and  C_4
REMARK    5  A    between atoms: C_4  and  C_5
REMARK    6  A    between atoms: C_5  and  C_6
REMARK    7  A    between atoms: C_6  and  N_7
REMARK    8  A    between atoms: N_19  and  C_20
REMARK                            x       y       z     vdW  Elec       q    Type
REMARK                         _______ _______ _______ _____ _____    ______ ____
ROOT
ATOM      1  N   UNL     1       1.573   8.630  19.961  0.00  0.00    +0.000 NA
ATOM      2  C   UNL     1       1.797   8.671  18.498  0.00  0.00    +0.000 C 
ATOM      3  C   UNL     1       3.087   7.913  18.095  0.00  0.00    +0.000 C 
ATOM      4  C   UNL     1       3.126   6.581  18.776  0.00  0.00    +0.000 A 
ATOM      5  C   UNL     1       2.309   6.294  19.849  0.00  0.00    +0.000 A 
ATOM      6  C   UNL     1       2.533   4.947  20.218  0.00  0.00    +0.000 A 
ATOM      7  C   UNL     1       1.993   4.129  21.232  0.00  0.00    +0.000 A 
ATOM      8  C   UNL     1       2.435   2.819  21.353  0.00  0.00    +0.000 A 
ATOM      9  F   UNL     1       1.921   2.040  22.316  0.00  0.00    +0.000 F 
ATOM     10  C   UNL     1       3.405   2.307  20.512  0.00  0.00    +0.000 A 
ATOM     11  C   UNL     1       3.967   3.107  19.511  0.00  0.00    +0.000 A 
ATOM     12  C   UNL     1       3.497   4.430  19.341  0.00  0.00    +0.000 A 
ATOM     13  N   UNL     1       3.859   5.452  18.442  0.00  0.00    +0.000 N 
ATOM     14  C   UNL     1       1.329   7.249  20.440  0.00  0.00    +0.000 C 
ENDROOT
BRANCH  13  15
ATOM     15  C   UNL     1       4.802   5.346  17.377  0.00  0.00    +0.000 A 
ATOM     16  C   UNL     1       4.496   4.603  16.226  0.00  0.00    +0.000 A 
ATOM     17  C   UNL     1       5.437   4.466  15.205  0.00  0.00    +0.000 A 
ATOM     18  C   UNL     1       6.669   5.098  15.315  0.00  0.00    +0.000 A 
ATOM     19  F   UNL     1       7.567   4.970  14.330  0.00  0.00    +0.000 F 
ATOM     20  C   UNL     1       6.981   5.861  16.431  0.00  0.00    +0.000 A 
ATOM     21  C   UNL     1       6.054   5.977  17.466  0.00  0.00    +0.000 A 
ENDBRANCH  13  15
BRANCH   1  22
ATOM     22  C   UNL     1       0.456   9.509  20.340  0.00  0.00    +0.000 C 
BRANCH  22  23
ATOM     23  C   UNL     1       0.330  10.751  19.446  0.00  0.00    +0.000 C 
BRANCH  23  24
ATOM     24  C   UNL     1      -0.348  11.923  20.162  0.00  0.00    +0.000 C 
BRANCH  24  25
ATOM     25  C   UNL     1      -1.285  12.668  19.210  0.00  0.00    +0.000 C 
BRANCH  25  26
ATOM     26  C   UNL     1      -2.041  11.723  18.268  0.00  0.00    +0.000 C 
BRANCH  26  27
ATOM     27  C   UNL     1      -3.532  11.733  18.534  0.00  0.00    +0.000 A 
ATOM     28  C   UNL     1      -4.047  12.390  19.661  0.00  0.00    +0.000 A 
ATOM     29  C   UNL     1      -5.420  12.370  19.926  0.00  0.00    +0.000 A 
ATOM     30  C   UNL     1      -6.275  11.701  19.062  0.00  0.00    +0.000 A 
ATOM     31  F   UNL     1      -7.589  11.671  19.325  0.00  0.00    +0.000 F 
ATOM     32  C   UNL     1      -5.790  11.051  17.934  0.00  0.00    +0.000 A 
ATOM     33  C   UNL     1      -4.420  11.067  17.673  0.00  0.00    +0.000 A 
ENDBRANCH  26  27
BRANCH  26  34
ATOM     34  O   UNL     1      -1.855  12.113  16.908  0.00  0.00    +0.000 OA
ATOM     35  H   UNL     1      -2.253  11.426  16.349  0.00  0.00    +0.000 HD
ENDBRANCH  26  34
ENDBRANCH  25  26
ENDBRANCH  24  25
ENDBRANCH  23  24
ENDBRANCH  22  23
ENDBRANCH   1  22
TORSDOF 8
ENDMDL
MODEL 5
REMARK VINA RESULT:      -9.2      3.240      4.127
REMARK  Name = 
REMARK  8 active torsions:
REMARK  status: ('A' for Active; 'I' for Inactive)
REMARK    1  A    between atoms: O_1  and  C_2
REMARK    2  A    between atoms: C_2  and  C_3
REMARK    3  A    between atoms: C_2  and  C_28
REMARK    4  A    between atoms: C_3  and  C_4
REMARK    5  A    between atoms: C_4  and  C_5
REMARK    6  A    between atoms: C_5  and  C_6
REMARK    7  A    between atoms: C_6  and  N_7
REMARK    8  A    between atoms: N_19  and  C_20
REMARK                            x       y       z     vdW  Elec       q    Type
REMARK                         _______ _______ _______ _____ _____    ______ ____
ROOT
ATOM      1  N   UNL     1       1.626   8.577  19.989  0.00  0.00    +0.000 NA
ATOM      2  C   UNL     1       1.868   8.624  18.529  0.00  0.00    +0.000 C 
ATOM      3  C   UNL     1       3.157   7.861  18.137  0.00  0.00    +0.000 C 
ATOM      4  C   UNL     1       3.179   6.524  18.810  0.00  0.00    +0.000 A 
ATOM      5  C   UNL     1       2.347   6.236  19.871  0.00  0.00    +0.000 A 
ATOM      6  C   UNL     1       2.558   4.886  20.236  0.00  0.00    +0.000 A 
ATOM      7  C   UNL     1       2.000   4.065  21.238  0.00  0.00    +0.000 A 
ATOM      8  C   UNL     1       2.431   2.751  21.356  0.00  0.00    +0.000 A 
ATOM      9  F   UNL     1       1.900   1.970  22.308  0.00  0.00    +0.000 F 
ATOM     10  C   UNL     1       3.408   2.238  20.524  0.00  0.00    +0.000 A 
ATOM     11  C   UNL     1       3.987   3.040  19.534  0.00  0.00    +0.000 A 
ATOM     12  C   UNL     1       3.529   4.367  19.367  0.00  0.00    +0.000 A 
ATOM     13  N   UNL     1       3.908   5.393  18.479  0.00  0.00    +0.000 N 
ATOM     14  C   UNL     1       1.367   7.195  20.456  0.00  0.00    +0.000 C 
ENDROOT
BRANCH  13  15
ATOM     15  C   UNL     1       4.863   5.286  17.424  0.00  0.00    +0.000 A 
ATOM     16  C   UNL     1       6.122   5.895  17.539  0.00  0.00    +0.000 A 
ATOM     17  C   UNL     1       7.038   5.824  16.489  0.00  0.00    +0.000 A 
ATOM     18  C   UNL     1       6.712   5.119  15.338  0.00  0.00    +0.000 A 
ATOM     19  F   UNL     1       7.595   5.049  14.334  0.00  0.00    +0.000 F 
ATOM     20  C   UNL     1       5.484   4.486  15.214  0.00  0.00    +0.000 A 
ATOM     21  C   UNL     1       4.555   4.578  16.251  0.00  0.00    +0.000 A 
ENDBRANCH  13  15
BRANCH   1  22
ATOM     22  C   UNL     1       0.510   9.461  20.360  0.00  0.00    +0.000 C 
BRANCH  22  23
ATOM     23  C   UNL     1       0.968  10.805  20.946  0.00  0.00    +0.000 C 
BRANCH  23  24
ATOM     24  C   UNL     1      -0.036  11.930  20.687  0.00  0.00    +0.000 C 
BRANCH  24  25
ATOM     25  C   UNL     1      -1.369  11.363  20.193  0.00  0.00    +0.000 C 
BRANCH  25  26
ATOM     26  C   UNL     1      -2.113  12.332  19.266  0.00  0.00    +0.000 C 
BRANCH  26  27
ATOM     27  C   UNL     1      -2.679  11.628  18.051  0.00  0.00    +0.000 A 
ATOM     28  C   UNL     1      -1.879  10.754  17.299  0.00  0.00    +0.000 A 
ATOM     29  C   UNL     1      -2.391  10.132  16.157  0.00  0.00    +0.000 A 
ATOM     30  C   UNL     1      -3.701  10.377  15.772  0.00  0.00    +0.000 A 
ATOM     31  F   UNL     1      -4.186   9.790  14.668  0.00  0.00    +0.000 F 
ATOM     32  C   UNL     1      -4.517  11.231  16.504  0.00  0.00    +0.000 A 
ATOM     33  C   UNL     1      -4.004  11.855  17.641  0.00  0.00    +0.000 A 
ENDBRANCH  26  27
BRANCH  26  34
ATOM     34  O   UNL     1      -3.210  12.938  19.948  0.00  0.00    +0.000 OA
ATOM     35  H   UNL     1      -3.639  13.550  19.328  0.00  0.00    +0.000 HD
ENDBRANCH  26  34
ENDBRANCH  25  26
ENDBRANCH  24  25
ENDBRANCH  23  24
ENDBRANCH  22  23
ENDBRANCH   1  22
TORSDOF 8
ENDMDL
MODEL 6
REMARK VINA RESULT:      -9.0      2.573      3.153
REMARK  Name = 
REMARK  8 active torsions:
REMARK  status: ('A' for Active; 'I' for Inactive)
REMARK    1  A    between atoms: O_1  and  C_2
REMARK    2  A    between atoms: C_2  and  C_3
REMARK    3  A    between atoms: C_2  and  C_28
REMARK    4  A    between atoms: C_3  and  C_4
REMARK    5  A    between atoms: C_4  and  C_5
REMARK    6  A    between atoms: C_5  and  C_6
REMARK    7  A    between atoms: C_6  and  N_7
REMARK    8  A    between atoms: N_19  and  C_20
REMARK                            x       y       z     vdW  Elec       q    Type
REMARK                         _______ _______ _______ _____ _____    ______ ____
ROOT
ATOM      1  N   UNL     1       1.590   8.677  19.734  0.00  0.00    +0.000 NA
ATOM      2  C   UNL     1       1.889   8.662  18.285  0.00  0.00    +0.000 C 
ATOM      3  C   UNL     1       3.179   7.862  17.974  0.00  0.00    +0.000 C 
ATOM      4  C   UNL     1       3.150   6.553  18.699  0.00  0.00    +0.000 A 
ATOM      5  C   UNL     1       2.273   6.322  19.738  0.00  0.00    +0.000 A 
ATOM      6  C   UNL     1       2.445   4.984  20.163  0.00  0.00    +0.000 A 
ATOM      7  C   UNL     1       1.834   4.214  21.174  0.00  0.00    +0.000 A 
ATOM      8  C   UNL     1       2.236   2.899  21.361  0.00  0.00    +0.000 A 
ATOM      9  F   UNL     1       1.655   2.165  22.321  0.00  0.00    +0.000 F 
ATOM     10  C   UNL     1       3.236   2.336  20.589  0.00  0.00    +0.000 A 
ATOM     11  C   UNL     1       3.867   3.088  19.592  0.00  0.00    +0.000 A 
ATOM     12  C   UNL     1       3.439   4.415  19.354  0.00  0.00    +0.000 A 
ATOM     13  N   UNL     1       3.871   5.398  18.442  0.00  0.00    +0.000 N 
ATOM     14  C   UNL     1       1.288   7.319  20.245  0.00  0.00    +0.000 C 
ENDROOT
BRANCH  13  15
ATOM     15  C   UNL     1       4.865   5.233  17.431  0.00  0.00    +0.000 A 
ATOM     16  C   UNL     1       6.127   5.831  17.569  0.00  0.00    +0.000 A 
ATOM     17  C   UNL     1       7.082   5.703  16.559  0.00  0.00    +0.000 A 
ATOM     18  C   UNL     1       6.790   4.952  15.428  0.00  0.00    +0.000 A 
ATOM     19  F   UNL     1       7.710   4.827  14.463  0.00  0.00    +0.000 F 
ATOM     20  C   UNL     1       5.558   4.330  15.284  0.00  0.00    +0.000 A 
ATOM     21  C   UNL     1       4.592   4.478  16.279  0.00  0.00    +0.000 A 
ENDBRANCH  13  15
BRANCH   1  22
ATOM     22  C   UNL     1       0.477   9.593  20.025  0.00  0.00    +0.000 C 
BRANCH  22  23
ATOM     23  C   UNL     1      -0.060   9.462  21.458  0.00  0.00    +0.000 C 
BRANCH  23  24
ATOM     24  C   UNL     1      -0.527  10.800  22.035  0.00  0.00    +0.000 C 
BRANCH  24  25
ATOM     25  C   UNL     1      -0.167  11.951  21.093  0.00  0.00    +0.000 C 
BRANCH  25  26
ATOM     26  C   UNL     1      -1.361  12.868  20.802  0.00  0.00    +0.000 C 
BRANCH  26  27
ATOM     27  C   UNL     1      -2.174  12.380  19.622  0.00  0.00    +0.000 A 
ATOM     28  C   UNL     1      -3.572  12.294  19.710  0.00  0.00    +0.000 A 
ATOM     29  C   UNL     1      -4.320  11.809  18.633  0.00  0.00    +0.000 A 
ATOM     30  C   UNL     1      -3.673  11.419  17.469  0.00  0.00    +0.000 A 
ATOM     31  F   UNL     1      -4.390  10.941  16.442  0.00  0.00    +0.000 F 
ATOM     32  C   UNL     1      -2.291  11.503  17.354  0.00  0.00    +0.000 A 
ATOM     33  C   UNL     1      -1.544  11.983  18.431  0.00  0.00    +0.000 A 
ENDBRANCH  26  27
BRANCH  26  34
ATOM     34  O   UNL     1      -2.240  12.920  21.925  0.00  0.00    +0.000 OA
ATOM     35  H   UNL     1      -1.754  13.326  22.660  0.00  0.00    +0.000 HD
ENDBRANCH  26  34
ENDBRANCH  25  26
ENDBRANCH  24  25
ENDBRANCH  23  24
ENDBRANCH  22  23
ENDBRANCH   1  22
TORSDOF 8
ENDMDL
MODEL 7
REMARK VINA RESULT:      -9.0      1.196      1.369
REMARK  Name = 
REMARK  8 active torsions:
REMARK  status: ('A' for Active; 'I' for Inactive)
REMARK    1  A    between atoms: O_1  and  C_2
REMARK    2  A    between atoms: C_2  and  C_3
REMARK    3  A    between atoms: C_2  and  C_28
REMARK    4  A    between atoms: C_3  and  C_4
REMARK    5  A    between atoms: C_4  and  C_5
REMARK    6  A    between atoms: C_5  and  C_6
REMARK    7  A    between atoms: C_6  and  N_7
REMARK    8  A    between atoms: N_19  and  C_20
REMARK                            x       y       z     vdW  Elec       q    Type
REMARK                         _______ _______ _______ _____ _____    ______ ____
ROOT
ATOM      1  N   UNL     1       1.714   8.684  19.698  0.00  0.00    +0.000 NA
ATOM      2  C   UNL     1       1.941   8.671  18.235  0.00  0.00    +0.000 C 
ATOM      3  C   UNL     1       3.218   7.876  17.860  0.00  0.00    +0.000 C 
ATOM      4  C   UNL     1       3.229   6.566  18.585  0.00  0.00    +0.000 A 
ATOM      5  C   UNL     1       2.405   6.331  19.666  0.00  0.00    +0.000 A 
ATOM      6  C   UNL     1       2.603   4.994  20.081  0.00  0.00    +0.000 A 
ATOM      7  C   UNL     1       2.046   4.221  21.120  0.00  0.00    +0.000 A 
ATOM      8  C   UNL     1       2.461   2.907  21.286  0.00  0.00    +0.000 A 
ATOM      9  F   UNL     1       1.931   2.171  22.273  0.00  0.00    +0.000 F 
ATOM     10  C   UNL     1       3.424   2.349  20.465  0.00  0.00    +0.000 A 
ATOM     11  C   UNL     1       4.002   3.103  19.439  0.00  0.00    +0.000 A 
ATOM     12  C   UNL     1       3.559   4.429  19.224  0.00  0.00    +0.000 A 
ATOM     13  N   UNL     1       3.941   5.414  18.292  0.00  0.00    +0.000 N 
ATOM     14  C   UNL     1       1.443   7.324  20.221  0.00  0.00    +0.000 C 
ENDROOT
BRANCH  13  15
ATOM     15  C   UNL     1       4.884   5.254  17.233  0.00  0.00    +0.000 A 
ATOM     16  C   UNL     1       6.155   5.842  17.316  0.00  0.00    +0.000 A 
ATOM     17  C   UNL     1       7.059   5.719  16.260  0.00  0.00    +0.000 A 
ATOM     18  C   UNL     1       6.709   4.981  15.137  0.00  0.00    +0.000 A 
ATOM     19  F   UNL     1       7.581   4.861  14.128  0.00  0.00    +0.000 F 
ATOM     20  C   UNL     1       5.469   4.367  15.047  0.00  0.00    +0.000 A 
ATOM     21  C   UNL     1       4.552   4.512  16.088  0.00  0.00    +0.000 A 
ENDBRANCH  13  15
BRANCH   1  22
ATOM     22  C   UNL     1       0.613   9.596  20.044  0.00  0.00    +0.000 C 
BRANCH  22  23
ATOM     23  C   UNL     1       0.750  10.209  21.445  0.00  0.00    +0.000 C 
BRANCH  23  24
ATOM     24  C   UNL     1      -0.453   9.902  22.341  0.00  0.00    +0.000 C 
BRANCH  24  25
ATOM     25  C   UNL     1      -0.998  11.185  22.973  0.00  0.00    +0.000 C 
BRANCH  25  26
ATOM     26  C   UNL     1      -1.844  12.009  21.994  0.00  0.00    +0.000 C 
BRANCH  26  27
ATOM     27  C   UNL     1      -3.186  12.385  22.586  0.00  0.00    +0.000 A 
ATOM     28  C   UNL     1      -4.212  12.876  21.764  0.00  0.00    +0.000 A 
ATOM     29  C   UNL     1      -5.439  13.256  22.316  0.00  0.00    +0.000 A 
ATOM     30  C   UNL     1      -5.641  13.140  23.684  0.00  0.00    +0.000 A 
ATOM     31  F   UNL     1      -6.813  13.519  24.213  0.00  0.00    +0.000 F 
ATOM     32  C   UNL     1      -4.644  12.649  24.518  0.00  0.00    +0.000 A 
ATOM     33  C   UNL     1      -3.418  12.274  23.967  0.00  0.00    +0.000 A 
ENDBRANCH  26  27
BRANCH  26  34
ATOM     34  O   UNL     1      -1.179  13.226  21.656  0.00  0.00    +0.000 OA
ATOM     35  H   UNL     1      -1.455  13.472  20.758  0.00  0.00    +0.000 HD
ENDBRANCH  26  34
ENDBRANCH  25  26
ENDBRANCH  24  25
ENDBRANCH  23  24
ENDBRANCH  22  23
ENDBRANCH   1  22
TORSDOF 8
ENDMDL
MODEL 8
REMARK VINA RESULT:      -9.0      1.459      1.832
REMARK  Name = 
REMARK  8 active torsions:
REMARK  status: ('A' for Active; 'I' for Inactive)
REMARK    1  A    between atoms: O_1  and  C_2
REMARK    2  A    between atoms: C_2  and  C_3
REMARK    3  A    between atoms: C_2  and  C_28
REMARK    4  A    between atoms: C_3  and  C_4
REMARK    5  A    between atoms: C_4  and  C_5
REMARK    6  A    between atoms: C_5  and  C_6
REMARK    7  A    between atoms: C_6  and  N_7
REMARK    8  A    between atoms: N_19  and  C_20
REMARK                            x       y       z     vdW  Elec       q    Type
REMARK                         _______ _______ _______ _____ _____    ______ ____
ROOT
ATOM      1  N   UNL     1       1.664   8.883  19.493  0.00  0.00    +0.000 NA
ATOM      2  C   UNL     1       1.947   8.810  18.042  0.00  0.00    +0.000 C 
ATOM      3  C   UNL     1       3.228   7.990  17.748  0.00  0.00    +0.000 C 
ATOM      4  C   UNL     1       3.198   6.710  18.524  0.00  0.00    +0.000 A 
ATOM      5  C   UNL     1       2.331   6.525  19.580  0.00  0.00    +0.000 A 
ATOM      6  C   UNL     1       2.498   5.203  20.054  0.00  0.00    +0.000 A 
ATOM      7  C   UNL     1       1.893   4.477  21.101  0.00  0.00    +0.000 A 
ATOM      8  C   UNL     1       2.287   3.167  21.334  0.00  0.00    +0.000 A 
ATOM      9  F   UNL     1       1.711   2.475  22.328  0.00  0.00    +0.000 F 
ATOM     10  C   UNL     1       3.275   2.568  20.574  0.00  0.00    +0.000 A 
ATOM     11  C   UNL     1       3.901   3.276  19.542  0.00  0.00    +0.000 A 
ATOM     12  C   UNL     1       3.480   4.596  19.258  0.00  0.00    +0.000 A 
ATOM     13  N   UNL     1       3.909   5.540  18.304  0.00  0.00    +0.000 N 
ATOM     14  C   UNL     1       1.358   7.548  20.058  0.00  0.00    +0.000 C 
ENDROOT
BRANCH  13  15
ATOM     15  C   UNL     1       4.890   5.330  17.290  0.00  0.00    +0.000 A 
ATOM     16  C   UNL     1       6.162   5.912  17.398  0.00  0.00    +0.000 A 
ATOM     17  C   UNL     1       7.105   5.739  16.384  0.00  0.00    +0.000 A 
ATOM     18  C   UNL     1       6.791   4.958  15.279  0.00  0.00    +0.000 A 
ATOM     19  F   UNL     1       7.701   4.789  14.310  0.00  0.00    +0.000 F 
ATOM     20  C   UNL     1       5.550   4.350  15.166  0.00  0.00    +0.000 A 
ATOM     21  C   UNL     1       4.595   4.543  16.164  0.00  0.00    +0.000 A 
ENDBRANCH  13  15
BRANCH   1  22
ATOM     22  C   UNL     1       0.560   9.818  19.760  0.00  0.00    +0.000 C 
BRANCH  22  23
ATOM     23  C   UNL     1      -0.316  10.091  18.528  0.00  0.00    +0.000 C 
BRANCH  23  24
ATOM     24  C   UNL     1      -1.528  10.968  18.854  0.00  0.00    +0.000 C 
BRANCH  24  25
ATOM     25  C   UNL     1      -1.103  12.209  19.642  0.00  0.00    +0.000 C 
BRANCH  25  26
ATOM     26  C   UNL     1      -2.284  13.130  19.971  0.00  0.00    +0.000 C 
BRANCH  26  27
ATOM     27  C   UNL     1      -2.858  12.844  21.343  0.00  0.00    +0.000 A 
ATOM     28  C   UNL     1      -4.167  13.237  21.661  0.00  0.00    +0.000 A 
ATOM     29  C   UNL     1      -4.684  13.005  22.939  0.00  0.00    +0.000 A 
ATOM     30  C   UNL     1      -3.896  12.377  23.894  0.00  0.00    +0.000 A 
ATOM     31  F   UNL     1      -4.389  12.168  25.123  0.00  0.00    +0.000 F 
ATOM     32  C   UNL     1      -2.600  11.971  23.601  0.00  0.00    +0.000 A 
ATOM     33  C   UNL     1      -2.083  12.206  22.327  0.00  0.00    +0.000 A 
ENDBRANCH  26  27
BRANCH  26  34
ATOM     34  O   UNL     1      -1.873  14.496  19.965  0.00  0.00    +0.000 OA
ATOM     35  H   UNL     1      -2.658  15.038  19.788  0.00  0.00    +0.000 HD
ENDBRANCH  26  34
ENDBRANCH  25  26
ENDBRANCH  24  25
ENDBRANCH  23  24
ENDBRANCH  22  23
ENDBRANCH   1  22
TORSDOF 8
ENDMDL
MODEL 9
REMARK VINA RESULT:      -9.0      1.491      2.053
REMARK  Name = 
REMARK  8 active torsions:
REMARK  status: ('A' for Active; 'I' for Inactive)
REMARK    1  A    between atoms: O_1  and  C_2
REMARK    2  A    between atoms: C_2  and  C_3
REMARK    3  A    between atoms: C_2  and  C_28
REMARK    4  A    between atoms: C_3  and  C_4
REMARK    5  A    between atoms: C_4  and  C_5
REMARK    6  A    between atoms: C_5  and  C_6
REMARK    7  A    between atoms: C_6  and  N_7
REMARK    8  A    between atoms: N_19  and  C_20
REMARK                            x       y       z     vdW  Elec       q    Type
REMARK                         _______ _______ _______ _____ _____    ______ ____
ROOT
ATOM      1  N   UNL     1       1.688   8.720  19.648  0.00  0.00    +0.000 NA
ATOM      2  C   UNL     1       1.940   8.693  18.190  0.00  0.00    +0.000 C 
ATOM      3  C   UNL     1       3.221   7.893  17.844  0.00  0.00    +0.000 C 
ATOM      4  C   UNL     1       3.219   6.590  18.582  0.00  0.00    +0.000 A 
ATOM      5  C   UNL     1       2.376   6.366  19.650  0.00  0.00    +0.000 A 
ATOM      6  C   UNL     1       2.565   5.032  20.080  0.00  0.00    +0.000 A 
ATOM      7  C   UNL     1       1.989   4.270  21.117  0.00  0.00    +0.000 A 
ATOM      8  C   UNL     1       2.400   2.957  21.302  0.00  0.00    +0.000 A 
ATOM      9  F   UNL     1       1.851   2.231  22.287  0.00  0.00    +0.000 F 
ATOM     10  C   UNL     1       3.375   2.390  20.503  0.00  0.00    +0.000 A 
ATOM     11  C   UNL     1       3.972   3.134  19.480  0.00  0.00    +0.000 A 
ATOM     12  C   UNL     1       3.534   4.458  19.245  0.00  0.00    +0.000 A 
ATOM     13  N   UNL     1       3.934   5.434  18.311  0.00  0.00    +0.000 N 
ATOM     14  C   UNL     1       1.406   7.366  20.180  0.00  0.00    +0.000 C 
ENDROOT
BRANCH  13  15
ATOM     15  C   UNL     1       4.894   5.262  17.269  0.00  0.00    +0.000 A 
ATOM     16  C   UNL     1       6.157   5.867  17.359  0.00  0.00    +0.000 A 
ATOM     17  C   UNL     1       7.079   5.732  16.320  0.00  0.00    +0.000 A 
ATOM     18  C   UNL     1       6.753   4.968  15.207  0.00  0.00    +0.000 A 
ATOM     19  F   UNL     1       7.642   4.836  14.214  0.00  0.00    +0.000 F 
ATOM     20  C   UNL     1       5.521   4.338  15.111  0.00  0.00    +0.000 A 
ATOM     21  C   UNL     1       4.587   4.494  16.135  0.00  0.00    +0.000 A 
ENDBRANCH  13  15
BRANCH   1  22
ATOM     22  C   UNL     1       0.583   9.636  19.968  0.00  0.00    +0.000 C 
BRANCH  22  23
ATOM     23  C   UNL     1       0.131  10.483  18.769  0.00  0.00    +0.000 C 
BRANCH  23  24
ATOM     24  C   UNL     1       0.594  11.939  18.871  0.00  0.00    +0.000 C 
BRANCH  24  25
ATOM     25  C   UNL     1      -0.570  12.851  19.265  0.00  0.00    +0.000 C 
BRANCH  25  26
ATOM     26  C   UNL     1      -1.877  12.076  19.479  0.00  0.00    +0.000 C 
BRANCH  26  27
ATOM     27  C   UNL     1      -2.401  12.233  20.891  0.00  0.00    +0.000 A 
ATOM     28  C   UNL     1      -1.616  11.844  21.987  0.00  0.00    +0.000 A 
ATOM     29  C   UNL     1      -2.114  11.955  23.289  0.00  0.00    +0.000 A 
ATOM     30  C   UNL     1      -3.390  12.462  23.494  0.00  0.00    +0.000 A 
ATOM     31  F   UNL     1      -3.871  12.555  24.742  0.00  0.00    +0.000 F 
ATOM     32  C   UNL     1      -4.183  12.863  22.426  0.00  0.00    +0.000 A 
ATOM     33  C   UNL     1      -3.687  12.747  21.127  0.00  0.00    +0.000 A 
ENDBRANCH  26  27
BRANCH  26  34
ATOM     34  O   UNL     1      -2.894  12.553  18.599  0.00  0.00    +0.000 OA
ATOM     35  H   UNL     1      -3.343  11.780  18.223  0.00  0.00    +0.000 HD
ENDBRANCH  26  34
ENDBRANCH  25  26
ENDBRANCH  24  25
ENDBRANCH  23  24
ENDBRANCH  22  23
ENDBRANCH   1  22
TORSDOF 8
ENDMDL
