MODEL 1
REMARK VINA RESULT:      -6.9      0.000      0.000
REMARK  Name = 
REMARK  6 active torsions:
REMARK  status: ('A' for Active; 'I' for Inactive)
REMARK    1  A    between atoms: C_1  and  C_2
REMARK    2  A    between atoms: C_2  and  C_4
REMARK    3  A    between atoms: C_8  and  C_10
REMARK    4  A    between atoms: C_10  and  C_11
REMARK    5  A    between atoms: C_10  and  C_12
REMARK    6  A    between atoms: C_14  and  C_15
REMARK                            x       y       z     vdW  Elec       q    Type
REMARK                         _______ _______ _______ _____ _____    ______ ____
ROOT
ATOM      1  C   UNL     1       6.140   5.382  17.505  0.00  0.00    +0.000 A 
ATOM      2  S   UNL     1       5.060   5.381  18.828  0.00  0.00    +0.000 S 
ATOM      3  C   UNL     1       4.125   4.171  18.096  0.00  0.00    +0.000 A 
ATOM      4  N   UNL     1       2.988   3.672  18.686  0.00  0.00    +0.000 N 
ATOM      5  C   UNL     1       2.327   4.242  19.757  0.00  0.00    +0.000 C 
ATOM      6  O   UNL     1       2.635   5.290  20.317  0.00  0.00    +0.000 OA
ATOM      7  N   UNL     1       4.583   3.719  16.953  0.00  0.00    +0.000 NA
ATOM      8  C   UNL     1       5.726   4.430  16.584  0.00  0.00    +0.000 A 
ATOM      9  C   UNL     1       6.366   4.110  15.276  0.00  0.00    +0.000 C 
ATOM     10  H   UNL     1       2.579   2.894  18.187  0.00  0.00    +0.000 HD
ENDROOT
BRANCH   1  12
ATOM     11  C   UNL     1       8.035   6.566  18.737  0.00  0.00    +0.000 C 
ATOM     12  C   UNL     1       7.278   6.287  17.454  0.00  0.00    +0.000 C 
ATOM     13  O   UNL     1       7.647   6.827  16.407  0.00  0.00    +0.000 OA
ENDBRANCH   1  12
BRANCH   5  14
ATOM     14  C   UNL     1       1.079   3.468  20.191  0.00  0.00    +0.000 C 
ATOM     15  C   UNL     1       0.604   2.506  19.106  0.00  0.00    +0.000 C 
ATOM     16  C   UNL     1       1.374   2.692  21.477  0.00  0.00    +0.000 C 
ENDBRANCH   5  14
TORSDOF 2
ENDMDL
MODEL 2
REMARK VINA RESULT:      -6.8      1.692      2.684
REMARK  Name = 
REMARK  6 active torsions:
REMARK  status: ('A' for Active; 'I' for Inactive)
REMARK    1  A    between atoms: C_1  and  C_2
REMARK    2  A    between atoms: C_2  and  C_4
REMARK    3  A    between atoms: C_8  and  C_10
REMARK    4  A    between atoms: C_10  and  C_11
REMARK    5  A    between atoms: C_10  and  C_12
REMARK    6  A    between atoms: C_14  and  C_15
REMARK                            x       y       z     vdW  Elec       q    Type
REMARK                         _______ _______ _______ _____ _____    ______ ____
ROOT
ATOM      1  C   UNL     1       6.010   4.899  16.389  0.00  0.00    +0.000 A 
ATOM      2  S   UNL     1       4.691   3.876  16.752  0.00  0.00    +0.000 S 
ATOM      3  C   UNL     1       4.530   4.585  18.284  0.00  0.00    +0.000 A 
ATOM      4  N   UNL     1       3.571   4.175  19.179  0.00  0.00    +0.000 N 
ATOM      5  C   UNL     1       2.830   3.013  19.081  0.00  0.00    +0.000 C 
ATOM      6  O   UNL     1       2.940   2.163  18.202  0.00  0.00    +0.000 OA
ATOM      7  N   UNL     1       5.353   5.575  18.536  0.00  0.00    +0.000 NA
ATOM      8  C   UNL     1       6.233   5.746  17.467  0.00  0.00    +0.000 A 
ATOM      9  C   UNL     1       7.296   6.785  17.584  0.00  0.00    +0.000 C 
ATOM     10  H   UNL     1       3.526   4.741  20.015  0.00  0.00    +0.000 HD
ENDROOT
BRANCH   1  12
ATOM     11  C   UNL     1       6.101   3.978  14.012  0.00  0.00    +0.000 C 
ATOM     12  C   UNL     1       6.717   4.806  15.122  0.00  0.00    +0.000 C 
ATOM     13  O   UNL     1       7.792   5.379  14.920  0.00  0.00    +0.000 OA
ENDBRANCH   1  12
BRANCH   5  14
ATOM     14  C   UNL     1       1.844   2.813  20.235  0.00  0.00    +0.000 C 
ATOM     15  C   UNL     1       2.561   2.690  21.576  0.00  0.00    +0.000 C 
ATOM     16  C   UNL     1       0.858   3.984  20.281  0.00  0.00    +0.000 C 
ENDBRANCH   5  14
TORSDOF 2
ENDMDL
MODEL 3
REMARK VINA RESULT:      -6.7      1.771      2.135
REMARK  Name = 
REMARK  6 active torsions:
REMARK  status: ('A' for Active; 'I' for Inactive)
REMARK    1  A    between atoms: C_1  and  C_2
REMARK    2  A    between atoms: C_2  and  C_4
REMARK    3  A    between atoms: C_8  and  C_10
REMARK    4  A    between atoms: C_10  and  C_11
REMARK    5  A    between atoms: C_10  and  C_12
REMARK    6  A    between atoms: C_14  and  C_15
REMARK                            x       y       z     vdW  Elec       q    Type
REMARK                         _______ _______ _______ _____ _____    ______ ____
ROOT
ATOM      1  C   UNL     1       6.488   6.168  18.113  0.00  0.00    +0.000 A 
ATOM      2  S   UNL     1       4.813   5.987  17.830  0.00  0.00    +0.000 S 
ATOM      3  C   UNL     1       4.665   4.991  19.195  0.00  0.00    +0.000 A 
ATOM      4  N   UNL     1       3.462   4.439  19.566  0.00  0.00    +0.000 N 
ATOM      5  C   UNL     1       2.329   4.385  18.778  0.00  0.00    +0.000 C 
ATOM      6  O   UNL     1       2.238   4.791  17.623  0.00  0.00    +0.000 OA
ATOM      7  N   UNL     1       5.764   4.821  19.890  0.00  0.00    +0.000 NA
ATOM      8  C   UNL     1       6.830   5.466  19.261  0.00  0.00    +0.000 A 
ATOM      9  C   UNL     1       8.189   5.338  19.862  0.00  0.00    +0.000 C 
ATOM     10  H   UNL     1       3.496   3.944  20.446  0.00  0.00    +0.000 HD
ENDROOT
BRANCH   1  12
ATOM     11  C   UNL     1       7.733   8.347  17.656  0.00  0.00    +0.000 C 
ATOM     12  C   UNL     1       7.328   6.952  17.222  0.00  0.00    +0.000 C 
ATOM     13  O   UNL     1       7.724   6.521  16.135  0.00  0.00    +0.000 OA
ENDBRANCH   1  12
BRANCH   5  14
ATOM     14  C   UNL     1       1.141   3.697  19.455  0.00  0.00    +0.000 C 
ATOM     15  C   UNL     1       0.865   2.322  18.853  0.00  0.00    +0.000 C 
ATOM     16  C   UNL     1       1.410   3.560  20.956  0.00  0.00    +0.000 C 
ENDBRANCH   5  14
TORSDOF 2
ENDMDL
MODEL 4
REMARK VINA RESULT:      -6.6      0.678      1.136
REMARK  Name = 
REMARK  6 active torsions:
REMARK  status: ('A' for Active; 'I' for Inactive)
REMARK    1  A    between atoms: C_1  and  C_2
REMARK    2  A    between atoms: C_2  and  C_4
REMARK    3  A    between atoms: C_8  and  C_10
REMARK    4  A    between atoms: C_10  and  C_11
REMARK    5  A    between atoms: C_10  and  C_12
REMARK    6  A    between atoms: C_14  and  C_15
REMARK                            x       y       z     vdW  Elec       q    Type
REMARK                         _______ _______ _______ _____ _____    ______ ____
ROOT
ATOM      1  C   UNL     1       6.345   5.668  17.580  0.00  0.00    +0.000 A 
ATOM      2  S   UNL     1       5.316   5.302  18.893  0.00  0.00    +0.000 S 
ATOM      3  C   UNL     1       4.641   4.005  18.034  0.00  0.00    +0.000 A 
ATOM      4  N   UNL     1       3.645   3.220  18.566  0.00  0.00    +0.000 N 
ATOM      5  C   UNL     1       2.900   3.524  19.689  0.00  0.00    +0.000 C 
ATOM      6  O   UNL     1       2.994   4.549  20.357  0.00  0.00    +0.000 OA
ATOM      7  N   UNL     1       5.161   3.780  16.851  0.00  0.00    +0.000 NA
ATOM      8  C   UNL     1       6.122   4.750  16.562  0.00  0.00    +0.000 A 
ATOM      9  C   UNL     1       6.789   4.710  15.229  0.00  0.00    +0.000 C 
ATOM     10  H   UNL     1       3.398   2.430  17.987  0.00  0.00    +0.000 HD
ENDROOT
BRANCH   1  12
ATOM     11  C   UNL     1       8.250   6.870  18.779  0.00  0.00    +0.000 C 
ATOM     12  C   UNL     1       7.267   6.792  17.627  0.00  0.00    +0.000 C 
ATOM     13  O   UNL     1       7.279   7.675  16.765  0.00  0.00    +0.000 OA
ENDBRANCH   1  12
BRANCH   5  14
ATOM     14  C   UNL     1       1.851   2.464  20.036  0.00  0.00    +0.000 C 
ATOM     15  C   UNL     1       1.280   2.671  21.436  0.00  0.00    +0.000 C 
ATOM     16  C   UNL     1       0.720   2.500  19.005  0.00  0.00    +0.000 C 
ENDBRANCH   5  14
TORSDOF 2
ENDMDL
MODEL 5
REMARK VINA RESULT:      -6.5      1.639      2.536
REMARK  Name = 
REMARK  6 active torsions:
REMARK  status: ('A' for Active; 'I' for Inactive)
REMARK    1  A    between atoms: C_1  and  C_2
REMARK    2  A    between atoms: C_2  and  C_4
REMARK    3  A    between atoms: C_8  and  C_10
REMARK    4  A    between atoms: C_10  and  C_11
REMARK    5  A    between atoms: C_10  and  C_12
REMARK    6  A    between atoms: C_14  and  C_15
REMARK                            x       y       z     vdW  Elec       q    Type
REMARK                         _______ _______ _______ _____ _____    ______ ____
ROOT
ATOM      1  C   UNL     1       6.129   5.124  16.314  0.00  0.00    +0.000 A 
ATOM      2  S   UNL     1       4.774   4.206  16.802  0.00  0.00    +0.000 S 
ATOM      3  C   UNL     1       4.699   5.052  18.270  0.00  0.00    +0.000 A 
ATOM      4  N   UNL     1       3.751   4.771  19.225  0.00  0.00    +0.000 N 
ATOM      5  C   UNL     1       2.950   3.646  19.250  0.00  0.00    +0.000 C 
ATOM      6  O   UNL     1       2.987   2.719  18.446  0.00  0.00    +0.000 OA
ATOM      7  N   UNL     1       5.579   6.015  18.411  0.00  0.00    +0.000 NA
ATOM      8  C   UNL     1       6.430   6.047  17.307  0.00  0.00    +0.000 A 
ATOM      9  C   UNL     1       7.548   7.034  17.303  0.00  0.00    +0.000 C 
ATOM     10  H   UNL     1       3.762   5.408  20.009  0.00  0.00    +0.000 HD
ENDROOT
BRANCH   1  12
ATOM     11  C   UNL     1       6.134   3.935  14.056  0.00  0.00    +0.000 C 
ATOM     12  C   UNL     1       6.789   4.885  15.040  0.00  0.00    +0.000 C 
ATOM     13  O   UNL     1       7.853   5.429  14.734  0.00  0.00    +0.000 OA
ENDBRANCH   1  12
BRANCH   5  14
ATOM     14  C   UNL     1       1.994   3.599  20.445  0.00  0.00    +0.000 C 
ATOM     15  C   UNL     1       0.610   3.095  20.043  0.00  0.00    +0.000 C 
ATOM     16  C   UNL     1       2.576   2.697  21.537  0.00  0.00    +0.000 C 
ENDBRANCH   5  14
TORSDOF 2
ENDMDL
MODEL 6
REMARK VINA RESULT:      -6.4      1.741      2.405
REMARK  Name = 
REMARK  6 active torsions:
REMARK  status: ('A' for Active; 'I' for Inactive)
REMARK    1  A    between atoms: C_1  and  C_2
REMARK    2  A    between atoms: C_2  and  C_4
REMARK    3  A    between atoms: C_8  and  C_10
REMARK    4  A    between atoms: C_10  and  C_11
REMARK    5  A    between atoms: C_10  and  C_12
REMARK    6  A    between atoms: C_14  and  C_15
REMARK                            x       y       z     vdW  Elec       q    Type
REMARK                         _______ _______ _______ _____ _____    ______ ____
ROOT
ATOM      1  C   UNL     1       6.538   5.843  18.008  0.00  0.00    +0.000 A 
ATOM      2  S   UNL     1       4.960   5.260  17.711  0.00  0.00    +0.000 S 
ATOM      3  C   UNL     1       4.954   4.448  19.200  0.00  0.00    +0.000 A 
ATOM      4  N   UNL     1       3.879   3.699  19.615  0.00  0.00    +0.000 N 
ATOM      5  C   UNL     1       2.830   3.291  18.814  0.00  0.00    +0.000 C 
ATOM      6  O   UNL     1       2.718   3.508  17.611  0.00  0.00    +0.000 OA
ATOM      7  N   UNL     1       6.023   4.619  19.940  0.00  0.00    +0.000 NA
ATOM      8  C   UNL     1       6.958   5.394  19.253  0.00  0.00    +0.000 A 
ATOM      9  C   UNL     1       8.276   5.651  19.900  0.00  0.00    +0.000 C 
ATOM     10  H   UNL     1       3.969   3.345  20.558  0.00  0.00    +0.000 HD
ENDROOT
BRANCH   1  12
ATOM     11  C   UNL     1       7.602   8.087  17.424  0.00  0.00    +0.000 C 
ATOM     12  C   UNL     1       7.238   6.668  17.036  0.00  0.00    +0.000 C 
ATOM     13  O   UNL     1       7.548   6.252  15.916  0.00  0.00    +0.000 OA
ENDBRANCH   1  12
BRANCH   5  14
ATOM     14  C   UNL     1       1.782   2.454  19.552  0.00  0.00    +0.000 C 
ATOM     15  C   UNL     1       1.512   2.993  20.954  0.00  0.00    +0.000 C 
ATOM     16  C   UNL     1       0.479   2.431  18.747  0.00  0.00    +0.000 C 
ENDBRANCH   5  14
TORSDOF 2
ENDMDL
MODEL 7
REMARK VINA RESULT:      -6.2      1.492      2.208
REMARK  Name = 
REMARK  6 active torsions:
REMARK  status: ('A' for Active; 'I' for Inactive)
REMARK    1  A    between atoms: C_1  and  C_2
REMARK    2  A    between atoms: C_2  and  C_4
REMARK    3  A    between atoms: C_8  and  C_10
REMARK    4  A    between atoms: C_10  and  C_11
REMARK    5  A    between atoms: C_10  and  C_12
REMARK    6  A    between atoms: C_14  and  C_15
REMARK                            x       y       z     vdW  Elec       q    Type
REMARK                         _______ _______ _______ _____ _____    ______ ____
ROOT
ATOM      1  C   UNL     1       6.347   5.644  17.644  0.00  0.00    +0.000 A 
ATOM      2  S   UNL     1       4.687   5.303  17.427  0.00  0.00    +0.000 S 
ATOM      3  C   UNL     1       4.542   4.853  19.056  0.00  0.00    +0.000 A 
ATOM      4  N   UNL     1       3.350   4.419  19.587  0.00  0.00    +0.000 N 
ATOM      5  C   UNL     1       2.240   4.040  18.858  0.00  0.00    +0.000 C 
ATOM      6  O   UNL     1       2.162   4.005  17.634  0.00  0.00    +0.000 OA
ATOM      7  N   UNL     1       5.629   4.987  19.777  0.00  0.00    +0.000 NA
ATOM      8  C   UNL     1       6.686   5.411  18.970  0.00  0.00    +0.000 A 
ATOM      9  C   UNL     1       8.033   5.562  19.590  0.00  0.00    +0.000 C 
ATOM     10  H   UNL     1       3.381   4.271  20.586  0.00  0.00    +0.000 HD
ENDROOT
BRANCH   1  12
ATOM     11  C   UNL     1       7.289   5.213  15.313  0.00  0.00    +0.000 C 
ATOM     12  C   UNL     1       7.180   6.095  16.540  0.00  0.00    +0.000 C 
ATOM     13  O   UNL     1       7.791   7.167  16.568  0.00  0.00    +0.000 OA
ENDBRANCH   1  12
BRANCH   5  14
ATOM     14  C   UNL     1       1.061   3.588  19.724  0.00  0.00    +0.000 C 
ATOM     15  C   UNL     1       0.463   2.276  19.226  0.00  0.00    +0.000 C 
ATOM     16  C   UNL     1       1.518   3.430  21.177  0.00  0.00    +0.000 C 
ENDBRANCH   5  14
TORSDOF 2
ENDMDL
MODEL 8
REMARK VINA RESULT:      -6.2      2.992      5.872
REMARK  Name = 
REMARK  6 active torsions:
REMARK  status: ('A' for Active; 'I' for Inactive)
REMARK    1  A    between atoms: C_1  and  C_2
REMARK    2  A    between atoms: C_2  and  C_4
REMARK    3  A    between atoms: C_8  and  C_10
REMARK    4  A    between atoms: C_10  and  C_11
REMARK    5  A    between atoms: C_10  and  C_12
REMARK    6  A    between atoms: C_14  and  C_15
REMARK                            x       y       z     vdW  Elec       q    Type
REMARK                         _______ _______ _______ _____ _____    ______ ____
ROOT
ATOM      1  C   UNL     1       6.578   5.218  17.084  0.00  0.00    +0.000 A 
ATOM      2  S   UNL     1       6.994   5.112  15.431  0.00  0.00    +0.000 S 
ATOM      3  C   UNL     1       5.601   4.198  15.114  0.00  0.00    +0.000 A 
ATOM      4  N   UNL     1       5.308   3.731  13.855  0.00  0.00    +0.000 N 
ATOM      5  C   UNL     1       6.187   3.696  12.789  0.00  0.00    +0.000 C 
ATOM      6  O   UNL     1       7.363   4.046  12.817  0.00  0.00    +0.000 OA
ATOM      7  N   UNL     1       4.808   4.005  16.141  0.00  0.00    +0.000 NA
ATOM      8  C   UNL     1       5.374   4.559  17.289  0.00  0.00    +0.000 A 
ATOM      9  C   UNL     1       4.654   4.390  18.584  0.00  0.00    +0.000 C 
ATOM     10  H   UNL     1       4.406   3.280  13.788  0.00  0.00    +0.000 HD
ENDROOT
BRANCH   1  12
ATOM     11  C   UNL     1       7.685   7.390  17.836  0.00  0.00    +0.000 C 
ATOM     12  C   UNL     1       7.430   5.910  18.038  0.00  0.00    +0.000 C 
ATOM     13  O   UNL     1       7.945   5.337  19.003  0.00  0.00    +0.000 OA
ENDBRANCH   1  12
BRANCH   5  14
ATOM     14  C   UNL     1       5.582   3.108  11.512  0.00  0.00    +0.000 C 
ATOM     15  C   UNL     1       5.875   1.616  11.381  0.00  0.00    +0.000 C 
ATOM     16  C   UNL     1       4.068   3.341  11.503  0.00  0.00    +0.000 C 
ENDBRANCH   5  14
TORSDOF 2
ENDMDL
MODEL 9
REMARK VINA RESULT:      -6.1      2.147      5.984
REMARK  Name = 
REMARK  6 active torsions:
REMARK  status: ('A' for Active; 'I' for Inactive)
REMARK    1  A    between atoms: C_1  and  C_2
REMARK    2  A    between atoms: C_2  and  C_4
REMARK    3  A    between atoms: C_8  and  C_10
REMARK    4  A    between atoms: C_10  and  C_11
REMARK    5  A    between atoms: C_10  and  C_12
REMARK    6  A    between atoms: C_14  and  C_15
REMARK                            x       y       z     vdW  Elec       q    Type
REMARK                         _______ _______ _______ _____ _____    ______ ____
ROOT
ATOM      1  C   UNL     1       3.073   3.049  19.459  0.00  0.00    +0.000 A 
ATOM      2  S   UNL     1       4.446   3.721  18.697  0.00  0.00    +0.000 S 
ATOM      3  C   UNL     1       3.663   3.679  17.194  0.00  0.00    +0.000 A 
ATOM      4  N   UNL     1       4.277   4.107  16.041  0.00  0.00    +0.000 N 
ATOM      5  C   UNL     1       5.629   4.354  15.899  0.00  0.00    +0.000 C 
ATOM      6  O   UNL     1       6.483   4.198  16.766  0.00  0.00    +0.000 OA
ATOM      7  N   UNL     1       2.423   3.250  17.215  0.00  0.00    +0.000 NA
ATOM      8  C   UNL     1       2.080   2.853  18.508  0.00  0.00    +0.000 A 
ATOM      9  C   UNL     1       0.726   2.270  18.733  0.00  0.00    +0.000 C 
ATOM     10  H   UNL     1       3.669   4.113  15.234  0.00  0.00    +0.000 HD
ENDROOT
BRANCH   1  12
ATOM     11  C   UNL     1       1.954   3.365  21.730  0.00  0.00    +0.000 C 
ATOM     12  C   UNL     1       3.059   2.763  20.885  0.00  0.00    +0.000 C 
ATOM     13  O   UNL     1       3.908   2.048  21.425  0.00  0.00    +0.000 OA
ENDBRANCH   1  12
BRANCH   5  14
ATOM     14  C   UNL     1       6.026   4.809  14.492  0.00  0.00    +0.000 C 
ATOM     15  C   UNL     1       7.516   5.128  14.399  0.00  0.00    +0.000 C 
ATOM     16  C   UNL     1       5.666   3.721  13.476  0.00  0.00    +0.000 C 
ENDBRANCH   5  14
TORSDOF 2
ENDMDL
