MODEL 1
REMARK VINA RESULT:      -6.3      0.000      0.000
REMARK  Name = 
REMARK  7 active torsions:
REMARK  status: ('A' for Active; 'I' for Inactive)
REMARK    1  A    between atoms: C_1  and  C_2
REMARK    2  A    between atoms: C_2  and  N_3
REMARK    3  A    between atoms: C_5  and  C_6
REMARK    4  A    between atoms: C_6  and  O_8
REMARK    5  A    between atoms: C_12  and  N_13
REMARK    6  A    between atoms: C_16  and  N_17
REMARK    7  A    between atoms: C_19  and  N_20
REMARK                            x       y       z     vdW  Elec       q    Type
REMARK                         _______ _______ _______ _____ _____    ______ ____
ROOT
ATOM      1  N   UNL     1       2.396   5.173  20.434  0.00  0.00    +0.000 N 
ATOM      2  C   UNL     1       1.596   6.089  21.116  0.00  0.00    +0.000 A 
ATOM      3  C   UNL     1       1.340   7.352  20.767  0.00  0.00    +0.000 A 
ATOM      4  C   UNL     1       1.963   7.833  19.529  0.00  0.00    +0.000 A 
ATOM      5  O   UNL     1       1.660   8.948  19.109  0.00  0.00    +0.000 OA
ATOM      6  C   UNL     1       2.903   6.935  18.805  0.00  0.00    +0.000 A 
ATOM      7  C   UNL     1       3.548   7.448  17.657  0.00  0.00    +0.000 A 
ATOM      8  C   UNL     1       4.378   6.592  16.933  0.00  0.00    +0.000 A 
ATOM      9  F   UNL     1       5.043   7.113  15.885  0.00  0.00    +0.000 F 
ATOM     10  C   UNL     1       4.513   5.233  17.244  0.00  0.00    +0.000 A 
ATOM     11  C   UNL     1       3.882   4.771  18.429  0.00  0.00    +0.000 A 
ATOM     12  F   UNL     1       4.088   3.491  18.781  0.00  0.00    +0.000 F 
ATOM     13  C   UNL     1       3.064   5.589  19.245  0.00  0.00    +0.000 A 
ENDROOT
BRANCH  10  14
ATOM     14  N   UNL     1       5.266   4.385  16.389  0.00  0.00    +0.000 N 
ATOM     15  C   UNL     1       6.675   4.071  16.484  0.00  0.00    +0.000 C 
ATOM     16  C   UNL     1       6.778   4.214  14.961  0.00  0.00    +0.000 C 
ATOM     17  C   UNL     1       5.243   4.310  14.956  0.00  0.00    +0.000 C 
BRANCH  16  18
ATOM     18  N   UNL     1       7.364   5.528  14.630  0.00  0.00    +0.000 NA
ATOM     19  H   UNL     1       7.015   5.918  13.753  0.00  0.00    +0.000 HD
ATOM     20  H   UNL     1       8.379   5.510  14.541  0.00  0.00    +0.000 HD
ENDBRANCH  16  18
ENDBRANCH  10  14
BRANCH   7  21
ATOM     21  N   UNL     1       3.568   8.826  17.343  0.00  0.00    +0.000 N 
ATOM     22  H   UNL     1       4.506   9.179  17.130  0.00  0.00    +0.000 HD
ATOM     23  H   UNL     1       3.064   9.407  18.010  0.00  0.00    +0.000 HD
ENDBRANCH   7  21
BRANCH   1  25
ATOM     24  C   UNL     1       1.127   3.008  20.598  0.00  0.00    +0.000 C 
ATOM     25  C   UNL     1       2.415   3.764  20.908  0.00  0.00    +0.000 C 
ENDBRANCH   1  25
BRANCH   3  26
ATOM     26  C   UNL     1       0.427   8.184  21.583  0.00  0.00    +0.000 C 
ATOM     27  O   UNL     1      -0.781   8.001  21.627  0.00  0.00    +0.000 OA
BRANCH  26  28
ATOM     28  O   UNL     1       1.026   9.161  22.285  0.00  0.00    +0.000 OA
ATOM     29  H   UNL     1       1.493   9.830  21.728  0.00  0.00    +0.000 HD
ENDBRANCH  26  28
ENDBRANCH   3  26
TORSDOF 6
ENDMDL
MODEL 2
REMARK VINA RESULT:      -6.3      3.478      6.226
REMARK  Name = 
REMARK  7 active torsions:
REMARK  status: ('A' for Active; 'I' for Inactive)
REMARK    1  A    between atoms: C_1  and  C_2
REMARK    2  A    between atoms: C_2  and  N_3
REMARK    3  A    between atoms: C_5  and  C_6
REMARK    4  A    between atoms: C_6  and  O_8
REMARK    5  A    between atoms: C_12  and  N_13
REMARK    6  A    between atoms: C_16  and  N_17
REMARK    7  A    between atoms: C_19  and  N_20
REMARK                            x       y       z     vdW  Elec       q    Type
REMARK                         _______ _______ _______ _____ _____    ______ ____
ROOT
ATOM      1  N   UNL     1       4.435   5.199  17.443  0.00  0.00    +0.000 N 
ATOM      2  C   UNL     1       4.709   3.936  17.964  0.00  0.00    +0.000 A 
ATOM      3  C   UNL     1       4.199   3.393  19.073  0.00  0.00    +0.000 A 
ATOM      4  C   UNL     1       3.244   4.211  19.827  0.00  0.00    +0.000 A 
ATOM      5  O   UNL     1       2.662   3.707  20.786  0.00  0.00    +0.000 OA
ATOM      6  C   UNL     1       2.980   5.604  19.376  0.00  0.00    +0.000 A 
ATOM      7  C   UNL     1       2.113   6.395  20.162  0.00  0.00    +0.000 A 
ATOM      8  C   UNL     1       1.807   7.679  19.710  0.00  0.00    +0.000 A 
ATOM      9  F   UNL     1       1.040   8.449  20.504  0.00  0.00    +0.000 F 
ATOM     10  C   UNL     1       2.244   8.166  18.472  0.00  0.00    +0.000 A 
ATOM     11  C   UNL     1       3.147   7.354  17.736  0.00  0.00    +0.000 A 
ATOM     12  F   UNL     1       3.642   7.859  16.593  0.00  0.00    +0.000 F 
ATOM     13  C   UNL     1       3.545   6.060  18.150  0.00  0.00    +0.000 A 
ENDROOT
BRANCH  10  14
ATOM     14  N   UNL     1       1.787   9.429  18.009  0.00  0.00    +0.000 N 
ATOM     15  C   UNL     1       2.434  10.712  18.178  0.00  0.00    +0.000 C 
ATOM     16  C   UNL     1       1.065  11.327  18.489  0.00  0.00    +0.000 C 
ATOM     17  C   UNL     1       0.462   9.977  18.066  0.00  0.00    +0.000 C 
BRANCH  16  18
ATOM     18  N   UNL     1       0.926  11.502  19.948  0.00  0.00    +0.000 NA
ATOM     19  H   UNL     1       0.328  12.289  20.207  0.00  0.00    +0.000 HD
ATOM     20  H   UNL     1       1.812  11.659  20.426  0.00  0.00    +0.000 HD
ENDBRANCH  16  18
ENDBRANCH  10  14
BRANCH   7  21
ATOM     21  N   UNL     1       1.729   6.037  21.474  0.00  0.00    +0.000 N 
ATOM     22  H   UNL     1       2.247   5.233  21.842  0.00  0.00    +0.000 HD
ATOM     23  H   UNL     1       0.723   5.958  21.601  0.00  0.00    +0.000 HD
ENDBRANCH   7  21
BRANCH   1  25
ATOM     24  C   UNL     1       5.533   4.337  15.352  0.00  0.00    +0.000 C 
ATOM     25  C   UNL     1       4.984   5.544  16.105  0.00  0.00    +0.000 C 
ENDBRANCH   1  25
BRANCH   3  26
ATOM     26  C   UNL     1       4.563   2.013  19.466  0.00  0.00    +0.000 C 
ATOM     27  O   UNL     1       5.156   1.749  20.502  0.00  0.00    +0.000 OA
BRANCH  26  28
ATOM     28  O   UNL     1       4.188   1.059  18.596  0.00  0.00    +0.000 OA
ATOM     29  H   UNL     1       3.216   1.026  18.427  0.00  0.00    +0.000 HD
ENDBRANCH  26  28
ENDBRANCH   3  26
TORSDOF 6
ENDMDL
MODEL 3
REMARK VINA RESULT:      -6.3      3.175      6.315
REMARK  Name = 
REMARK  7 active torsions:
REMARK  status: ('A' for Active; 'I' for Inactive)
REMARK    1  A    between atoms: C_1  and  C_2
REMARK    2  A    between atoms: C_2  and  N_3
REMARK    3  A    between atoms: C_5  and  C_6
REMARK    4  A    between atoms: C_6  and  O_8
REMARK    5  A    between atoms: C_12  and  N_13
REMARK    6  A    between atoms: C_16  and  N_17
REMARK    7  A    between atoms: C_19  and  N_20
REMARK                            x       y       z     vdW  Elec       q    Type
REMARK                         _______ _______ _______ _____ _____    ______ ____
ROOT
ATOM      1  N   UNL     1       3.290   4.297  19.259  0.00  0.00    +0.000 N 
ATOM      2  C   UNL     1       4.102   3.942  18.183  0.00  0.00    +0.000 A 
ATOM      3  C   UNL     1       4.541   4.739  17.206  0.00  0.00    +0.000 A 
ATOM      4  C   UNL     1       4.129   6.145  17.268  0.00  0.00    +0.000 A 
ATOM      5  O   UNL     1       4.606   6.938  16.457  0.00  0.00    +0.000 OA
ATOM      6  C   UNL     1       3.185   6.569  18.337  0.00  0.00    +0.000 A 
ATOM      7  C   UNL     1       2.744   7.911  18.330  0.00  0.00    +0.000 A 
ATOM      8  C   UNL     1       1.913   8.334  19.368  0.00  0.00    +0.000 A 
ATOM      9  F   UNL     1       1.442   9.593  19.310  0.00  0.00    +0.000 F 
ATOM     10  C   UNL     1       1.588   7.512  20.454  0.00  0.00    +0.000 A 
ATOM     11  C   UNL     1       2.016   6.159  20.398  0.00  0.00    +0.000 A 
ATOM     12  F   UNL     1       1.624   5.345  21.392  0.00  0.00    +0.000 F 
ATOM     13  C   UNL     1       2.820   5.640  19.355  0.00  0.00    +0.000 A 
ENDROOT
BRANCH  10  14
ATOM     14  N   UNL     1       0.848   8.044  21.545  0.00  0.00    +0.000 N 
ATOM     15  C   UNL     1      -0.559   8.377  21.572  0.00  0.00    +0.000 C 
ATOM     16  C   UNL     1      -0.209   9.658  22.338  0.00  0.00    +0.000 C 
ATOM     17  C   UNL     1       1.218   9.096  22.448  0.00  0.00    +0.000 C 
BRANCH  16  18
ATOM     18  N   UNL     1      -0.226  10.805  21.409  0.00  0.00    +0.000 NA
ATOM     19  H   UNL     1       0.656  11.319  21.383  0.00  0.00    +0.000 HD
ATOM     20  H   UNL     1      -0.942  11.497  21.629  0.00  0.00    +0.000 HD
ENDBRANCH  16  18
ENDBRANCH  10  14
BRANCH   7  21
ATOM     21  N   UNL     1       2.919   8.768  17.220  0.00  0.00    +0.000 N 
ATOM     22  H   UNL     1       2.099   9.349  17.024  0.00  0.00    +0.000 HD
ATOM     23  H   UNL     1       3.286   8.300  16.394  0.00  0.00    +0.000 HD
ENDBRANCH   7  21
BRANCH   1  25
ATOM     24  C   UNL     1       1.867   2.376  20.036  0.00  0.00    +0.000 C 
ATOM     25  C   UNL     1       3.053   3.290  20.326  0.00  0.00    +0.000 C 
ENDBRANCH   1  25
BRANCH   3  26
ATOM     26  C   UNL     1       5.440   4.210  16.156  0.00  0.00    +0.000 C 
ATOM     27  O   UNL     1       5.102   4.091  14.987  0.00  0.00    +0.000 OA
BRANCH  26  28
ATOM     28  O   UNL     1       6.670   3.871  16.580  0.00  0.00    +0.000 OA
ATOM     29  H   UNL     1       7.402   4.223  16.018  0.00  0.00    +0.000 HD
ENDBRANCH  26  28
ENDBRANCH   3  26
TORSDOF 6
ENDMDL
MODEL 4
REMARK VINA RESULT:      -6.1      2.668      3.940
REMARK  Name = 
REMARK  7 active torsions:
REMARK  status: ('A' for Active; 'I' for Inactive)
REMARK    1  A    between atoms: C_1  and  C_2
REMARK    2  A    between atoms: C_2  and  N_3
REMARK    3  A    between atoms: C_5  and  C_6
REMARK    4  A    between atoms: C_6  and  O_8
REMARK    5  A    between atoms: C_12  and  N_13
REMARK    6  A    between atoms: C_16  and  N_17
REMARK    7  A    between atoms: C_19  and  N_20
REMARK                            x       y       z     vdW  Elec       q    Type
REMARK                         _______ _______ _______ _____ _____    ______ ____
ROOT
ATOM      1  N   UNL     1       1.057   8.257  20.680  0.00  0.00    +0.000 N 
ATOM      2  C   UNL     1       0.908   9.554  20.192  0.00  0.00    +0.000 A 
ATOM      3  C   UNL     1       1.388  10.045  19.046  0.00  0.00    +0.000 A 
ATOM      4  C   UNL     1       2.154   9.120  18.204  0.00  0.00    +0.000 A 
ATOM      5  O   UNL     1       2.512   9.495  17.088  0.00  0.00    +0.000 OA
ATOM      6  C   UNL     1       2.430   7.749  18.711  0.00  0.00    +0.000 A 
ATOM      7  C   UNL     1       3.233   6.903  17.914  0.00  0.00    +0.000 A 
ATOM      8  C   UNL     1       3.440   5.594  18.350  0.00  0.00    +0.000 A 
ATOM      9  F   UNL     1       4.265   4.821  17.621  0.00  0.00    +0.000 F 
ATOM     10  C   UNL     1       2.805   5.068  19.483  0.00  0.00    +0.000 A 
ATOM     11  C   UNL     1       2.043   5.965  20.277  0.00  0.00    +0.000 A 
ATOM     12  F   UNL     1       1.512   5.486  21.414  0.00  0.00    +0.000 F 
ATOM     13  C   UNL     1       1.826   7.320  19.929  0.00  0.00    +0.000 A 
ENDROOT
BRANCH  10  14
ATOM     14  N   UNL     1       2.951   3.690  19.797  0.00  0.00    +0.000 N 
ATOM     15  C   UNL     1       4.184   2.948  19.937  0.00  0.00    +0.000 C 
ATOM     16  C   UNL     1       3.538   1.790  19.167  0.00  0.00    +0.000 C 
ATOM     17  C   UNL     1       2.219   2.571  19.277  0.00  0.00    +0.000 C 
BRANCH  16  18
ATOM     18  N   UNL     1       4.015   1.805  17.770  0.00  0.00    +0.000 NA
ATOM     19  H   UNL     1       4.421   2.698  17.489  0.00  0.00    +0.000 HD
ATOM     20  H   UNL     1       3.283   1.608  17.088  0.00  0.00    +0.000 HD
ENDBRANCH  16  18
ENDBRANCH  10  14
BRANCH   7  21
ATOM     21  N   UNL     1       4.007   7.380  16.832  0.00  0.00    +0.000 N 
ATOM     22  H   UNL     1       5.013   7.241  16.963  0.00  0.00    +0.000 HD
ATOM     23  H   UNL     1       3.767   8.325  16.540  0.00  0.00    +0.000 HD
ENDBRANCH   7  21
BRANCH   1  25
ATOM     24  C   UNL     1      -0.412   9.049  22.561  0.00  0.00    +0.000 C 
ATOM     25  C   UNL     1       0.302   7.873  21.901  0.00  0.00    +0.000 C 
ENDBRANCH   1  25
BRANCH   3  26
ATOM     26  C   UNL     1       1.100  11.442  18.651  0.00  0.00    +0.000 C 
ATOM     27  O   UNL     1       0.061  12.016  18.943  0.00  0.00    +0.000 OA
BRANCH  26  28
ATOM     28  O   UNL     1       2.073  12.044  17.946  0.00  0.00    +0.000 OA
ATOM     29  H   UNL     1       2.983  11.720  18.154  0.00  0.00    +0.000 HD
ENDBRANCH  26  28
ENDBRANCH   3  26
TORSDOF 6
ENDMDL
MODEL 5
REMARK VINA RESULT:      -5.9      2.749      4.613
REMARK  Name = 
REMARK  7 active torsions:
REMARK  status: ('A' for Active; 'I' for Inactive)
REMARK    1  A    between atoms: C_1  and  C_2
REMARK    2  A    between atoms: C_2  and  N_3
REMARK    3  A    between atoms: C_5  and  C_6
REMARK    4  A    between atoms: C_6  and  O_8
REMARK    5  A    between atoms: C_12  and  N_13
REMARK    6  A    between atoms: C_16  and  N_17
REMARK    7  A    between atoms: C_19  and  N_20
REMARK                            x       y       z     vdW  Elec       q    Type
REMARK                         _______ _______ _______ _____ _____    ______ ____
ROOT
ATOM      1  N   UNL     1       0.888   8.527  20.672  0.00  0.00    +0.000 N 
ATOM      2  C   UNL     1       0.821   9.851  20.241  0.00  0.00    +0.000 A 
ATOM      3  C   UNL     1       1.345  10.362  19.123  0.00  0.00    +0.000 A 
ATOM      4  C   UNL     1       2.068   9.432  18.249  0.00  0.00    +0.000 A 
ATOM      5  O   UNL     1       2.462   9.834  17.155  0.00  0.00    +0.000 OA
ATOM      6  C   UNL     1       2.255   8.026  18.698  0.00  0.00    +0.000 A 
ATOM      7  C   UNL     1       3.019   7.170  17.873  0.00  0.00    +0.000 A 
ATOM      8  C   UNL     1       3.142   5.833  18.252  0.00  0.00    +0.000 A 
ATOM      9  F   UNL     1       3.932   5.046  17.498  0.00  0.00    +0.000 F 
ATOM     10  C   UNL     1       2.463   5.297  19.352  0.00  0.00    +0.000 A 
ATOM     11  C   UNL     1       1.743   6.201  20.177  0.00  0.00    +0.000 A 
ATOM     12  F   UNL     1       1.169   5.705  21.286  0.00  0.00    +0.000 F 
ATOM     13  C   UNL     1       1.611   7.581  19.888  0.00  0.00    +0.000 A 
ENDROOT
BRANCH  10  14
ATOM     14  N   UNL     1       2.524   3.900  19.607  0.00  0.00    +0.000 N 
ATOM     15  C   UNL     1       1.413   2.996  19.812  0.00  0.00    +0.000 C 
ATOM     16  C   UNL     1       2.201   2.337  20.950  0.00  0.00    +0.000 C 
ATOM     17  C   UNL     1       3.397   3.190  20.497  0.00  0.00    +0.000 C 
BRANCH  16  18
ATOM     18  N   UNL     1       1.696   2.830  22.246  0.00  0.00    +0.000 NA
ATOM     19  H   UNL     1       1.941   3.804  22.433  0.00  0.00    +0.000 HD
ATOM     20  H   UNL     1       2.041   2.301  23.046  0.00  0.00    +0.000 HD
ENDBRANCH  16  18
ENDBRANCH  10  14
BRANCH   7  21
ATOM     21  N   UNL     1       3.834   7.648  16.822  0.00  0.00    +0.000 N 
ATOM     22  H   UNL     1       3.358   8.321  16.214  0.00  0.00    +0.000 HD
ATOM     23  H   UNL     1       4.315   6.913  16.309  0.00  0.00    +0.000 HD
ENDBRANCH   7  21
BRANCH   1  25
ATOM     24  C   UNL     1      -0.279   9.317  22.754  0.00  0.00    +0.000 C 
ATOM     25  C   UNL     1       0.094   8.135  21.866  0.00  0.00    +0.000 C 
ENDBRANCH   1  25
BRANCH   3  26
ATOM     26  C   UNL     1       1.145  11.790  18.788  0.00  0.00    +0.000 C 
ATOM     27  O   UNL     1       0.158  12.423  19.134  0.00  0.00    +0.000 OA
BRANCH  26  28
ATOM     28  O   UNL     1       2.136  12.349  18.074  0.00  0.00    +0.000 OA
ATOM     29  H   UNL     1       3.036  12.217  18.460  0.00  0.00    +0.000 HD
ENDBRANCH  26  28
ENDBRANCH   3  26
TORSDOF 6
ENDMDL
MODEL 6
REMARK VINA RESULT:      -5.8      4.064      7.116
REMARK  Name = 
REMARK  7 active torsions:
REMARK  status: ('A' for Active; 'I' for Inactive)
REMARK    1  A    between atoms: C_1  and  C_2
REMARK    2  A    between atoms: C_2  and  N_3
REMARK    3  A    between atoms: C_5  and  C_6
REMARK    4  A    between atoms: C_6  and  O_8
REMARK    5  A    between atoms: C_12  and  N_13
REMARK    6  A    between atoms: C_16  and  N_17
REMARK    7  A    between atoms: C_19  and  N_20
REMARK                            x       y       z     vdW  Elec       q    Type
REMARK                         _______ _______ _______ _____ _____    ______ ____
ROOT
ATOM      1  N   UNL     1       7.011   5.488  17.305  0.00  0.00    +0.000 N 
ATOM      2  C   UNL     1       7.493   5.476  15.997  0.00  0.00    +0.000 A 
ATOM      3  C   UNL     1       6.879   4.986  14.916  0.00  0.00    +0.000 A 
ATOM      4  C   UNL     1       5.552   4.397  15.123  0.00  0.00    +0.000 A 
ATOM      5  O   UNL     1       4.903   4.043  14.140  0.00  0.00    +0.000 OA
ATOM      6  C   UNL     1       5.022   4.294  16.509  0.00  0.00    +0.000 A 
ATOM      7  C   UNL     1       3.775   3.655  16.689  0.00  0.00    +0.000 A 
ATOM      8  C   UNL     1       3.238   3.614  17.976  0.00  0.00    +0.000 A 
ATOM      9  F   UNL     1       2.086   2.940  18.146  0.00  0.00    +0.000 F 
ATOM     10  C   UNL     1       3.838   4.263  19.063  0.00  0.00    +0.000 A 
ATOM     11  C   UNL     1       5.111   4.854  18.846  0.00  0.00    +0.000 A 
ATOM     12  F   UNL     1       5.731   5.394  19.908  0.00  0.00    +0.000 F 
ATOM     13  C   UNL     1       5.745   4.895  17.580  0.00  0.00    +0.000 A 
ENDROOT
BRANCH  10  14
ATOM     14  N   UNL     1       3.174   4.297  20.318  0.00  0.00    +0.000 N 
ATOM     15  C   UNL     1       2.922   3.186  21.209  0.00  0.00    +0.000 C 
ATOM     16  C   UNL     1       1.513   3.739  21.450  0.00  0.00    +0.000 C 
ATOM     17  C   UNL     1       1.965   4.985  20.672  0.00  0.00    +0.000 C 
BRANCH  16  18
ATOM     18  N   UNL     1       0.541   2.972  20.646  0.00  0.00    +0.000 NA
ATOM     19  H   UNL     1       0.103   2.207  21.162  0.00  0.00    +0.000 HD
ATOM     20  H   UNL     1       0.946   2.546  19.814  0.00  0.00    +0.000 HD
ENDBRANCH  16  18
ENDBRANCH  10  14
BRANCH   7  21
ATOM     21  N   UNL     1       3.164   2.873  15.682  0.00  0.00    +0.000 N 
ATOM     22  H   UNL     1       3.816   2.573  14.952  0.00  0.00    +0.000 HD
ATOM     23  H   UNL     1       2.305   3.276  15.313  0.00  0.00    +0.000 HD
ENDBRANCH   7  21
BRANCH   1  25
ATOM     24  C   UNL     1       7.947   7.714  18.007  0.00  0.00    +0.000 C 
ATOM     25  C   UNL     1       7.784   6.233  18.334  0.00  0.00    +0.000 C 
ENDBRANCH   1  25
BRANCH   3  26
ATOM     26  C   UNL     1       7.513   5.093  13.583  0.00  0.00    +0.000 C 
ATOM     27  O   UNL     1       8.408   5.888  13.333  0.00  0.00    +0.000 OA
BRANCH  26  28
ATOM     28  O   UNL     1       7.035   4.244  12.658  0.00  0.00    +0.000 OA
ATOM     29  H   UNL     1       7.572   3.422  12.549  0.00  0.00    +0.000 HD
ENDBRANCH  26  28
ENDBRANCH   3  26
TORSDOF 6
ENDMDL
MODEL 7
REMARK VINA RESULT:      -5.8      8.934     12.052
REMARK  Name = 
REMARK  7 active torsions:
REMARK  status: ('A' for Active; 'I' for Inactive)
REMARK    1  A    between atoms: C_1  and  C_2
REMARK    2  A    between atoms: C_2  and  N_3
REMARK    3  A    between atoms: C_5  and  C_6
REMARK    4  A    between atoms: C_6  and  O_8
REMARK    5  A    between atoms: C_12  and  N_13
REMARK    6  A    between atoms: C_16  and  N_17
REMARK    7  A    between atoms: C_19  and  N_20
REMARK                            x       y       z     vdW  Elec       q    Type
REMARK                         _______ _______ _______ _____ _____    ______ ____
ROOT
ATOM      1  N   UNL     1      -5.592  12.059  18.157  0.00  0.00    +0.000 N 
ATOM      2  C   UNL     1      -4.889  11.538  17.072  0.00  0.00    +0.000 A 
ATOM      3  C   UNL     1      -3.589  11.233  17.025  0.00  0.00    +0.000 A 
ATOM      4  C   UNL     1      -2.813  11.467  18.247  0.00  0.00    +0.000 A 
ATOM      5  O   UNL     1      -1.643  11.090  18.285  0.00  0.00    +0.000 OA
ATOM      6  C   UNL     1      -3.483  12.110  19.409  0.00  0.00    +0.000 A 
ATOM      7  C   UNL     1      -2.694  12.392  20.547  0.00  0.00    +0.000 A 
ATOM      8  C   UNL     1      -3.329  12.932  21.667  0.00  0.00    +0.000 A 
ATOM      9  F   UNL     1      -2.555  13.265  22.716  0.00  0.00    +0.000 F 
ATOM     10  C   UNL     1      -4.716  13.107  21.734  0.00  0.00    +0.000 A 
ATOM     11  C   UNL     1      -5.463  12.851  20.555  0.00  0.00    +0.000 A 
ATOM     12  F   UNL     1      -6.781  13.108  20.588  0.00  0.00    +0.000 F 
ATOM     13  C   UNL     1      -4.887  12.348  19.362  0.00  0.00    +0.000 A 
ENDROOT
BRANCH  10  14
ATOM     14  N   UNL     1      -5.315  13.534  22.950  0.00  0.00    +0.000 N 
ATOM     15  C   UNL     1      -5.509  12.756  24.154  0.00  0.00    +0.000 C 
ATOM     16  C   UNL     1      -6.910  13.366  24.285  0.00  0.00    +0.000 C 
ATOM     17  C   UNL     1      -6.511  14.306  23.136  0.00  0.00    +0.000 C 
BRANCH  16  18
ATOM     18  N   UNL     1      -7.914  12.393  23.811  0.00  0.00    +0.000 NA
ATOM     19  H   UNL     1      -7.967  11.552  24.388  0.00  0.00    +0.000 HD
ATOM     20  H   UNL     1      -7.748  12.066  22.860  0.00  0.00    +0.000 HD
ENDBRANCH  16  18
ENDBRANCH  10  14
BRANCH   7  21
ATOM     21  N   UNL     1      -1.281  12.365  20.524  0.00  0.00    +0.000 N 
ATOM     22  H   UNL     1      -0.857  13.281  20.696  0.00  0.00    +0.000 HD
ATOM     23  H   UNL     1      -0.893  11.888  19.714  0.00  0.00    +0.000 HD
ENDBRANCH   7  21
BRANCH   1  25
ATOM     24  C   UNL     1      -7.527  13.470  17.394  0.00  0.00    +0.000 C 
ATOM     25  C   UNL     1      -7.070  12.172  18.051  0.00  0.00    +0.000 C 
ENDBRANCH   1  25
BRANCH   3  26
ATOM     26  C   UNL     1      -3.004  10.642  15.800  0.00  0.00    +0.000 C 
ATOM     27  O   UNL     1      -3.285  11.026  14.674  0.00  0.00    +0.000 OA
BRANCH  26  28
ATOM     28  O   UNL     1      -2.128   9.645  16.015  0.00  0.00    +0.000 OA
ATOM     29  H   UNL     1      -1.849   9.169  15.196  0.00  0.00    +0.000 HD
ENDBRANCH  26  28
ENDBRANCH   3  26
TORSDOF 6
ENDMDL
MODEL 8
REMARK VINA RESULT:      -5.8      7.049     10.370
REMARK  Name = 
REMARK  7 active torsions:
REMARK  status: ('A' for Active; 'I' for Inactive)
REMARK    1  A    between atoms: C_1  and  C_2
REMARK    2  A    between atoms: C_2  and  N_3
REMARK    3  A    between atoms: C_5  and  C_6
REMARK    4  A    between atoms: C_6  and  O_8
REMARK    5  A    between atoms: C_12  and  N_13
REMARK    6  A    between atoms: C_16  and  N_17
REMARK    7  A    between atoms: C_19  and  N_20
REMARK                            x       y       z     vdW  Elec       q    Type
REMARK                         _______ _______ _______ _____ _____    ______ ____
ROOT
ATOM      1  N   UNL     1      -2.184  10.477  17.666  0.00  0.00    +0.000 N 
ATOM      2  C   UNL     1      -0.898   9.939  17.625  0.00  0.00    +0.000 A 
ATOM      3  C   UNL     1       0.069  10.092  18.533  0.00  0.00    +0.000 A 
ATOM      4  C   UNL     1      -0.251  10.914  19.705  0.00  0.00    +0.000 A 
ATOM      5  O   UNL     1       0.567  10.984  20.620  0.00  0.00    +0.000 OA
ATOM      6  C   UNL     1      -1.573  11.594  19.763  0.00  0.00    +0.000 A 
ATOM      7  C   UNL     1      -1.829  12.440  20.865  0.00  0.00    +0.000 A 
ATOM      8  C   UNL     1      -3.090  13.028  20.963  0.00  0.00    +0.000 A 
ATOM      9  F   UNL     1      -3.296  13.888  21.977  0.00  0.00    +0.000 F 
ATOM     10  C   UNL     1      -4.129  12.733  20.071  0.00  0.00    +0.000 A 
ATOM     11  C   UNL     1      -3.816  11.913  18.955  0.00  0.00    +0.000 A 
ATOM     12  F   UNL     1      -4.785  11.707  18.048  0.00  0.00    +0.000 F 
ATOM     13  C   UNL     1      -2.546  11.319  18.758  0.00  0.00    +0.000 A 
ENDROOT
BRANCH  10  14
ATOM     14  N   UNL     1      -5.428  13.259  20.302  0.00  0.00    +0.000 N 
ATOM     15  C   UNL     1      -6.630  12.522  20.622  0.00  0.00    +0.000 C 
ATOM     16  C   UNL     1      -7.405  13.425  19.655  0.00  0.00    +0.000 C 
ATOM     17  C   UNL     1      -6.127  14.274  19.566  0.00  0.00    +0.000 C 
BRANCH  16  18
ATOM     18  N   UNL     1      -7.621  12.709  18.382  0.00  0.00    +0.000 NA
ATOM     19  H   UNL     1      -7.375  13.262  17.560  0.00  0.00    +0.000 HD
ATOM     20  H   UNL     1      -8.587  12.416  18.239  0.00  0.00    +0.000 HD
ENDBRANCH  16  18
ENDBRANCH  10  14
BRANCH   7  21
ATOM     21  N   UNL     1      -0.811  12.888  21.737  0.00  0.00    +0.000 N 
ATOM     22  H   UNL     1      -0.645  13.898  21.680  0.00  0.00    +0.000 HD
ATOM     23  H   UNL     1       0.044  12.338  21.688  0.00  0.00    +0.000 HD
ENDBRANCH   7  21
BRANCH   1  25
ATOM     24  C   UNL     1      -2.950  10.729  15.284  0.00  0.00    +0.000 C 
ATOM     25  C   UNL     1      -3.161  10.046  16.632  0.00  0.00    +0.000 C 
ENDBRANCH   1  25
BRANCH   3  26
ATOM     26  C   UNL     1       1.372   9.412  18.360  0.00  0.00    +0.000 C 
ATOM     27  O   UNL     1       2.101   9.602  17.397  0.00  0.00    +0.000 OA
BRANCH  26  28
ATOM     28  O   UNL     1       1.705   8.565  19.349  0.00  0.00    +0.000 OA
ATOM     29  H   UNL     1       2.350   8.935  19.998  0.00  0.00    +0.000 HD
ENDBRANCH  26  28
ENDBRANCH   3  26
TORSDOF 6
ENDMDL
MODEL 9
REMARK VINA RESULT:      -5.8      9.277      9.905
REMARK  Name = 
REMARK  7 active torsions:
REMARK  status: ('A' for Active; 'I' for Inactive)
REMARK    1  A    between atoms: C_1  and  C_2
REMARK    2  A    between atoms: C_2  and  N_3
REMARK    3  A    between atoms: C_5  and  C_6
REMARK    4  A    between atoms: C_6  and  O_8
REMARK    5  A    between atoms: C_12  and  N_13
REMARK    6  A    between atoms: C_16  and  N_17
REMARK    7  A    between atoms: C_19  and  N_20
REMARK                            x       y       z     vdW  Elec       q    Type
REMARK                         _______ _______ _______ _____ _____    ______ ____
ROOT
ATOM      1  N   UNL     1       6.603  14.901  19.880  0.00  0.00    +0.000 N 
ATOM      2  C   UNL     1       5.636  15.015  20.877  0.00  0.00    +0.000 A 
ATOM      3  C   UNL     1       5.695  14.521  22.117  0.00  0.00    +0.000 A 
ATOM      4  C   UNL     1       6.908  13.778  22.473  0.00  0.00    +0.000 A 
ATOM      5  O   UNL     1       7.055  13.409  23.638  0.00  0.00    +0.000 OA
ATOM      6  C   UNL     1       7.936  13.540  21.425  0.00  0.00    +0.000 A 
ATOM      7  C   UNL     1       9.060  12.759  21.773  0.00  0.00    +0.000 A 
ATOM      8  C   UNL     1      10.062  12.588  20.817  0.00  0.00    +0.000 A 
ATOM      9  F   UNL     1      11.091  11.781  21.136  0.00  0.00    +0.000 F 
ATOM     10  C   UNL     1      10.038  13.237  19.577  0.00  0.00    +0.000 A 
ATOM     11  C   UNL     1       8.870  13.977  19.252  0.00  0.00    +0.000 A 
ATOM     12  F   UNL     1       8.803  14.522  18.026  0.00  0.00    +0.000 F 
ATOM     13  C   UNL     1       7.789  14.157  20.149  0.00  0.00    +0.000 A 
ENDROOT
BRANCH  10  14
ATOM     14  N   UNL     1      11.151  13.128  18.701  0.00  0.00    +0.000 N 
ATOM     15  C   UNL     1      12.048  14.185  18.286  0.00  0.00    +0.000 C 
ATOM     16  C   UNL     1      12.002  13.621  16.861  0.00  0.00    +0.000 C 
ATOM     17  C   UNL     1      11.244  12.423  17.455  0.00  0.00    +0.000 C 
BRANCH  16  18
ATOM     18  N   UNL     1      11.087  14.437  16.040  0.00  0.00    +0.000 NA
ATOM     19  H   UNL     1      10.636  15.190  16.563  0.00  0.00    +0.000 HD
ATOM     20  H   UNL     1      10.329  13.900  15.619  0.00  0.00    +0.000 HD
ENDBRANCH  16  18
ENDBRANCH  10  14
BRANCH   7  21
ATOM     21  N   UNL     1       9.110  11.971  22.946  0.00  0.00    +0.000 N 
ATOM     22  H   UNL     1       9.071  10.964  22.758  0.00  0.00    +0.000 HD
ATOM     23  H   UNL     1       8.461  12.270  23.670  0.00  0.00    +0.000 HD
ENDBRANCH   7  21
BRANCH   1  25
ATOM     24  C   UNL     1       5.166  15.247  17.845  0.00  0.00    +0.000 C 
ATOM     25  C   UNL     1       6.410  15.668  18.621  0.00  0.00    +0.000 C 
ENDBRANCH   1  25
BRANCH   3  26
ATOM     26  C   UNL     1       4.594  14.771  23.075  0.00  0.00    +0.000 C 
ATOM     27  O   UNL     1       3.416  14.775  22.750  0.00  0.00    +0.000 OA
BRANCH  26  28
ATOM     28  O   UNL     1       4.985  14.991  24.342  0.00  0.00    +0.000 OA
ATOM     29  H   UNL     1       5.753  14.442  24.629  0.00  0.00    +0.000 HD
ENDBRANCH  26  28
ENDBRANCH   3  26
TORSDOF 6
ENDMDL
