MODEL 1
REMARK VINA RESULT:      -7.9      0.000      0.000
REMARK  Name = 
REMARK  6 active torsions:
REMARK  status: ('A' for Active; 'I' for Inactive)
REMARK    1  A    between atoms: C_2  and  C_13
REMARK    2  A    between atoms: N_3  and  C_4
REMARK    3  A    between atoms: C_4  and  C_5
REMARK    4  A    between atoms: N_16  and  S_17
REMARK    5  A    between atoms: S_17  and  C_20
REMARK    6  A    between atoms: C_25  and  N_26
REMARK                            x       y       z     vdW  Elec       q    Type
REMARK                         _______ _______ _______ _____ _____    ______ ____
ROOT
ATOM      1  C   UNL     1       8.061   5.914  18.597  0.00  0.00    +0.000 C 
ATOM      2  C   UNL     1       7.908   4.732  17.637  0.00  0.00    +0.000 C 
ATOM      3  C   UNL     1       6.495   4.652  17.059  0.00  0.00    +0.000 C 
ATOM      4  N   UNL     1       5.482   4.529  18.144  0.00  0.00    +0.000 NA
ATOM      5  C   UNL     1       5.578   5.667  19.122  0.00  0.00    +0.000 C 
ATOM      6  C   UNL     1       6.994   5.806  19.693  0.00  0.00    +0.000 C 
ENDROOT
BRANCH   1   8
ATOM      7  O   UNL     1       7.421   7.411  16.798  0.00  0.00    +0.000 OA
ATOM      8  C   UNL     1       7.993   7.262  17.881  0.00  0.00    +0.000 C 
ATOM      9  N   UNL     1       8.613   8.297  18.533  0.00  0.00    +0.000 N 
ATOM     10  H   UNL     1       8.886   8.182  19.504  0.00  0.00    +0.000 HD
BRANCH   9  11
ATOM     11  C   UNL     1       8.658   9.633  17.985  0.00  0.00    +0.000 C 
BRANCH  11  12
ATOM     12  C   UNL     1       8.867  10.688  19.049  0.00  0.00    +0.000 A 
ATOM     13  C   UNL     1       9.114  10.271  20.372  0.00  0.00    +0.000 A 
ATOM     14  C   UNL     1       9.362  11.199  21.385  0.00  0.00    +0.000 A 
ATOM     15  C   UNL     1       9.363  12.558  21.090  0.00  0.00    +0.000 A 
ATOM     16 CL   UNL     1       9.682  13.702  22.336  0.00  0.00    +0.000 Cl
ATOM     17  C   UNL     1       9.115  12.998  19.794  0.00  0.00    +0.000 A 
ATOM     18  C   UNL     1       8.869  12.067  18.777  0.00  0.00    +0.000 A 
ATOM     19 CL   UNL     1       8.578  12.680  17.186  0.00  0.00    +0.000 Cl
ENDBRANCH  11  12
ENDBRANCH   9  11
ENDBRANCH   1   8
BRANCH   4  20
ATOM     20  S   UNL     1       3.865   4.341  17.558  0.00  0.00    +0.000 S 
ATOM     21  O   UNL     1       3.377   5.613  17.073  0.00  0.00    +0.000 OA
ATOM     22  O   UNL     1       3.884   3.185  16.685  0.00  0.00    +0.000 OA
BRANCH  20  23
ATOM     23  C   UNL     1       2.859   3.918  18.960  0.00  0.00    +0.000 A 
ATOM     24  C   UNL     1       1.871   4.835  19.363  0.00  0.00    +0.000 A 
ATOM     25  C   UNL     1       1.087   4.596  20.497  0.00  0.00    +0.000 A 
ATOM     26  C   UNL     1       1.262   3.433  21.241  0.00  0.00    +0.000 A 
ATOM     27  C   UNL     1       2.269   2.535  20.883  0.00  0.00    +0.000 A 
ATOM     28  C   UNL     1       3.088   2.802  19.769  0.00  0.00    +0.000 A 
BRANCH  28  29
ATOM     29  N   UNL     1       4.202   1.900  19.564  0.00  0.00    +0.000 N 
ATOM     30  O   UNL     1       5.253   2.145  20.170  0.00  0.00    +0.000 OA
ATOM     31  O   UNL     1       4.057   1.014  18.709  0.00  0.00    +0.000 OA
ENDBRANCH  28  29
ENDBRANCH  20  23
ENDBRANCH   4  20
TORSDOF 6
ENDMDL
MODEL 2
REMARK VINA RESULT:      -7.6      1.865      2.370
REMARK  Name = 
REMARK  6 active torsions:
REMARK  status: ('A' for Active; 'I' for Inactive)
REMARK    1  A    between atoms: C_2  and  C_13
REMARK    2  A    between atoms: N_3  and  C_4
REMARK    3  A    between atoms: C_4  and  C_5
REMARK    4  A    between atoms: N_16  and  S_17
REMARK    5  A    between atoms: S_17  and  C_20
REMARK    6  A    between atoms: C_25  and  N_26
REMARK                            x       y       z     vdW  Elec       q    Type
REMARK                         _______ _______ _______ _____ _____    ______ ____
ROOT
ATOM      1  C   UNL     1       7.492   5.685  17.050  0.00  0.00    +0.000 C 
ATOM      2  C   UNL     1       6.781   4.728  16.091  0.00  0.00    +0.000 C 
ATOM      3  C   UNL     1       5.345   4.446  16.534  0.00  0.00    +0.000 C 
ATOM      4  N   UNL     1       5.315   3.868  17.907  0.00  0.00    +0.000 NA
ATOM      5  C   UNL     1       5.997   4.767  18.901  0.00  0.00    +0.000 C 
ATOM      6  C   UNL     1       7.427   5.108  18.469  0.00  0.00    +0.000 C 
ENDROOT
BRANCH   1   8
ATOM      7  O   UNL     1       5.799   7.346  16.537  0.00  0.00    +0.000 OA
ATOM      8  C   UNL     1       6.918   7.100  16.996  0.00  0.00    +0.000 C 
ATOM      9  N   UNL     1       7.737   8.078  17.498  0.00  0.00    +0.000 N 
ATOM     10  H   UNL     1       8.549   7.815  18.048  0.00  0.00    +0.000 HD
BRANCH   9  11
ATOM     11  C   UNL     1       7.355   9.472  17.506  0.00  0.00    +0.000 C 
BRANCH  11  12
ATOM     12  C   UNL     1       8.368  10.347  18.210  0.00  0.00    +0.000 A 
ATOM     13  C   UNL     1       9.246   9.748  19.136  0.00  0.00    +0.000 A 
ATOM     14  C   UNL     1      10.234  10.497  19.780  0.00  0.00    +0.000 A 
ATOM     15  C   UNL     1      10.354  11.856  19.509  0.00  0.00    +0.000 A 
ATOM     16 CL   UNL     1      11.578  12.777  20.292  0.00  0.00    +0.000 Cl
ATOM     17  C   UNL     1       9.495  12.474  18.605  0.00  0.00    +0.000 A 
ATOM     18  C   UNL     1       8.507  11.721  17.957  0.00  0.00    +0.000 A 
ATOM     19 CL   UNL     1       7.481  12.548  16.838  0.00  0.00    +0.000 Cl
ENDBRANCH  11  12
ENDBRANCH   9  11
ENDBRANCH   1   8
BRANCH   4  20
ATOM     20  S   UNL     1       3.725   3.438  18.438  0.00  0.00    +0.000 S 
ATOM     21  O   UNL     1       2.931   3.030  17.300  0.00  0.00    +0.000 OA
ATOM     22  O   UNL     1       3.905   2.543  19.562  0.00  0.00    +0.000 OA
BRANCH  20  23
ATOM     23  C   UNL     1       2.978   4.922  19.067  0.00  0.00    +0.000 A 
ATOM     24  C   UNL     1       3.385   6.150  18.514  0.00  0.00    +0.000 A 
ATOM     25  C   UNL     1       2.886   7.362  19.006  0.00  0.00    +0.000 A 
ATOM     26  C   UNL     1       1.962   7.370  20.046  0.00  0.00    +0.000 A 
ATOM     27  C   UNL     1       1.583   6.164  20.638  0.00  0.00    +0.000 A 
ATOM     28  C   UNL     1       2.124   4.950  20.172  0.00  0.00    +0.000 A 
BRANCH  28  29
ATOM     29  N   UNL     1       1.797   3.768  20.942  0.00  0.00    +0.000 N 
ATOM     30  O   UNL     1       0.903   3.033  20.506  0.00  0.00    +0.000 OA
ATOM     31  O   UNL     1       2.359   3.642  22.040  0.00  0.00    +0.000 OA
ENDBRANCH  28  29
ENDBRANCH  20  23
ENDBRANCH   4  20
TORSDOF 6
ENDMDL
MODEL 3
REMARK VINA RESULT:      -7.6      1.305      2.174
REMARK  Name = 
REMARK  6 active torsions:
REMARK  status: ('A' for Active; 'I' for Inactive)
REMARK    1  A    between atoms: C_2  and  C_13
REMARK    2  A    between atoms: N_3  and  C_4
REMARK    3  A    between atoms: C_4  and  C_5
REMARK    4  A    between atoms: N_16  and  S_17
REMARK    5  A    between atoms: S_17  and  C_20
REMARK    6  A    between atoms: C_25  and  N_26
REMARK                            x       y       z     vdW  Elec       q    Type
REMARK                         _______ _______ _______ _____ _____    ______ ____
ROOT
ATOM      1  C   UNL     1       8.030   5.904  18.496  0.00  0.00    +0.000 C 
ATOM      2  C   UNL     1       8.029   4.701  17.549  0.00  0.00    +0.000 C 
ATOM      3  C   UNL     1       6.614   4.328  17.110  0.00  0.00    +0.000 C 
ATOM      4  N   UNL     1       5.755   4.019  18.287  0.00  0.00    +0.000 NA
ATOM      5  C   UNL     1       5.711   5.167  19.257  0.00  0.00    +0.000 C 
ATOM      6  C   UNL     1       7.116   5.599  19.689  0.00  0.00    +0.000 C 
ENDROOT
BRANCH   1   8
ATOM      7  O   UNL     1       6.813   7.225  16.865  0.00  0.00    +0.000 OA
ATOM      8  C   UNL     1       7.623   7.200  17.796  0.00  0.00    +0.000 C 
ATOM      9  N   UNL     1       8.221   8.334  18.281  0.00  0.00    +0.000 N 
ATOM     10  H   UNL     1       8.713   8.298  19.168  0.00  0.00    +0.000 HD
BRANCH   9  11
ATOM     11  C   UNL     1       7.960   9.640  17.720  0.00  0.00    +0.000 C 
BRANCH  11  12
ATOM     12  C   UNL     1       8.827  10.717  18.333  0.00  0.00    +0.000 A 
ATOM     13  C   UNL     1       9.829  10.335  19.248  0.00  0.00    +0.000 A 
ATOM     14  C   UNL     1      10.690  11.282  19.808  0.00  0.00    +0.000 A 
ATOM     15  C   UNL     1      10.559  12.623  19.464  0.00  0.00    +0.000 A 
ATOM     16 CL   UNL     1      11.628  13.787  20.145  0.00  0.00    +0.000 Cl
ATOM     17  C   UNL     1       9.573  13.028  18.570  0.00  0.00    +0.000 A 
ATOM     18  C   UNL     1       8.712  12.079  18.005  0.00  0.00    +0.000 A 
ATOM     19 CL   UNL     1       7.516  12.648  16.893  0.00  0.00    +0.000 Cl
ENDBRANCH  11  12
ENDBRANCH   9  11
ENDBRANCH   1   8
BRANCH   4  20
ATOM     20  S   UNL     1       4.161   3.499  17.859  0.00  0.00    +0.000 S 
ATOM     21  O   UNL     1       3.584   4.436  16.920  0.00  0.00    +0.000 OA
ATOM     22  O   UNL     1       4.275   2.096  17.514  0.00  0.00    +0.000 OA
BRANCH  20  23
ATOM     23  C   UNL     1       3.178   3.595  19.336  0.00  0.00    +0.000 A 
ATOM     24  C   UNL     1       3.185   2.488  20.205  0.00  0.00    +0.000 A 
ATOM     25  C   UNL     1       2.385   2.470  21.353  0.00  0.00    +0.000 A 
ATOM     26  C   UNL     1       1.575   3.558  21.662  0.00  0.00    +0.000 A 
ATOM     27  C   UNL     1       1.521   4.644  20.787  0.00  0.00    +0.000 A 
ATOM     28  C   UNL     1       2.292   4.639  19.608  0.00  0.00    +0.000 A 
BRANCH  28  29
ATOM     29  N   UNL     1       2.055   5.730  18.686  0.00  0.00    +0.000 N 
ATOM     30  O   UNL     1       1.310   5.511  17.723  0.00  0.00    +0.000 OA
ATOM     31  O   UNL     1       2.709   6.768  18.867  0.00  0.00    +0.000 OA
ENDBRANCH  28  29
ENDBRANCH  20  23
ENDBRANCH   4  20
TORSDOF 6
ENDMDL
MODEL 4
REMARK VINA RESULT:      -7.5      4.101      5.151
REMARK  Name = 
REMARK  6 active torsions:
REMARK  status: ('A' for Active; 'I' for Inactive)
REMARK    1  A    between atoms: C_2  and  C_13
REMARK    2  A    between atoms: N_3  and  C_4
REMARK    3  A    between atoms: C_4  and  C_5
REMARK    4  A    between atoms: N_16  and  S_17
REMARK    5  A    between atoms: S_17  and  C_20
REMARK    6  A    between atoms: C_25  and  N_26
REMARK                            x       y       z     vdW  Elec       q    Type
REMARK                         _______ _______ _______ _____ _____    ______ ____
ROOT
ATOM      1  C   UNL     1       6.358   6.049  17.592  0.00  0.00    +0.000 C 
ATOM      2  C   UNL     1       6.707   4.724  16.910  0.00  0.00    +0.000 C 
ATOM      3  C   UNL     1       5.712   3.622  17.272  0.00  0.00    +0.000 C 
ATOM      4  N   UNL     1       5.665   3.411  18.746  0.00  0.00    +0.000 NA
ATOM      5  C   UNL     1       5.321   4.680  19.476  0.00  0.00    +0.000 C 
ATOM      6  C   UNL     1       6.273   5.822  19.106  0.00  0.00    +0.000 C 
ENDROOT
BRANCH   1   8
ATOM      7  O   UNL     1       4.831   6.741  15.837  0.00  0.00    +0.000 OA
ATOM      8  C   UNL     1       5.071   6.667  17.045  0.00  0.00    +0.000 C 
ATOM      9  N   UNL     1       4.200   7.130  17.998  0.00  0.00    +0.000 N 
ATOM     10  H   UNL     1       4.336   6.865  18.969  0.00  0.00    +0.000 HD
BRANCH   9  11
ATOM     11  C   UNL     1       2.946   7.758  17.652  0.00  0.00    +0.000 C 
BRANCH  11  12
ATOM     12  C   UNL     1       2.130   8.133  18.869  0.00  0.00    +0.000 A 
ATOM     13  C   UNL     1       2.086   7.233  19.952  0.00  0.00    +0.000 A 
ATOM     14  C   UNL     1       1.389   7.547  21.121  0.00  0.00    +0.000 A 
ATOM     15  C   UNL     1       0.723   8.765  21.221  0.00  0.00    +0.000 A 
ATOM     16 CL   UNL     1      -0.125   9.157  22.665  0.00  0.00    +0.000 Cl
ATOM     17  C   UNL     1       0.745   9.668  20.163  0.00  0.00    +0.000 A 
ATOM     18  C   UNL     1       1.447   9.355  18.993  0.00  0.00    +0.000 A 
ATOM     19 CL   UNL     1       1.443  10.527  17.721  0.00  0.00    +0.000 Cl
ENDBRANCH  11  12
ENDBRANCH   9  11
ENDBRANCH   1   8
BRANCH   4  20
ATOM     20  S   UNL     1       4.625   2.112  19.222  0.00  0.00    +0.000 S 
ATOM     21  O   UNL     1       4.257   1.338  18.058  0.00  0.00    +0.000 OA
ATOM     22  O   UNL     1       5.270   1.472  20.350  0.00  0.00    +0.000 OA
BRANCH  20  23
ATOM     23  C   UNL     1       3.128   2.852  19.829  0.00  0.00    +0.000 A 
ATOM     24  C   UNL     1       2.844   2.733  21.202  0.00  0.00    +0.000 A 
ATOM     25  C   UNL     1       1.652   3.236  21.736  0.00  0.00    +0.000 A 
ATOM     26  C   UNL     1       0.730   3.878  20.916  0.00  0.00    +0.000 A 
ATOM     27  C   UNL     1       0.974   3.964  19.544  0.00  0.00    +0.000 A 
ATOM     28  C   UNL     1       2.152   3.414  19.002  0.00  0.00    +0.000 A 
BRANCH  28  29
ATOM     29  N   UNL     1       2.249   3.409  17.557  0.00  0.00    +0.000 N 
ATOM     30  O   UNL     1       1.941   2.366  16.969  0.00  0.00    +0.000 OA
ATOM     31  O   UNL     1       2.743   4.414  17.025  0.00  0.00    +0.000 OA
ENDBRANCH  28  29
ENDBRANCH  20  23
ENDBRANCH   4  20
TORSDOF 6
ENDMDL
MODEL 5
REMARK VINA RESULT:      -7.5      7.436     10.975
REMARK  Name = 
REMARK  6 active torsions:
REMARK  status: ('A' for Active; 'I' for Inactive)
REMARK    1  A    between atoms: C_2  and  C_13
REMARK    2  A    between atoms: N_3  and  C_4
REMARK    3  A    between atoms: C_4  and  C_5
REMARK    4  A    between atoms: N_16  and  S_17
REMARK    5  A    between atoms: S_17  and  C_20
REMARK    6  A    between atoms: C_25  and  N_26
REMARK                            x       y       z     vdW  Elec       q    Type
REMARK                         _______ _______ _______ _____ _____    ______ ____
ROOT
ATOM      1  C   UNL     1      -0.304   9.939  20.754  0.00  0.00    +0.000 C 
ATOM      2  C   UNL     1      -0.346  10.286  19.264  0.00  0.00    +0.000 C 
ATOM      3  C   UNL     1       0.827  11.178  18.858  0.00  0.00    +0.000 C 
ATOM      4  N   UNL     1       0.836  12.440  19.649  0.00  0.00    +0.000 NA
ATOM      5  C   UNL     1       0.881  12.166  21.127  0.00  0.00    +0.000 C 
ATOM      6  C   UNL     1      -0.258  11.239  21.566  0.00  0.00    +0.000 C 
ENDROOT
BRANCH   1   8
ATOM      7  O   UNL     1       1.317   8.931  22.252  0.00  0.00    +0.000 OA
ATOM      8  C   UNL     1       0.862   9.017  21.108  0.00  0.00    +0.000 C 
ATOM      9  N   UNL     1       1.364   8.289  20.060  0.00  0.00    +0.000 N 
ATOM     10  H   UNL     1       0.837   8.232  19.195  0.00  0.00    +0.000 HD
BRANCH   9  11
ATOM     11  C   UNL     1       2.478   7.383  20.219  0.00  0.00    +0.000 C 
BRANCH  11  12
ATOM     12  C   UNL     1       2.145   5.973  19.783  0.00  0.00    +0.000 A 
ATOM     13  C   UNL     1       1.329   5.185  20.620  0.00  0.00    +0.000 A 
ATOM     14  C   UNL     1       0.949   3.894  20.246  0.00  0.00    +0.000 A 
ATOM     15  C   UNL     1       1.382   3.372  19.032  0.00  0.00    +0.000 A 
ATOM     16 CL   UNL     1       0.903   1.787  18.566  0.00  0.00    +0.000 Cl
ATOM     17  C   UNL     1       2.194   4.126  18.191  0.00  0.00    +0.000 A 
ATOM     18  C   UNL     1       2.573   5.422  18.564  0.00  0.00    +0.000 A 
ATOM     19 CL   UNL     1       3.574   6.308  17.467  0.00  0.00    +0.000 Cl
ENDBRANCH  11  12
ENDBRANCH   9  11
ENDBRANCH   1   8
BRANCH   4  20
ATOM     20  S   UNL     1       2.085  13.540  19.177  0.00  0.00    +0.000 S 
ATOM     21  O   UNL     1       3.009  13.720  20.275  0.00  0.00    +0.000 OA
ATOM     22  O   UNL     1       2.563  13.078  17.889  0.00  0.00    +0.000 OA
BRANCH  20  23
ATOM     23  C   UNL     1       1.307  15.114  18.910  0.00  0.00    +0.000 A 
ATOM     24  C   UNL     1      -0.090  15.193  19.066  0.00  0.00    +0.000 A 
ATOM     25  C   UNL     1      -0.776  16.385  18.809  0.00  0.00    +0.000 A 
ATOM     26  C   UNL     1      -0.083  17.523  18.407  0.00  0.00    +0.000 A 
ATOM     27  C   UNL     1       1.296  17.450  18.202  0.00  0.00    +0.000 A 
ATOM     28  C   UNL     1       1.977  16.235  18.415  0.00  0.00    +0.000 A 
BRANCH  28  29
ATOM     29  N   UNL     1       3.373  16.209  18.030  0.00  0.00    +0.000 N 
ATOM     30  O   UNL     1       3.642  15.803  16.893  0.00  0.00    +0.000 OA
ATOM     31  O   UNL     1       4.202  16.488  18.908  0.00  0.00    +0.000 OA
ENDBRANCH  28  29
ENDBRANCH  20  23
ENDBRANCH   4  20
TORSDOF 6
ENDMDL
MODEL 6
REMARK VINA RESULT:      -7.5      8.182     10.344
REMARK  Name = 
REMARK  6 active torsions:
REMARK  status: ('A' for Active; 'I' for Inactive)
REMARK    1  A    between atoms: C_2  and  C_13
REMARK    2  A    between atoms: N_3  and  C_4
REMARK    3  A    between atoms: C_4  and  C_5
REMARK    4  A    between atoms: N_16  and  S_17
REMARK    5  A    between atoms: S_17  and  C_20
REMARK    6  A    between atoms: C_25  and  N_26
REMARK                            x       y       z     vdW  Elec       q    Type
REMARK                         _______ _______ _______ _____ _____    ______ ____
ROOT
ATOM      1  C   UNL     1       0.975  10.223  18.390  0.00  0.00    +0.000 C 
ATOM      2  C   UNL     1       1.470  11.537  18.998  0.00  0.00    +0.000 C 
ATOM      3  C   UNL     1       0.852  11.792  20.372  0.00  0.00    +0.000 C 
ATOM      4  N   UNL     1      -0.634  11.826  20.290  0.00  0.00    +0.000 NA
ATOM      5  C   UNL     1      -1.185  10.556  19.703  0.00  0.00    +0.000 C 
ATOM      6  C   UNL     1      -0.558  10.243  18.340  0.00  0.00    +0.000 C 
ENDROOT
BRANCH   1   8
ATOM      7  O   UNL     1       1.345   8.854  20.358  0.00  0.00    +0.000 OA
ATOM      8  C   UNL     1       1.494   8.998  19.142  0.00  0.00    +0.000 C 
ATOM      9  N   UNL     1       2.135   8.068  18.364  0.00  0.00    +0.000 N 
ATOM     10  H   UNL     1       2.054   8.122  17.354  0.00  0.00    +0.000 HD
BRANCH   9  11
ATOM     11  C   UNL     1       2.701   6.861  18.921  0.00  0.00    +0.000 C 
BRANCH  11  12
ATOM     12  C   UNL     1       3.504   6.077  17.906  0.00  0.00    +0.000 A 
ATOM     13  C   UNL     1       4.494   6.752  17.165  0.00  0.00    +0.000 A 
ATOM     14  C   UNL     1       5.299   6.069  16.250  0.00  0.00    +0.000 A 
ATOM     15  C   UNL     1       5.122   4.703  16.061  0.00  0.00    +0.000 A 
ATOM     16 CL   UNL     1       6.121   3.859  14.943  0.00  0.00    +0.000 Cl
ATOM     17  C   UNL     1       4.146   4.013  16.775  0.00  0.00    +0.000 A 
ATOM     18  C   UNL     1       3.342   4.697  17.695  0.00  0.00    +0.000 A 
ATOM     19 CL   UNL     1       2.156   3.779  18.556  0.00  0.00    +0.000 Cl
ENDBRANCH  11  12
ENDBRANCH   9  11
ENDBRANCH   1   8
BRANCH   4  20
ATOM     20  S   UNL     1      -1.399  12.202  21.796  0.00  0.00    +0.000 S 
ATOM     21  O   UNL     1      -1.371  11.039  22.655  0.00  0.00    +0.000 OA
ATOM     22  O   UNL     1      -0.818  13.453  22.242  0.00  0.00    +0.000 OA
BRANCH  20  23
ATOM     23  C   UNL     1      -3.109  12.521  21.436  0.00  0.00    +0.000 A 
ATOM     24  C   UNL     1      -3.478  12.691  20.088  0.00  0.00    +0.000 A 
ATOM     25  C   UNL     1      -4.795  13.009  19.737  0.00  0.00    +0.000 A 
ATOM     26  C   UNL     1      -5.770  13.148  20.720  0.00  0.00    +0.000 A 
ATOM     27  C   UNL     1      -5.412  13.028  22.064  0.00  0.00    +0.000 A 
ATOM     28  C   UNL     1      -4.076  12.756  22.416  0.00  0.00    +0.000 A 
BRANCH  28  29
ATOM     29  N   UNL     1      -3.766  12.804  23.830  0.00  0.00    +0.000 N 
ATOM     30  O   UNL     1      -3.219  13.828  24.259  0.00  0.00    +0.000 OA
ATOM     31  O   UNL     1      -3.966  11.770  24.483  0.00  0.00    +0.000 OA
ENDBRANCH  28  29
ENDBRANCH  20  23
ENDBRANCH   4  20
TORSDOF 6
ENDMDL
MODEL 7
REMARK VINA RESULT:      -7.4      7.771     11.262
REMARK  Name = 
REMARK  6 active torsions:
REMARK  status: ('A' for Active; 'I' for Inactive)
REMARK    1  A    between atoms: C_2  and  C_13
REMARK    2  A    between atoms: N_3  and  C_4
REMARK    3  A    between atoms: C_4  and  C_5
REMARK    4  A    between atoms: N_16  and  S_17
REMARK    5  A    between atoms: S_17  and  C_20
REMARK    6  A    between atoms: C_25  and  N_26
REMARK                            x       y       z     vdW  Elec       q    Type
REMARK                         _______ _______ _______ _____ _____    ______ ____
ROOT
ATOM      1  C   UNL     1      -0.452  10.413  20.279  0.00  0.00    +0.000 C 
ATOM      2  C   UNL     1      -0.034  10.803  18.859  0.00  0.00    +0.000 C 
ATOM      3  C   UNL     1       1.135  11.788  18.864  0.00  0.00    +0.000 C 
ATOM      4  N   UNL     1       0.788  13.022  19.622  0.00  0.00    +0.000 NA
ATOM      5  C   UNL     1       0.371  12.706  21.032  0.00  0.00    +0.000 C 
ATOM      6  C   UNL     1      -0.772  11.687  21.070  0.00  0.00    +0.000 C 
ENDROOT
BRANCH   1   8
ATOM      7  O   UNL     1       1.082   9.878  22.081  0.00  0.00    +0.000 OA
ATOM      8  C   UNL     1       0.604   9.566  20.988  0.00  0.00    +0.000 C 
ATOM      9  N   UNL     1       0.979   8.429  20.319  0.00  0.00    +0.000 N 
ATOM     10  H   UNL     1       0.421   8.104  19.536  0.00  0.00    +0.000 HD
BRANCH   9  11
ATOM     11  C   UNL     1       1.979   7.525  20.841  0.00  0.00    +0.000 C 
BRANCH  11  12
ATOM     12  C   UNL     1       2.073   6.243  20.044  0.00  0.00    +0.000 A 
ATOM     13  C   UNL     1       1.638   5.044  20.644  0.00  0.00    +0.000 A 
ATOM     14  C   UNL     1       1.657   3.839  19.939  0.00  0.00    +0.000 A 
ATOM     15  C   UNL     1       2.114   3.814  18.626  0.00  0.00    +0.000 A 
ATOM     16 CL   UNL     1       2.125   2.332  17.754  0.00  0.00    +0.000 Cl
ATOM     17  C   UNL     1       2.557   4.982  18.013  0.00  0.00    +0.000 A 
ATOM     18  C   UNL     1       2.535   6.192  18.718  0.00  0.00    +0.000 A 
ATOM     19 CL   UNL     1       3.089   7.607  17.893  0.00  0.00    +0.000 Cl
ENDBRANCH  11  12
ENDBRANCH   9  11
ENDBRANCH   1   8
BRANCH   4  20
ATOM     20  S   UNL     1       2.034  14.222  19.591  0.00  0.00    +0.000 S 
ATOM     21  O   UNL     1       2.572  14.393  20.923  0.00  0.00    +0.000 OA
ATOM     22  O   UNL     1       2.907  13.868  18.491  0.00  0.00    +0.000 OA
BRANCH  20  23
ATOM     23  C   UNL     1       1.253  15.760  19.163  0.00  0.00    +0.000 A 
ATOM     24  C   UNL     1      -0.100  15.725  18.777  0.00  0.00    +0.000 A 
ATOM     25  C   UNL     1      -0.760  16.889  18.365  0.00  0.00    +0.000 A 
ATOM     26  C   UNL     1      -0.089  18.108  18.346  0.00  0.00    +0.000 A 
ATOM     27  C   UNL     1       1.265  18.152  18.681  0.00  0.00    +0.000 A 
ATOM     28  C   UNL     1       1.938  16.971  19.049  0.00  0.00    +0.000 A 
BRANCH  28  29
ATOM     29  N   UNL     1       3.371  17.082  19.228  0.00  0.00    +0.000 N 
ATOM     30  O   UNL     1       3.784  17.354  20.362  0.00  0.00    +0.000 OA
ATOM     31  O   UNL     1       4.071  17.011  18.208  0.00  0.00    +0.000 OA
ENDBRANCH  28  29
ENDBRANCH  20  23
ENDBRANCH   4  20
TORSDOF 6
ENDMDL
MODEL 8
REMARK VINA RESULT:      -7.2      7.781     10.707
REMARK  Name = 
REMARK  6 active torsions:
REMARK  status: ('A' for Active; 'I' for Inactive)
REMARK    1  A    between atoms: C_2  and  C_13
REMARK    2  A    between atoms: N_3  and  C_4
REMARK    3  A    between atoms: C_4  and  C_5
REMARK    4  A    between atoms: N_16  and  S_17
REMARK    5  A    between atoms: S_17  and  C_20
REMARK    6  A    between atoms: C_25  and  N_26
REMARK                            x       y       z     vdW  Elec       q    Type
REMARK                         _______ _______ _______ _____ _____    ______ ____
ROOT
ATOM      1  C   UNL     1       0.094   9.759  18.930  0.00  0.00    +0.000 C 
ATOM      2  C   UNL     1      -0.534  11.067  18.443  0.00  0.00    +0.000 C 
ATOM      3  C   UNL     1       0.291  12.283  18.867  0.00  0.00    +0.000 C 
ATOM      4  N   UNL     1       0.436  12.337  20.348  0.00  0.00    +0.000 NA
ATOM      5  C   UNL     1       1.053  11.078  20.890  0.00  0.00    +0.000 C 
ATOM      6  C   UNL     1       0.277   9.832  20.451  0.00  0.00    +0.000 C 
ENDROOT
BRANCH   1   8
ATOM      7  O   UNL     1       1.956  10.235  17.451  0.00  0.00    +0.000 OA
ATOM      8  C   UNL     1       1.410   9.443  18.223  0.00  0.00    +0.000 C 
ATOM      9  N   UNL     1       1.942   8.212  18.511  0.00  0.00    +0.000 N 
ATOM     10  H   UNL     1       1.579   7.684  19.297  0.00  0.00    +0.000 HD
BRANCH   9  11
ATOM     11  C   UNL     1       3.173   7.749  17.913  0.00  0.00    +0.000 C 
BRANCH  11  12
ATOM     12  C   UNL     1       3.298   6.241  17.938  0.00  0.00    +0.000 A 
ATOM     13  C   UNL     1       2.158   5.477  18.259  0.00  0.00    +0.000 A 
ATOM     14  C   UNL     1       2.201   4.081  18.250  0.00  0.00    +0.000 A 
ATOM     15  C   UNL     1       3.386   3.430  17.923  0.00  0.00    +0.000 A 
ATOM     16 CL   UNL     1       3.436   1.711  17.900  0.00  0.00    +0.000 Cl
ATOM     17  C   UNL     1       4.528   4.160  17.610  0.00  0.00    +0.000 A 
ATOM     18  C   UNL     1       4.483   5.560  17.615  0.00  0.00    +0.000 A 
ATOM     19 CL   UNL     1       5.935   6.406  17.206  0.00  0.00    +0.000 Cl
ENDBRANCH  11  12
ENDBRANCH   9  11
ENDBRANCH   1   8
BRANCH   4  20
ATOM     20  S   UNL     1       1.283  13.740  20.905  0.00  0.00    +0.000 S 
ATOM     21  O   UNL     1       0.842  14.068  22.243  0.00  0.00    +0.000 OA
ATOM     22  O   UNL     1       2.686  13.497  20.637  0.00  0.00    +0.000 OA
BRANCH  20  23
ATOM     23  C   UNL     1       0.778  15.089  19.864  0.00  0.00    +0.000 A 
ATOM     24  C   UNL     1       1.768  15.738  19.103  0.00  0.00    +0.000 A 
ATOM     25  C   UNL     1       1.453  16.848  18.311  0.00  0.00    +0.000 A 
ATOM     26  C   UNL     1       0.145  17.321  18.252  0.00  0.00    +0.000 A 
ATOM     27  C   UNL     1      -0.839  16.717  19.037  0.00  0.00    +0.000 A 
ATOM     28  C   UNL     1      -0.509  15.631  19.869  0.00  0.00    +0.000 A 
BRANCH  28  29
ATOM     29  N   UNL     1      -1.552  15.169  20.761  0.00  0.00    +0.000 N 
ATOM     30  O   UNL     1      -1.649  15.726  21.861  0.00  0.00    +0.000 OA
ATOM     31  O   UNL     1      -2.196  14.173  20.402  0.00  0.00    +0.000 OA
ENDBRANCH  28  29
ENDBRANCH  20  23
ENDBRANCH   4  20
TORSDOF 6
ENDMDL
MODEL 9
REMARK VINA RESULT:      -7.2      1.776      2.718
REMARK  Name = 
REMARK  6 active torsions:
REMARK  status: ('A' for Active; 'I' for Inactive)
REMARK    1  A    between atoms: C_2  and  C_13
REMARK    2  A    between atoms: N_3  and  C_4
REMARK    3  A    between atoms: C_4  and  C_5
REMARK    4  A    between atoms: N_16  and  S_17
REMARK    5  A    between atoms: S_17  and  C_20
REMARK    6  A    between atoms: C_25  and  N_26
REMARK                            x       y       z     vdW  Elec       q    Type
REMARK                         _______ _______ _______ _____ _____    ______ ____
ROOT
ATOM      1  C   UNL     1       7.104   6.764  16.537  0.00  0.00    +0.000 C 
ATOM      2  C   UNL     1       5.587   6.959  16.555  0.00  0.00    +0.000 C 
ATOM      3  C   UNL     1       4.923   6.128  17.652  0.00  0.00    +0.000 C 
ATOM      4  N   UNL     1       5.223   4.679  17.479  0.00  0.00    +0.000 NA
ATOM      5  C   UNL     1       6.704   4.420  17.457  0.00  0.00    +0.000 C 
ATOM      6  C   UNL     1       7.412   5.268  16.396  0.00  0.00    +0.000 C 
ENDROOT
BRANCH   1   8
ATOM      7  O   UNL     1       8.038   6.697  18.775  0.00  0.00    +0.000 OA
ATOM      8  C   UNL     1       7.786   7.362  17.767  0.00  0.00    +0.000 C 
ATOM      9  N   UNL     1       8.099   8.693  17.667  0.00  0.00    +0.000 N 
ATOM     10  H   UNL     1       8.066   9.146  16.759  0.00  0.00    +0.000 HD
BRANCH   9  11
ATOM     11  C   UNL     1       8.730   9.417  18.746  0.00  0.00    +0.000 C 
BRANCH  11  12
ATOM     12  C   UNL     1       8.759  10.909  18.504  0.00  0.00    +0.000 A 
ATOM     13  C   UNL     1       7.936  11.443  17.491  0.00  0.00    +0.000 A 
ATOM     14  C   UNL     1       7.885  12.819  17.256  0.00  0.00    +0.000 A 
ATOM     15  C   UNL     1       8.658  13.680  18.027  0.00  0.00    +0.000 A 
ATOM     16 CL   UNL     1       8.586  15.375  17.746  0.00  0.00    +0.000 Cl
ATOM     17  C   UNL     1       9.485  13.179  19.029  0.00  0.00    +0.000 A 
ATOM     18  C   UNL     1       9.533  11.799  19.267  0.00  0.00    +0.000 A 
ATOM     19 CL   UNL     1      10.572  11.244  20.533  0.00  0.00    +0.000 Cl
ENDBRANCH  11  12
ENDBRANCH   9  11
ENDBRANCH   1   8
BRANCH   4  20
ATOM     20  S   UNL     1       4.426   3.668  18.635  0.00  0.00    +0.000 S 
ATOM     21  O   UNL     1       3.721   2.611  17.946  0.00  0.00    +0.000 OA
ATOM     22  O   UNL     1       5.418   3.348  19.642  0.00  0.00    +0.000 OA
BRANCH  20  23
ATOM     23  C   UNL     1       3.188   4.669  19.423  0.00  0.00    +0.000 A 
ATOM     24  C   UNL     1       3.222   6.058  19.197  0.00  0.00    +0.000 A 
ATOM     25  C   UNL     1       2.318   6.913  19.837  0.00  0.00    +0.000 A 
ATOM     26  C   UNL     1       1.355   6.399  20.699  0.00  0.00    +0.000 A 
ATOM     27  C   UNL     1       1.336   5.030  20.971  0.00  0.00    +0.000 A 
ATOM     28  C   UNL     1       2.278   4.178  20.363  0.00  0.00    +0.000 A 
BRANCH  28  29
ATOM     29  N   UNL     1       2.286   2.804  20.820  0.00  0.00    +0.000 N 
ATOM     30  O   UNL     1       1.589   1.993  20.198  0.00  0.00    +0.000 OA
ATOM     31  O   UNL     1       2.901   2.566  21.869  0.00  0.00    +0.000 OA
ENDBRANCH  28  29
ENDBRANCH  20  23
ENDBRANCH   4  20
TORSDOF 6
ENDMDL
