MODEL 1
REMARK VINA RESULT:      -8.8      0.000      0.000
REMARK  Name = 
REMARK  3 active torsions:
REMARK  status: ('A' for Active; 'I' for Inactive)
REMARK    1  A    between atoms: C_2  and  C_3
REMARK    2  A    between atoms: N_20  and  C_21
REMARK    3  A    between atoms: C_21  and  C_22
REMARK                            x       y       z     vdW  Elec       q    Type
REMARK                         _______ _______ _______ _____ _____    ______ ____
ROOT
ATOM      1  O   UNL     1      -0.474   8.831  21.897  0.00  0.00    +0.000 OA
ATOM      2  C   UNL     1       0.241   9.245  20.983  0.00  0.00    +0.000 C 
ATOM      3  N   UNL     1       0.192  10.581  20.595  0.00  0.00    +0.000 N 
ATOM      4  C   UNL     1       1.165  11.255  19.722  0.00  0.00    +0.000 C 
ATOM      5  C   UNL     1       0.450  12.259  18.810  0.00  0.00    +0.000 C 
ATOM      6  N   UNL     1      -0.330  13.264  19.568  0.00  0.00    +0.000 NA
ATOM      7  C   UNL     1      -1.319  12.549  20.399  0.00  0.00    +0.000 C 
ATOM      8  C   UNL     1      -0.707  11.482  21.325  0.00  0.00    +0.000 C 
ENDROOT
BRANCH   2   9
ATOM      9  C   UNL     1       1.182   8.358  20.334  0.00  0.00    +0.000 A 
ATOM     10  C   UNL     1       1.643   7.128  20.753  0.00  0.00    +0.000 A 
ATOM     11  C   UNL     1       2.537   6.674  19.762  0.00  0.00    +0.000 A 
ATOM     12  C   UNL     1       3.318   5.537  19.568  0.00  0.00    +0.000 A 
ATOM     13  C   UNL     1       4.044   5.456  18.378  0.00  0.00    +0.000 A 
ATOM     14  C   UNL     1       4.761   4.288  18.089  0.00  0.00    +0.000 A 
ATOM     15  C   UNL     1       5.468   4.180  16.901  0.00  0.00    +0.000 A 
ATOM     16  C   UNL     1       5.490   5.255  16.021  0.00  0.00    +0.000 A 
ATOM     17 CL   UNL     1       6.373   5.122  14.550  0.00  0.00    +0.000 Cl
ATOM     18  C   UNL     1       4.787   6.427  16.310  0.00  0.00    +0.000 A 
ATOM     19  C   UNL     1       4.029   6.543  17.468  0.00  0.00    +0.000 A 
ATOM     20  N   UNL     1       3.310   7.659  17.657  0.00  0.00    +0.000 NA
ATOM     21  C   UNL     1       2.570   7.654  18.778  0.00  0.00    +0.000 A 
ATOM     22  O   UNL     1       1.707   8.649  19.105  0.00  0.00    +0.000 OA
ENDBRANCH   2   9
BRANCH   6  23
ATOM     23  C   UNL     1       0.532  14.144  20.386  0.00  0.00    +0.000 C 
BRANCH  23  24
ATOM     24  C   UNL     1       0.877  15.417  19.641  0.00  0.00    +0.000 A 
ATOM     25  C   UNL     1       2.218  15.803  19.415  0.00  0.00    +0.000 A 
ATOM     26  C   UNL     1       2.518  16.866  18.556  0.00  0.00    +0.000 A 
ATOM     27  C   UNL     1       1.462  17.491  17.930  0.00  0.00    +0.000 A 
ATOM     28  C   UNL     1       0.152  17.142  18.182  0.00  0.00    +0.000 A 
ATOM     29  C   UNL     1      -0.175  16.133  19.047  0.00  0.00    +0.000 A 
ATOM     30  O   UNL     1      -0.730  17.841  17.419  0.00  0.00    +0.000 OA
ATOM     31  C   UNL     1       0.186  18.461  16.497  0.00  0.00    +0.000 C 
ATOM     32  O   UNL     1       1.551  18.452  16.970  0.00  0.00    +0.000 OA
ENDBRANCH  23  24
ENDBRANCH   6  23
TORSDOF 3
ENDMDL
MODEL 2
REMARK VINA RESULT:      -8.7      3.883      5.987
REMARK  Name = 
REMARK  3 active torsions:
REMARK  status: ('A' for Active; 'I' for Inactive)
REMARK    1  A    between atoms: C_2  and  C_3
REMARK    2  A    between atoms: N_20  and  C_21
REMARK    3  A    between atoms: C_21  and  C_22
REMARK                            x       y       z     vdW  Elec       q    Type
REMARK                         _______ _______ _______ _____ _____    ______ ____
ROOT
ATOM      1  O   UNL     1       1.850  12.535  18.277  0.00  0.00    +0.000 OA
ATOM      2  C   UNL     1       1.103  11.731  18.837  0.00  0.00    +0.000 C 
ATOM      3  N   UNL     1      -0.086  12.157  19.423  0.00  0.00    +0.000 N 
ATOM      4  C   UNL     1      -1.178  11.283  19.877  0.00  0.00    +0.000 C 
ATOM      5  C   UNL     1      -1.800  11.839  21.163  0.00  0.00    +0.000 C 
ATOM      6  N   UNL     1      -2.295  13.226  21.005  0.00  0.00    +0.000 NA
ATOM      7  C   UNL     1      -1.162  14.075  20.587  0.00  0.00    +0.000 C 
ATOM      8  C   UNL     1      -0.436  13.579  19.324  0.00  0.00    +0.000 C 
ENDROOT
BRANCH   2   9
ATOM      9  C   UNL     1       1.427  10.321  18.849  0.00  0.00    +0.000 A 
ATOM     10  C   UNL     1       1.928   9.538  17.829  0.00  0.00    +0.000 A 
ATOM     11  C   UNL     1       2.072   8.237  18.354  0.00  0.00    +0.000 A 
ATOM     12  C   UNL     1       2.523   7.011  17.869  0.00  0.00    +0.000 A 
ATOM     13  C   UNL     1       2.557   5.943  18.769  0.00  0.00    +0.000 A 
ATOM     14  C   UNL     1       3.098   4.719  18.360  0.00  0.00    +0.000 A 
ATOM     15  C   UNL     1       3.162   3.653  19.246  0.00  0.00    +0.000 A 
ATOM     16  C   UNL     1       2.648   3.803  20.528  0.00  0.00    +0.000 A 
ATOM     17 CL   UNL     1       2.723   2.479  21.625  0.00  0.00    +0.000 Cl
ATOM     18  C   UNL     1       2.096   5.018  20.937  0.00  0.00    +0.000 A 
ATOM     19  C   UNL     1       2.065   6.116  20.087  0.00  0.00    +0.000 A 
ATOM     20  N   UNL     1       1.596   7.281  20.558  0.00  0.00    +0.000 NA
ATOM     21  C   UNL     1       1.657   8.295  19.678  0.00  0.00    +0.000 A 
ATOM     22  O   UNL     1       1.315   9.571  19.988  0.00  0.00    +0.000 OA
ENDBRANCH   2   9
BRANCH   6  23
ATOM     23  C   UNL     1      -3.420  13.315  20.049  0.00  0.00    +0.000 C 
BRANCH  23  24
ATOM     24  C   UNL     1      -4.753  13.207  20.762  0.00  0.00    +0.000 A 
ATOM     25  C   UNL     1      -5.717  12.243  20.390  0.00  0.00    +0.000 A 
ATOM     26  C   UNL     1      -6.848  12.023  21.183  0.00  0.00    +0.000 A 
ATOM     27  C   UNL     1      -6.962  12.762  22.340  0.00  0.00    +0.000 A 
ATOM     28  C   UNL     1      -6.044  13.731  22.683  0.00  0.00    +0.000 A 
ATOM     29  C   UNL     1      -4.947  13.997  21.907  0.00  0.00    +0.000 A 
ATOM     30  O   UNL     1      -6.310  14.300  23.888  0.00  0.00    +0.000 OA
ATOM     31  C   UNL     1      -7.330  13.400  24.360  0.00  0.00    +0.000 C 
ATOM     32  O   UNL     1      -7.913  12.608  23.302  0.00  0.00    +0.000 OA
ENDBRANCH  23  24
ENDBRANCH   6  23
TORSDOF 3
ENDMDL
MODEL 3
REMARK VINA RESULT:      -8.5      3.677      5.887
REMARK  Name = 
REMARK  3 active torsions:
REMARK  status: ('A' for Active; 'I' for Inactive)
REMARK    1  A    between atoms: C_2  and  C_3
REMARK    2  A    between atoms: N_20  and  C_21
REMARK    3  A    between atoms: C_21  and  C_22
REMARK                            x       y       z     vdW  Elec       q    Type
REMARK                         _______ _______ _______ _____ _____    ______ ____
ROOT
ATOM      1  O   UNL     1       2.012  12.513  18.124  0.00  0.00    +0.000 OA
ATOM      2  C   UNL     1       1.373  11.787  18.887  0.00  0.00    +0.000 C 
ATOM      3  N   UNL     1       0.404  12.324  19.731  0.00  0.00    +0.000 N 
ATOM      4  C   UNL     1      -0.600  11.554  20.481  0.00  0.00    +0.000 C 
ATOM      5  C   UNL     1      -0.836  12.190  21.855  0.00  0.00    +0.000 C 
ATOM      6  N   UNL     1      -1.251  13.609  21.765  0.00  0.00    +0.000 NA
ATOM      7  C   UNL     1      -0.200  14.352  21.042  0.00  0.00    +0.000 C 
ATOM      8  C   UNL     1       0.147  13.767  19.661  0.00  0.00    +0.000 C 
ENDROOT
BRANCH   2   9
ATOM      9  C   UNL     1       1.584  10.356  18.879  0.00  0.00    +0.000 A 
ATOM     10  C   UNL     1       1.891   9.532  17.817  0.00  0.00    +0.000 A 
ATOM     11  C   UNL     1       1.997   8.226  18.339  0.00  0.00    +0.000 A 
ATOM     12  C   UNL     1       2.286   6.965  17.821  0.00  0.00    +0.000 A 
ATOM     13  C   UNL     1       2.348   5.902  18.724  0.00  0.00    +0.000 A 
ATOM     14  C   UNL     1       2.736   4.636  18.270  0.00  0.00    +0.000 A 
ATOM     15  C   UNL     1       2.826   3.574  19.157  0.00  0.00    +0.000 A 
ATOM     16  C   UNL     1       2.489   3.770  20.490  0.00  0.00    +0.000 A 
ATOM     17 CL   UNL     1       2.595   2.449  21.589  0.00  0.00    +0.000 Cl
ATOM     18  C   UNL     1       2.088   5.027  20.947  0.00  0.00    +0.000 A 
ATOM     19  C   UNL     1       2.038   6.120  20.091  0.00  0.00    +0.000 A 
ATOM     20  N   UNL     1       1.724   7.321  20.598  0.00  0.00    +0.000 NA
ATOM     21  C   UNL     1       1.755   8.322  19.703  0.00  0.00    +0.000 A 
ATOM     22  O   UNL     1       1.556   9.623  20.034  0.00  0.00    +0.000 OA
ENDBRANCH   2   9
BRANCH   6  23
ATOM     23  C   UNL     1      -2.571  13.768  21.116  0.00  0.00    +0.000 C 
BRANCH  23  24
ATOM     24  C   UNL     1      -3.690  13.343  22.045  0.00  0.00    +0.000 A 
ATOM     25  C   UNL     1      -3.724  13.747  23.398  0.00  0.00    +0.000 A 
ATOM     26  C   UNL     1      -4.859  13.518  24.182  0.00  0.00    +0.000 A 
ATOM     27  C   UNL     1      -5.937  12.912  23.573  0.00  0.00    +0.000 A 
ATOM     28  C   UNL     1      -5.890  12.480  22.265  0.00  0.00    +0.000 A 
ATOM     29  C   UNL     1      -4.779  12.654  21.484  0.00  0.00    +0.000 A 
ATOM     30  O   UNL     1      -7.074  11.963  21.843  0.00  0.00    +0.000 OA
ATOM     31  C   UNL     1      -7.917  12.363  22.940  0.00  0.00    +0.000 C 
ATOM     32  O   UNL     1      -7.167  12.719  24.123  0.00  0.00    +0.000 OA
ENDBRANCH  23  24
ENDBRANCH   6  23
TORSDOF 3
ENDMDL
MODEL 4
REMARK VINA RESULT:      -8.4      3.333      5.578
REMARK  Name = 
REMARK  3 active torsions:
REMARK  status: ('A' for Active; 'I' for Inactive)
REMARK    1  A    between atoms: C_2  and  C_3
REMARK    2  A    between atoms: N_20  and  C_21
REMARK    3  A    between atoms: C_21  and  C_22
REMARK                            x       y       z     vdW  Elec       q    Type
REMARK                         _______ _______ _______ _____ _____    ______ ____
ROOT
ATOM      1  O   UNL     1       2.269  11.184  17.850  0.00  0.00    +0.000 OA
ATOM      2  C   UNL     1       1.506  10.594  18.616  0.00  0.00    +0.000 C 
ATOM      3  N   UNL     1       0.372  11.229  19.116  0.00  0.00    +0.000 N 
ATOM      4  C   UNL     1      -0.745  10.568  19.808  0.00  0.00    +0.000 C 
ATOM      5  C   UNL     1      -1.273  11.463  20.934  0.00  0.00    +0.000 C 
ATOM      6  N   UNL     1      -1.697  12.798  20.452  0.00  0.00    +0.000 NA
ATOM      7  C   UNL     1      -0.539  13.442  19.800  0.00  0.00    +0.000 C 
ATOM      8  C   UNL     1       0.098  12.603  18.678  0.00  0.00    +0.000 C 
ENDROOT
BRANCH   2   9
ATOM      9  C   UNL     1       1.750   9.212  18.968  0.00  0.00    +0.000 A 
ATOM     10  C   UNL     1       1.514   8.567  20.163  0.00  0.00    +0.000 A 
ATOM     11  C   UNL     1       1.920   7.228  19.986  0.00  0.00    +0.000 A 
ATOM     12  C   UNL     1       1.940   6.080  20.774  0.00  0.00    +0.000 A 
ATOM     13  C   UNL     1       2.385   4.900  20.172  0.00  0.00    +0.000 A 
ATOM     14  C   UNL     1       2.327   3.699  20.889  0.00  0.00    +0.000 A 
ATOM     15  C   UNL     1       2.743   2.514  20.301  0.00  0.00    +0.000 A 
ATOM     16  C   UNL     1       3.254   2.539  19.009  0.00  0.00    +0.000 A 
ATOM     17 CL   UNL     1       3.776   1.069  18.281  0.00  0.00    +0.000 Cl
ATOM     18  C   UNL     1       3.327   3.736  18.294  0.00  0.00    +0.000 A 
ATOM     19  C   UNL     1       2.870   4.928  18.840  0.00  0.00    +0.000 A 
ATOM     20  N   UNL     1       2.889   6.033  18.080  0.00  0.00    +0.000 NA
ATOM     21  C   UNL     1       2.378   7.122  18.679  0.00  0.00    +0.000 A 
ATOM     22  O   UNL     1       2.226   8.315  18.050  0.00  0.00    +0.000 OA
ENDBRANCH   2   9
BRANCH   6  23
ATOM     23  C   UNL     1      -2.859  12.723  19.540  0.00  0.00    +0.000 C 
BRANCH  23  24
ATOM     24  C   UNL     1      -4.161  12.737  20.314  0.00  0.00    +0.000 A 
ATOM     25  C   UNL     1      -5.332  12.129  19.807  0.00  0.00    +0.000 A 
ATOM     26  C   UNL     1      -6.462  11.974  20.615  0.00  0.00    +0.000 A 
ATOM     27  C   UNL     1      -6.373  12.411  21.919  0.00  0.00    +0.000 A 
ATOM     28  C   UNL     1      -5.246  13.042  22.403  0.00  0.00    +0.000 A 
ATOM     29  C   UNL     1      -4.138  13.244  21.624  0.00  0.00    +0.000 A 
ATOM     30  O   UNL     1      -5.343  13.341  23.725  0.00  0.00    +0.000 OA
ATOM     31  C   UNL     1      -6.531  12.597  24.055  0.00  0.00    +0.000 C 
ATOM     32  O   UNL     1      -7.309  12.237  22.892  0.00  0.00    +0.000 OA
ENDBRANCH  23  24
ENDBRANCH   6  23
TORSDOF 3
ENDMDL
MODEL 5
REMARK VINA RESULT:      -8.3      2.924      3.917
REMARK  Name = 
REMARK  3 active torsions:
REMARK  status: ('A' for Active; 'I' for Inactive)
REMARK    1  A    between atoms: C_2  and  C_3
REMARK    2  A    between atoms: N_20  and  C_21
REMARK    3  A    between atoms: C_21  and  C_22
REMARK                            x       y       z     vdW  Elec       q    Type
REMARK                         _______ _______ _______ _____ _____    ______ ____
ROOT
ATOM      1  O   UNL     1      -1.077  11.143  19.388  0.00  0.00    +0.000 OA
ATOM      2  C   UNL     1       0.137  11.223  19.190  0.00  0.00    +0.000 C 
ATOM      3  N   UNL     1       0.786  12.453  19.253  0.00  0.00    +0.000 N 
ATOM      4  C   UNL     1       2.242  12.651  19.305  0.00  0.00    +0.000 C 
ATOM      5  C   UNL     1       2.637  13.890  18.494  0.00  0.00    +0.000 C 
ATOM      6  N   UNL     1       1.943  15.117  18.951  0.00  0.00    +0.000 NA
ATOM      7  C   UNL     1       0.488  14.890  18.846  0.00  0.00    +0.000 C 
ATOM      8  C   UNL     1      -0.009  13.639  19.592  0.00  0.00    +0.000 C 
ENDROOT
BRANCH   2   9
ATOM      9  C   UNL     1       0.915  10.029  18.942  0.00  0.00    +0.000 A 
ATOM     10  C   UNL     1       1.697   9.716  17.850  0.00  0.00    +0.000 A 
ATOM     11  C   UNL     1       2.246   8.441  18.099  0.00  0.00    +0.000 A 
ATOM     12  C   UNL     1       3.104   7.576  17.425  0.00  0.00    +0.000 A 
ATOM     13  C   UNL     1       3.453   6.390  18.073  0.00  0.00    +0.000 A 
ATOM     14  C   UNL     1       4.394   5.536  17.484  0.00  0.00    +0.000 A 
ATOM     15  C   UNL     1       4.771   4.365  18.124  0.00  0.00    +0.000 A 
ATOM     16  C   UNL     1       4.177   4.029  19.335  0.00  0.00    +0.000 A 
ATOM     17 CL   UNL     1       4.641   2.573  20.125  0.00  0.00    +0.000 Cl
ATOM     18  C   UNL     1       3.229   4.870  19.921  0.00  0.00    +0.000 A 
ATOM     19  C   UNL     1       2.871   6.073  19.327  0.00  0.00    +0.000 A 
ATOM     20  N   UNL     1       2.016   6.880  19.972  0.00  0.00    +0.000 NA
ATOM     21  C   UNL     1       1.774   8.043  19.343  0.00  0.00    +0.000 A 
ATOM     22  O   UNL     1       1.008   9.030  19.872  0.00  0.00    +0.000 OA
ENDBRANCH   2   9
BRANCH   6  23
ATOM     23  C   UNL     1       2.333  15.504  20.324  0.00  0.00    +0.000 C 
BRANCH  23  24
ATOM     24  C   UNL     1       3.818  15.793  20.409  0.00  0.00    +0.000 A 
ATOM     25  C   UNL     1       4.695  14.959  21.140  0.00  0.00    +0.000 A 
ATOM     26  C   UNL     1       6.080  15.121  21.042  0.00  0.00    +0.000 A 
ATOM     27  C   UNL     1       6.543  16.101  20.191  0.00  0.00    +0.000 A 
ATOM     28  C   UNL     1       5.690  16.942  19.509  0.00  0.00    +0.000 A 
ATOM     29  C   UNL     1       4.329  16.834  19.616  0.00  0.00    +0.000 A 
ATOM     30  O   UNL     1       6.348  17.796  18.682  0.00  0.00    +0.000 OA
ATOM     31  C   UNL     1       7.664  17.216  18.733  0.00  0.00    +0.000 C 
ATOM     32  O   UNL     1       7.844  16.331  19.861  0.00  0.00    +0.000 OA
ENDBRANCH  23  24
ENDBRANCH   6  23
TORSDOF 3
ENDMDL
MODEL 6
REMARK VINA RESULT:      -8.3      1.266      1.929
REMARK  Name = 
REMARK  3 active torsions:
REMARK  status: ('A' for Active; 'I' for Inactive)
REMARK    1  A    between atoms: C_2  and  C_3
REMARK    2  A    between atoms: N_20  and  C_21
REMARK    3  A    between atoms: C_21  and  C_22
REMARK                            x       y       z     vdW  Elec       q    Type
REMARK                         _______ _______ _______ _____ _____    ______ ____
ROOT
ATOM      1  O   UNL     1      -0.575   8.741  22.376  0.00  0.00    +0.000 OA
ATOM      2  C   UNL     1       0.080   9.158  21.419  0.00  0.00    +0.000 C 
ATOM      3  N   UNL     1      -0.002  10.494  21.032  0.00  0.00    +0.000 N 
ATOM      4  C   UNL     1       0.910  11.172  20.100  0.00  0.00    +0.000 C 
ATOM      5  C   UNL     1       0.134  12.169  19.232  0.00  0.00    +0.000 C 
ATOM      6  N   UNL     1      -0.605  13.171  20.034  0.00  0.00    +0.000 NA
ATOM      7  C   UNL     1      -1.536  12.451  20.927  0.00  0.00    +0.000 C 
ATOM      8  C   UNL     1      -0.861  11.390  21.815  0.00  0.00    +0.000 C 
ENDROOT
BRANCH   2   9
ATOM      9  C   UNL     1       0.985   8.276  20.715  0.00  0.00    +0.000 A 
ATOM     10  C   UNL     1       1.379   6.997  21.045  0.00  0.00    +0.000 A 
ATOM     11  C   UNL     1       2.264   6.574  20.031  0.00  0.00    +0.000 A 
ATOM     12  C   UNL     1       2.991   5.417  19.761  0.00  0.00    +0.000 A 
ATOM     13  C   UNL     1       3.729   5.389  18.575  0.00  0.00    +0.000 A 
ATOM     14  C   UNL     1       4.392   4.212  18.207  0.00  0.00    +0.000 A 
ATOM     15  C   UNL     1       5.110   4.158  17.021  0.00  0.00    +0.000 A 
ATOM     16  C   UNL     1       5.196   5.293  16.225  0.00  0.00    +0.000 A 
ATOM     17 CL   UNL     1       6.093   5.226  14.758  0.00  0.00    +0.000 Cl
ATOM     18  C   UNL     1       4.548   6.473  16.594  0.00  0.00    +0.000 A 
ATOM     19  C   UNL     1       3.781   6.541  17.750  0.00  0.00    +0.000 A 
ATOM     20  N   UNL     1       3.114   7.674  18.015  0.00  0.00    +0.000 NA
ATOM     21  C   UNL     1       2.359   7.622  19.125  0.00  0.00    +0.000 A 
ATOM     22  O   UNL     1       1.542   8.632  19.517  0.00  0.00    +0.000 OA
ENDBRANCH   2   9
BRANCH   6  23
ATOM     23  C   UNL     1       0.300  14.058  20.797  0.00  0.00    +0.000 C 
BRANCH  23  24
ATOM     24  C   UNL     1       1.224  14.821  19.871  0.00  0.00    +0.000 A 
ATOM     25  C   UNL     1       0.738  15.818  18.994  0.00  0.00    +0.000 A 
ATOM     26  C   UNL     1       1.623  16.648  18.299  0.00  0.00    +0.000 A 
ATOM     27  C   UNL     1       2.970  16.468  18.526  0.00  0.00    +0.000 A 
ATOM     28  C   UNL     1       3.446  15.470  19.349  0.00  0.00    +0.000 A 
ATOM     29  C   UNL     1       2.607  14.616  20.013  0.00  0.00    +0.000 A 
ATOM     30  O   UNL     1       4.799  15.503  19.481  0.00  0.00    +0.000 OA
ATOM     31  C   UNL     1       5.070  16.777  18.867  0.00  0.00    +0.000 C 
ATOM     32  O   UNL     1       3.977  17.251  18.050  0.00  0.00    +0.000 OA
ENDBRANCH  23  24
ENDBRANCH   6  23
TORSDOF 3
ENDMDL
MODEL 7
REMARK VINA RESULT:      -8.2      4.493      8.104
REMARK  Name = 
REMARK  3 active torsions:
REMARK  status: ('A' for Active; 'I' for Inactive)
REMARK    1  A    between atoms: C_2  and  C_3
REMARK    2  A    between atoms: N_20  and  C_21
REMARK    3  A    between atoms: C_21  and  C_22
REMARK                            x       y       z     vdW  Elec       q    Type
REMARK                         _______ _______ _______ _____ _____    ______ ____
ROOT
ATOM      1  O   UNL     1       2.888  17.518  17.550  0.00  0.00    +0.000 OA
ATOM      2  C   UNL     1       3.104  16.542  18.269  0.00  0.00    +0.000 C 
ATOM      3  N   UNL     1       2.048  15.829  18.832  0.00  0.00    +0.000 N 
ATOM      4  C   UNL     1       2.152  14.510  19.475  0.00  0.00    +0.000 C 
ATOM      5  C   UNL     1       1.207  14.433  20.679  0.00  0.00    +0.000 C 
ATOM      6  N   UNL     1      -0.203  14.709  20.317  0.00  0.00    +0.000 NA
ATOM      7  C   UNL     1      -0.268  16.055  19.713  0.00  0.00    +0.000 C 
ATOM      8  C   UNL     1       0.679  16.254  18.516  0.00  0.00    +0.000 C 
ENDROOT
BRANCH   2   9
ATOM      9  C   UNL     1       4.459  16.090  18.498  0.00  0.00    +0.000 A 
ATOM     10  C   UNL     1       5.356  16.495  19.463  0.00  0.00    +0.000 A 
ATOM     11  C   UNL     1       6.533  15.745  19.259  0.00  0.00    +0.000 A 
ATOM     12  C   UNL     1       7.780  15.661  19.874  0.00  0.00    +0.000 A 
ATOM     13  C   UNL     1       8.675  14.711  19.375  0.00  0.00    +0.000 A 
ATOM     14  C   UNL     1       9.900  14.515  20.022  0.00  0.00    +0.000 A 
ATOM     15  C   UNL     1      10.791  13.560  19.556  0.00  0.00    +0.000 A 
ATOM     16  C   UNL     1      10.472  12.829  18.418  0.00  0.00    +0.000 A 
ATOM     17 CL   UNL     1      11.581  11.649  17.836  0.00  0.00    +0.000 Cl
ATOM     18  C   UNL     1       9.257  13.030  17.760  0.00  0.00    +0.000 A 
ATOM     19  C   UNL     1       8.325  13.943  18.235  0.00  0.00    +0.000 A 
ATOM     20  N   UNL     1       7.141  14.038  17.612  0.00  0.00    +0.000 NA
ATOM     21  C   UNL     1       6.289  14.910  18.178  0.00  0.00    +0.000 A 
ATOM     22  O   UNL     1       5.012  15.086  17.752  0.00  0.00    +0.000 OA
ENDBRANCH   2   9
BRANCH   6  23
ATOM     23  C   UNL     1      -0.763  13.681  19.413  0.00  0.00    +0.000 C 
BRANCH  23  24
ATOM     24  C   UNL     1      -0.648  12.298  20.022  0.00  0.00    +0.000 A 
ATOM     25  C   UNL     1      -0.063  11.224  19.315  0.00  0.00    +0.000 A 
ATOM     26  C   UNL     1       0.218  10.015  19.960  0.00  0.00    +0.000 A 
ATOM     27  C   UNL     1      -0.075   9.933  21.304  0.00  0.00    +0.000 A 
ATOM     28  C   UNL     1      -0.683  10.966  21.985  0.00  0.00    +0.000 A 
ATOM     29  C   UNL     1      -1.007  12.146  21.372  0.00  0.00    +0.000 A 
ATOM     30  O   UNL     1      -0.830  10.703  23.311  0.00  0.00    +0.000 OA
ATOM     31  C   UNL     1      -0.016   9.519  23.414  0.00  0.00    +0.000 C 
ATOM     32  O   UNL     1       0.237   8.899  22.134  0.00  0.00    +0.000 OA
ENDBRANCH  23  24
ENDBRANCH   6  23
TORSDOF 3
ENDMDL
MODEL 8
REMARK VINA RESULT:      -8.2      4.421      8.232
REMARK  Name = 
REMARK  3 active torsions:
REMARK  status: ('A' for Active; 'I' for Inactive)
REMARK    1  A    between atoms: C_2  and  C_3
REMARK    2  A    between atoms: N_20  and  C_21
REMARK    3  A    between atoms: C_21  and  C_22
REMARK                            x       y       z     vdW  Elec       q    Type
REMARK                         _______ _______ _______ _____ _____    ______ ____
ROOT
ATOM      1  O   UNL     1       2.702  17.589  17.331  0.00  0.00    +0.000 OA
ATOM      2  C   UNL     1       2.994  16.752  18.186  0.00  0.00    +0.000 C 
ATOM      3  N   UNL     1       2.006  16.173  18.978  0.00  0.00    +0.000 N 
ATOM      4  C   UNL     1       2.178  14.988  19.832  0.00  0.00    +0.000 C 
ATOM      5  C   UNL     1       1.371  15.147  21.125  0.00  0.00    +0.000 C 
ATOM      6  N   UNL     1      -0.070  15.384  20.875  0.00  0.00    +0.000 NA
ATOM      7  C   UNL     1      -0.199  16.602  20.050  0.00  0.00    +0.000 C 
ATOM      8  C   UNL     1       0.611  16.564  18.742  0.00  0.00    +0.000 C 
ENDROOT
BRANCH   2   9
ATOM      9  C   UNL     1       4.365  16.319  18.344  0.00  0.00    +0.000 A 
ATOM     10  C   UNL     1       5.375  16.894  19.087  0.00  0.00    +0.000 A 
ATOM     11  C   UNL     1       6.516  16.083  18.911  0.00  0.00    +0.000 A 
ATOM     12  C   UNL     1       7.828  16.094  19.377  0.00  0.00    +0.000 A 
ATOM     13  C   UNL     1       8.652  15.034  18.991  0.00  0.00    +0.000 A 
ATOM     14  C   UNL     1       9.946  14.944  19.516  0.00  0.00    +0.000 A 
ATOM     15  C   UNL     1      10.771  13.886  19.163  0.00  0.00    +0.000 A 
ATOM     16  C   UNL     1      10.312  12.939  18.255  0.00  0.00    +0.000 A 
ATOM     17 CL   UNL     1      11.337  11.630  17.813  0.00  0.00    +0.000 Cl
ATOM     18  C   UNL     1       9.026  13.031  17.718  0.00  0.00    +0.000 A 
ATOM     19  C   UNL     1       8.162  14.052  18.093  0.00  0.00    +0.000 A 
ATOM     20  N   UNL     1       6.912  14.047  17.608  0.00  0.00    +0.000 NA
ATOM     21  C   UNL     1       6.138  15.044  18.071  0.00  0.00    +0.000 A 
ATOM     22  O   UNL     1       4.820  15.163  17.771  0.00  0.00    +0.000 OA
ENDBRANCH   2   9
BRANCH   6  23
ATOM     23  C   UNL     1      -0.728  14.224  20.235  0.00  0.00    +0.000 C 
BRANCH  23  24
ATOM     24  C   UNL     1      -0.598  12.982  21.093  0.00  0.00    +0.000 A 
ATOM     25  C   UNL     1      -1.272  12.861  22.329  0.00  0.00    +0.000 A 
ATOM     26  C   UNL     1      -1.304  11.637  23.007  0.00  0.00    +0.000 A 
ATOM     27  C   UNL     1      -0.679  10.566  22.407  0.00  0.00    +0.000 A 
ATOM     28  C   UNL     1       0.014  10.692  21.222  0.00  0.00    +0.000 A 
ATOM     29  C   UNL     1       0.097  11.886  20.555  0.00  0.00    +0.000 A 
ATOM     30  O   UNL     1       0.505   9.507  20.775  0.00  0.00    +0.000 OA
ATOM     31  C   UNL     1      -0.180   8.609  21.669  0.00  0.00    +0.000 C 
ATOM     32  O   UNL     1      -0.706   9.275  22.838  0.00  0.00    +0.000 OA
ENDBRANCH  23  24
ENDBRANCH   6  23
TORSDOF 3
ENDMDL
MODEL 9
REMARK VINA RESULT:      -8.1      4.088     10.128
REMARK  Name = 
REMARK  3 active torsions:
REMARK  status: ('A' for Active; 'I' for Inactive)
REMARK    1  A    between atoms: C_2  and  C_3
REMARK    2  A    between atoms: N_20  and  C_21
REMARK    3  A    between atoms: C_21  and  C_22
REMARK                            x       y       z     vdW  Elec       q    Type
REMARK                         _______ _______ _______ _____ _____    ______ ____
ROOT
ATOM      1  O   UNL     1       1.869   4.948  21.203  0.00  0.00    +0.000 OA
ATOM      2  C   UNL     1       2.206   5.806  20.386  0.00  0.00    +0.000 C 
ATOM      3  N   UNL     1       3.066   5.488  19.338  0.00  0.00    +0.000 N 
ATOM      4  C   UNL     1       3.329   6.329  18.161  0.00  0.00    +0.000 C 
ATOM      5  C   UNL     1       4.802   6.221  17.752  0.00  0.00    +0.000 C 
ATOM      6  N   UNL     1       5.218   4.825  17.479  0.00  0.00    +0.000 NA
ATOM      7  C   UNL     1       4.974   4.025  18.696  0.00  0.00    +0.000 C 
ATOM      8  C   UNL     1       3.529   4.100  19.219  0.00  0.00    +0.000 C 
ENDROOT
BRANCH   2   9
ATOM      9  C   UNL     1       1.670   7.147  20.474  0.00  0.00    +0.000 A 
ATOM     10  C   UNL     1       0.984   7.740  21.512  0.00  0.00    +0.000 A 
ATOM     11  C   UNL     1       0.689   9.056  21.101  0.00  0.00    +0.000 A 
ATOM     12  C   UNL     1       0.044  10.156  21.664  0.00  0.00    +0.000 A 
ATOM     13  C   UNL     1       0.019  11.333  20.914  0.00  0.00    +0.000 A 
ATOM     14  C   UNL     1      -0.525  12.494  21.476  0.00  0.00    +0.000 A 
ATOM     15  C   UNL     1      -0.537  13.679  20.756  0.00  0.00    +0.000 A 
ATOM     16  C   UNL     1      -0.041  13.692  19.458  0.00  0.00    +0.000 A 
ATOM     17 CL   UNL     1      -0.062  15.162  18.562  0.00  0.00    +0.000 Cl
ATOM     18  C   UNL     1       0.491  12.534  18.887  0.00  0.00    +0.000 A 
ATOM     19  C   UNL     1       0.562  11.347  19.604  0.00  0.00    +0.000 A 
ATOM     20  N   UNL     1       1.155  10.286  19.036  0.00  0.00    +0.000 NA
ATOM     21  C   UNL     1       1.222   9.203  19.828  0.00  0.00    +0.000 A 
ATOM     22  O   UNL     1       1.860   8.059  19.472  0.00  0.00    +0.000 OA
ENDBRANCH   2   9
BRANCH   6  23
ATOM     23  C   UNL     1       4.524   4.252  16.305  0.00  0.00    +0.000 C 
BRANCH  23  24
ATOM     24  C   UNL     1       5.446   4.185  15.105  0.00  0.00    +0.000 A 
ATOM     25  C   UNL     1       5.061   3.538  13.909  0.00  0.00    +0.000 A 
ATOM     26  C   UNL     1       5.835   3.660  12.751  0.00  0.00    +0.000 A 
ATOM     27  C   UNL     1       6.961   4.451  12.824  0.00  0.00    +0.000 A 
ATOM     28  C   UNL     1       7.360   5.049  14.000  0.00  0.00    +0.000 A 
ATOM     29  C   UNL     1       6.645   4.916  15.160  0.00  0.00    +0.000 A 
ATOM     30  O   UNL     1       8.461   5.831  13.841  0.00  0.00    +0.000 OA
ATOM     31  C   UNL     1       8.534   5.855  12.403  0.00  0.00    +0.000 C 
ATOM     32  O   UNL     1       7.769   4.798  11.784  0.00  0.00    +0.000 OA
ENDBRANCH  23  24
ENDBRANCH   6  23
TORSDOF 3
ENDMDL
