MODEL 1
REMARK VINA RESULT:      -8.2      0.000      0.000
REMARK  Name = 
REMARK  5 active torsions:
REMARK  status: ('A' for Active; 'I' for Inactive)
REMARK    1  A    between atoms: C_2  and  C_24
REMARK    2  A    between atoms: N_3  and  C_4
REMARK    3  A    between atoms: C_4  and  C_5
REMARK    4  A    between atoms: N_7  and  C_8
REMARK    5  A    between atoms: C_11  and  N_12
REMARK                            x       y       z     vdW  Elec       q    Type
REMARK                         _______ _______ _______ _____ _____    ______ ____
ROOT
ATOM      1  C   UNL     1       5.289   4.742  19.070  0.00  0.00    +0.000 C 
ATOM      2  C   UNL     1       4.886   6.200  19.046  0.00  0.00    +0.000 C 
ATOM      3  N   UNL     1       3.466   6.123  18.900  0.00  0.00    +0.000 N 
ATOM      4  C   UNL     1       3.112   4.861  18.443  0.00  0.00    +0.000 C 
ATOM      5  O   UNL     1       2.017   4.454  18.080  0.00  0.00    +0.000 OA
ATOM      6  O   UNL     1       4.224   4.064  18.387  0.00  0.00    +0.000 OA
ENDROOT
BRANCH   3   7
ATOM      7  C   UNL     1       2.603   7.222  19.088  0.00  0.00    +0.000 A 
ATOM      8  C   UNL     1       2.359   8.118  18.048  0.00  0.00    +0.000 A 
ATOM      9  C   UNL     1       1.504   9.206  18.218  0.00  0.00    +0.000 A 
ATOM     10  C   UNL     1       0.889   9.465  19.443  0.00  0.00    +0.000 A 
ATOM     11  C   UNL     1       1.116   8.543  20.476  0.00  0.00    +0.000 A 
ATOM     12  F   UNL     1       0.570   8.709  21.693  0.00  0.00    +0.000 F 
ATOM     13  C   UNL     1       1.952   7.436  20.306  0.00  0.00    +0.000 A 
BRANCH  10  14
ATOM     14  N   UNL     1       0.092  10.627  19.614  0.00  0.00    +0.000 N 
ATOM     15  C   UNL     1      -1.253  10.733  19.103  0.00  0.00    +0.000 C 
ATOM     16  C   UNL     1      -1.592  12.198  19.270  0.00  0.00    +0.000 C 
ATOM     17  C   UNL     1      -0.801  12.613  20.494  0.00  0.00    +0.000 C 
ATOM     18  C   UNL     1       0.397  11.706  20.463  0.00  0.00    +0.000 C 
ATOM     19  O   UNL     1       1.391  11.905  21.145  0.00  0.00    +0.000 OA
ENDBRANCH  10  14
ENDBRANCH   3   7
BRANCH   1  20
ATOM     20  C   UNL     1       6.602   4.493  18.338  0.00  0.00    +0.000 C 
BRANCH  20  23
ATOM     21  O   UNL     1       7.467   6.122  16.233  0.00  0.00    +0.000 OA
ATOM     22  C   UNL     1       6.886   5.077  15.944  0.00  0.00    +0.000 C 
ATOM     23  N   UNL     1       6.398   4.241  16.925  0.00  0.00    +0.000 N 
ATOM     24  H   UNL     1       6.059   3.328  16.640  0.00  0.00    +0.000 HD
BRANCH  22  25
ATOM     25  C   UNL     1       6.681   4.633  14.572  0.00  0.00    +0.000 A 
ATOM     26  C   UNL     1       7.520   4.854  13.493  0.00  0.00    +0.000 A 
ATOM     27  C   UNL     1       7.036   4.261  12.287  0.00  0.00    +0.000 A 
ATOM     28  C   UNL     1       5.837   3.631  12.497  0.00  0.00    +0.000 A 
ATOM     29 BR   UNL     1       4.884   2.741  11.152  0.00  0.00    +0.000 Br
ATOM     30  S   UNL     1       5.297   3.733  14.096  0.00  0.00    +0.000 S 
ENDBRANCH  22  25
ENDBRANCH  20  23
ENDBRANCH   1  20
TORSDOF 5
ENDMDL
MODEL 2
REMARK VINA RESULT:      -7.8      0.910      1.271
REMARK  Name = 
REMARK  5 active torsions:
REMARK  status: ('A' for Active; 'I' for Inactive)
REMARK    1  A    between atoms: C_2  and  C_24
REMARK    2  A    between atoms: N_3  and  C_4
REMARK    3  A    between atoms: C_4  and  C_5
REMARK    4  A    between atoms: N_7  and  C_8
REMARK    5  A    between atoms: C_11  and  N_12
REMARK                            x       y       z     vdW  Elec       q    Type
REMARK                         _______ _______ _______ _____ _____    ______ ____
ROOT
ATOM      1  C   UNL     1       5.149   4.738  19.105  0.00  0.00    +0.000 C 
ATOM      2  C   UNL     1       4.789   6.206  19.151  0.00  0.00    +0.000 C 
ATOM      3  N   UNL     1       3.378   6.183  18.924  0.00  0.00    +0.000 N 
ATOM      4  C   UNL     1       3.015   4.964  18.371  0.00  0.00    +0.000 C 
ATOM      5  O   UNL     1       1.931   4.615  17.925  0.00  0.00    +0.000 OA
ATOM      6  O   UNL     1       4.105   4.136  18.325  0.00  0.00    +0.000 OA
ENDROOT
BRANCH   3   7
ATOM      7  C   UNL     1       2.538   7.296  19.134  0.00  0.00    +0.000 A 
ATOM      8  C   UNL     1       1.910   7.490  20.363  0.00  0.00    +0.000 A 
ATOM      9  C   UNL     1       1.081   8.589  20.585  0.00  0.00    +0.000 A 
ATOM     10  C   UNL     1       0.816   9.517  19.579  0.00  0.00    +0.000 A 
ATOM     11  C   UNL     1       1.475   9.332  18.353  0.00  0.00    +0.000 A 
ATOM     12  F   UNL     1       1.281  10.172  17.323  0.00  0.00    +0.000 F 
ATOM     13  C   UNL     1       2.327   8.247  18.131  0.00  0.00    +0.000 A 
BRANCH  10  14
ATOM     14  N   UNL     1      -0.099  10.578  19.804  0.00  0.00    +0.000 N 
ATOM     15  C   UNL     1      -1.363  10.679  19.115  0.00  0.00    +0.000 C 
ATOM     16  C   UNL     1      -1.854  12.069  19.454  0.00  0.00    +0.000 C 
ATOM     17  C   UNL     1      -1.285  12.324  20.834  0.00  0.00    +0.000 C 
ATOM     18  C   UNL     1      -0.017  11.518  20.847  0.00  0.00    +0.000 C 
ATOM     19  O   UNL     1       0.849  11.666  21.697  0.00  0.00    +0.000 OA
ENDBRANCH  10  14
ENDBRANCH   3   7
BRANCH   1  20
ATOM     20  C   UNL     1       6.493   4.493  18.431  0.00  0.00    +0.000 C 
BRANCH  20  23
ATOM     21  O   UNL     1       7.411   6.153  16.374  0.00  0.00    +0.000 OA
ATOM     22  C   UNL     1       6.862   5.100  16.055  0.00  0.00    +0.000 C 
ATOM     23  N   UNL     1       6.352   4.247  17.009  0.00  0.00    +0.000 N 
ATOM     24  H   UNL     1       6.043   3.329  16.705  0.00  0.00    +0.000 HD
BRANCH  22  25
ATOM     25  C   UNL     1       6.722   4.661  14.672  0.00  0.00    +0.000 A 
ATOM     26  C   UNL     1       7.545   4.993  13.608  0.00  0.00    +0.000 A 
ATOM     27  C   UNL     1       7.141   4.374  12.386  0.00  0.00    +0.000 A 
ATOM     28  C   UNL     1       6.016   3.613  12.569  0.00  0.00    +0.000 A 
ATOM     29 BR   UNL     1       5.181   2.650  11.196  0.00  0.00    +0.000 Br
ATOM     30  S   UNL     1       5.450   3.626  14.163  0.00  0.00    +0.000 S 
ENDBRANCH  22  25
ENDBRANCH  20  23
ENDBRANCH   1  20
TORSDOF 5
ENDMDL
MODEL 3
REMARK VINA RESULT:      -7.8      1.187      1.411
REMARK  Name = 
REMARK  5 active torsions:
REMARK  status: ('A' for Active; 'I' for Inactive)
REMARK    1  A    between atoms: C_2  and  C_24
REMARK    2  A    between atoms: N_3  and  C_4
REMARK    3  A    between atoms: C_4  and  C_5
REMARK    4  A    between atoms: N_7  and  C_8
REMARK    5  A    between atoms: C_11  and  N_12
REMARK                            x       y       z     vdW  Elec       q    Type
REMARK                         _______ _______ _______ _____ _____    ______ ____
ROOT
ATOM      1  C   UNL     1       5.976   4.635  18.528  0.00  0.00    +0.000 C 
ATOM      2  C   UNL     1       5.441   6.037  18.338  0.00  0.00    +0.000 C 
ATOM      3  N   UNL     1       4.035   5.857  18.524  0.00  0.00    +0.000 N 
ATOM      4  C   UNL     1       3.715   4.514  18.386  0.00  0.00    +0.000 C 
ATOM      5  O   UNL     1       2.612   3.986  18.350  0.00  0.00    +0.000 OA
ATOM      6  O   UNL     1       4.861   3.782  18.227  0.00  0.00    +0.000 OA
ENDROOT
BRANCH   3   7
ATOM      7  C   UNL     1       3.130   6.924  18.702  0.00  0.00    +0.000 A 
ATOM      8  C   UNL     1       2.959   7.882  17.704  0.00  0.00    +0.000 A 
ATOM      9  C   UNL     1       2.063   8.939  17.864  0.00  0.00    +0.000 A 
ATOM     10  C   UNL     1       1.332   9.103  19.040  0.00  0.00    +0.000 A 
ATOM     11  C   UNL     1       1.488   8.118  20.028  0.00  0.00    +0.000 A 
ATOM     12  F   UNL     1       0.829   8.191  21.197  0.00  0.00    +0.000 F 
ATOM     13  C   UNL     1       2.365   7.042  19.865  0.00  0.00    +0.000 A 
BRANCH  10  14
ATOM     14  N   UNL     1       0.493  10.234  19.211  0.00  0.00    +0.000 N 
ATOM     15  C   UNL     1       0.844  11.345  20.062  0.00  0.00    +0.000 C 
ATOM     16  C   UNL     1      -0.431  12.154  20.152  0.00  0.00    +0.000 C 
ATOM     17  C   UNL     1      -1.108  11.908  18.819  0.00  0.00    +0.000 C 
ATOM     18  C   UNL     1      -0.644  10.529  18.438  0.00  0.00    +0.000 C 
ATOM     19  O   UNL     1      -1.173   9.880  17.549  0.00  0.00    +0.000 OA
ENDBRANCH  10  14
ENDBRANCH   3   7
BRANCH   1  20
ATOM     20  C   UNL     1       7.127   4.322  17.580  0.00  0.00    +0.000 C 
BRANCH  20  23
ATOM     21  O   UNL     1       7.636   5.837  15.283  0.00  0.00    +0.000 OA
ATOM     22  C   UNL     1       6.984   4.803  15.151  0.00  0.00    +0.000 C 
ATOM     23  N   UNL     1       6.662   4.022  16.240  0.00  0.00    +0.000 N 
ATOM     24  H   UNL     1       6.253   3.111  16.062  0.00  0.00    +0.000 HD
BRANCH  22  25
ATOM     25  C   UNL     1       6.520   4.312  13.859  0.00  0.00    +0.000 A 
ATOM     26  C   UNL     1       7.287   4.111  12.723  0.00  0.00    +0.000 A 
ATOM     27  C   UNL     1       6.526   3.598  11.629  0.00  0.00    +0.000 A 
ATOM     28  C   UNL     1       5.208   3.449  11.974  0.00  0.00    +0.000 A 
ATOM     29 BR   UNL     1       3.895   2.805  10.803  0.00  0.00    +0.000 Br
ATOM     30  S   UNL     1       4.877   3.902  13.570  0.00  0.00    +0.000 S 
ENDBRANCH  22  25
ENDBRANCH  20  23
ENDBRANCH   1  20
TORSDOF 5
ENDMDL
MODEL 4
REMARK VINA RESULT:      -7.4      5.766     11.013
REMARK  Name = 
REMARK  5 active torsions:
REMARK  status: ('A' for Active; 'I' for Inactive)
REMARK    1  A    between atoms: C_2  and  C_24
REMARK    2  A    between atoms: N_3  and  C_4
REMARK    3  A    between atoms: C_4  and  C_5
REMARK    4  A    between atoms: N_7  and  C_8
REMARK    5  A    between atoms: C_11  and  N_12
REMARK                            x       y       z     vdW  Elec       q    Type
REMARK                         _______ _______ _______ _____ _____    ______ ____
ROOT
ATOM      1  C   UNL     1       0.366  12.726  20.207  0.00  0.00    +0.000 C 
ATOM      2  C   UNL     1       1.195  11.508  20.551  0.00  0.00    +0.000 C 
ATOM      3  N   UNL     1       0.642  10.509  19.693  0.00  0.00    +0.000 N 
ATOM      4  C   UNL     1      -0.607  10.917  19.246  0.00  0.00    +0.000 C 
ATOM      5  O   UNL     1      -1.437  10.288  18.604  0.00  0.00    +0.000 OA
ATOM      6  O   UNL     1      -0.857  12.191  19.680  0.00  0.00    +0.000 OA
ENDROOT
BRANCH   3   7
ATOM      7  C   UNL     1       1.253   9.260  19.458  0.00  0.00    +0.000 A 
ATOM      8  C   UNL     1       1.837   8.976  18.225  0.00  0.00    +0.000 A 
ATOM      9  C   UNL     1       2.449   7.747  17.981  0.00  0.00    +0.000 A 
ATOM     10  C   UNL     1       2.469   6.739  18.945  0.00  0.00    +0.000 A 
ATOM     11  C   UNL     1       1.905   7.042  20.194  0.00  0.00    +0.000 A 
ATOM     12  F   UNL     1       1.874   6.135  21.184  0.00  0.00    +0.000 F 
ATOM     13  C   UNL     1       1.312   8.281  20.454  0.00  0.00    +0.000 A 
BRANCH  10  14
ATOM     14  N   UNL     1       3.022   5.468  18.642  0.00  0.00    +0.000 N 
ATOM     15  C   UNL     1       2.383   4.532  17.748  0.00  0.00    +0.000 C 
ATOM     16  C   UNL     1       3.162   3.250  17.945  0.00  0.00    +0.000 C 
ATOM     17  C   UNL     1       4.558   3.726  18.289  0.00  0.00    +0.000 C 
ATOM     18  C   UNL     1       4.322   5.045  18.971  0.00  0.00    +0.000 C 
ATOM     19  O   UNL     1       5.188   5.616  19.616  0.00  0.00    +0.000 OA
ENDBRANCH  10  14
ENDBRANCH   3   7
BRANCH   1  20
ATOM     20  C   UNL     1       0.062  13.583  21.429  0.00  0.00    +0.000 C 
BRANCH  20  23
ATOM     21  O   UNL     1      -0.884  14.234  23.982  0.00  0.00    +0.000 OA
ATOM     22  C   UNL     1      -1.685  13.753  23.182  0.00  0.00    +0.000 C 
ATOM     23  N   UNL     1      -1.286  13.374  21.918  0.00  0.00    +0.000 N 
ATOM     24  H   UNL     1      -2.010  13.122  21.252  0.00  0.00    +0.000 HD
BRANCH  22  25
ATOM     25  C   UNL     1      -3.097  13.563  23.486  0.00  0.00    +0.000 A 
ATOM     26  C   UNL     1      -3.676  12.456  24.085  0.00  0.00    +0.000 A 
ATOM     27  C   UNL     1      -5.086  12.600  24.262  0.00  0.00    +0.000 A 
ATOM     28  C   UNL     1      -5.522  13.802  23.770  0.00  0.00    +0.000 A 
ATOM     29 BR   UNL     1      -7.313  14.353  23.814  0.00  0.00    +0.000 Br
ATOM     30  S   UNL     1      -4.283  14.750  23.117  0.00  0.00    +0.000 S 
ENDBRANCH  22  25
ENDBRANCH  20  23
ENDBRANCH   1  20
TORSDOF 5
ENDMDL
MODEL 5
REMARK VINA RESULT:      -7.4      5.677     10.912
REMARK  Name = 
REMARK  5 active torsions:
REMARK  status: ('A' for Active; 'I' for Inactive)
REMARK    1  A    between atoms: C_2  and  C_24
REMARK    2  A    between atoms: N_3  and  C_4
REMARK    3  A    between atoms: C_4  and  C_5
REMARK    4  A    between atoms: N_7  and  C_8
REMARK    5  A    between atoms: C_11  and  N_12
REMARK                            x       y       z     vdW  Elec       q    Type
REMARK                         _______ _______ _______ _____ _____    ______ ____
ROOT
ATOM      1  C   UNL     1       0.108  12.885  19.314  0.00  0.00    +0.000 C 
ATOM      2  C   UNL     1       1.047  11.797  19.788  0.00  0.00    +0.000 C 
ATOM      3  N   UNL     1       0.538  10.641  19.120  0.00  0.00    +0.000 N 
ATOM      4  C   UNL     1      -0.758  10.884  18.688  0.00  0.00    +0.000 C 
ATOM      5  O   UNL     1      -1.562  10.106  18.195  0.00  0.00    +0.000 OA
ATOM      6  O   UNL     1      -1.090  12.188  18.942  0.00  0.00    +0.000 OA
ENDROOT
BRANCH   3   7
ATOM      7  C   UNL     1       1.237   9.418  19.040  0.00  0.00    +0.000 A 
ATOM      8  C   UNL     1       1.963   9.090  17.896  0.00  0.00    +0.000 A 
ATOM      9  C   UNL     1       2.663   7.887  17.805  0.00  0.00    +0.000 A 
ATOM     10  C   UNL     1       2.635   6.948  18.836  0.00  0.00    +0.000 A 
ATOM     11  C   UNL     1       1.926   7.298  19.996  0.00  0.00    +0.000 A 
ATOM     12  F   UNL     1       1.838   6.458  21.040  0.00  0.00    +0.000 F 
ATOM     13  C   UNL     1       1.243   8.513  20.104  0.00  0.00    +0.000 A 
BRANCH  10  14
ATOM     14  N   UNL     1       3.284   5.696  18.683  0.00  0.00    +0.000 N 
ATOM     15  C   UNL     1       4.537   5.382  19.326  0.00  0.00    +0.000 C 
ATOM     16  C   UNL     1       4.971   4.090  18.670  0.00  0.00    +0.000 C 
ATOM     17  C   UNL     1       3.664   3.406  18.325  0.00  0.00    +0.000 C 
ATOM     18  C   UNL     1       2.717   4.551  18.096  0.00  0.00    +0.000 C 
ATOM     19  O   UNL     1       1.631   4.408  17.554  0.00  0.00    +0.000 OA
ENDBRANCH  10  14
ENDBRANCH   3   7
BRANCH   1  20
ATOM     20  C   UNL     1      -0.210  13.893  20.411  0.00  0.00    +0.000 C 
BRANCH  20  23
ATOM     21  O   UNL     1      -1.534  15.445  22.327  0.00  0.00    +0.000 OA
ATOM     22  C   UNL     1      -1.935  14.296  22.147  0.00  0.00    +0.000 C 
ATOM     23  N   UNL     1      -1.311  13.459  21.247  0.00  0.00    +0.000 N 
ATOM     24  H   UNL     1      -1.766  12.578  21.030  0.00  0.00    +0.000 HD
BRANCH  22  25
ATOM     25  C   UNL     1      -3.087  13.736  22.840  0.00  0.00    +0.000 A 
ATOM     26  C   UNL     1      -3.068  12.826  23.884  0.00  0.00    +0.000 A 
ATOM     27  C   UNL     1      -4.376  12.499  24.355  0.00  0.00    +0.000 A 
ATOM     28  C   UNL     1      -5.336  13.159  23.634  0.00  0.00    +0.000 A 
ATOM     29 BR   UNL     1      -7.174  12.984  23.951  0.00  0.00    +0.000 Br
ATOM     30  S   UNL     1      -4.701  14.157  22.425  0.00  0.00    +0.000 S 
ENDBRANCH  22  25
ENDBRANCH  20  23
ENDBRANCH   1  20
TORSDOF 5
ENDMDL
MODEL 6
REMARK VINA RESULT:      -7.4      2.546      3.837
REMARK  Name = 
REMARK  5 active torsions:
REMARK  status: ('A' for Active; 'I' for Inactive)
REMARK    1  A    between atoms: C_2  and  C_24
REMARK    2  A    between atoms: N_3  and  C_4
REMARK    3  A    between atoms: C_4  and  C_5
REMARK    4  A    between atoms: N_7  and  C_8
REMARK    5  A    between atoms: C_11  and  N_12
REMARK                            x       y       z     vdW  Elec       q    Type
REMARK                         _______ _______ _______ _____ _____    ______ ____
ROOT
ATOM      1  C   UNL     1       2.205   6.692  19.362  0.00  0.00    +0.000 C 
ATOM      2  C   UNL     1       1.829   7.511  20.578  0.00  0.00    +0.000 C 
ATOM      3  N   UNL     1       1.290   8.698  19.993  0.00  0.00    +0.000 N 
ATOM      4  C   UNL     1       1.694   8.790  18.668  0.00  0.00    +0.000 C 
ATOM      5  O   UNL     1       1.544   9.714  17.881  0.00  0.00    +0.000 OA
ATOM      6  O   UNL     1       2.384   7.660  18.318  0.00  0.00    +0.000 OA
ENDROOT
BRANCH   3   7
ATOM      7  C   UNL     1       0.562   9.662  20.719  0.00  0.00    +0.000 A 
ATOM      8  C   UNL     1       0.254   9.456  22.063  0.00  0.00    +0.000 A 
ATOM      9  C   UNL     1      -0.460  10.404  22.794  0.00  0.00    +0.000 A 
ATOM     10  C   UNL     1      -0.928  11.578  22.205  0.00  0.00    +0.000 A 
ATOM     11  C   UNL     1      -0.589  11.793  20.860  0.00  0.00    +0.000 A 
ATOM     12  F   UNL     1      -0.997  12.893  20.205  0.00  0.00    +0.000 F 
ATOM     13  C   UNL     1       0.148  10.859  20.127  0.00  0.00    +0.000 A 
BRANCH  10  14
ATOM     14  N   UNL     1      -1.726  12.485  22.949  0.00  0.00    +0.000 N 
ATOM     15  C   UNL     1      -2.986  12.109  23.544  0.00  0.00    +0.000 C 
ATOM     16  C   UNL     1      -3.592  13.426  23.978  0.00  0.00    +0.000 C 
ATOM     17  C   UNL     1      -2.388  14.285  24.304  0.00  0.00    +0.000 C 
ATOM     18  C   UNL     1      -1.320  13.757  23.388  0.00  0.00    +0.000 C 
ATOM     19  O   UNL     1      -0.277  14.359  23.178  0.00  0.00    +0.000 OA
ENDBRANCH  10  14
ENDBRANCH   3   7
BRANCH   1  20
ATOM     20  C   UNL     1       3.501   5.917  19.565  0.00  0.00    +0.000 C 
BRANCH  20  23
ATOM     21  O   UNL     1       5.858   4.445  19.238  0.00  0.00    +0.000 OA
ATOM     22  C   UNL     1       5.359   4.952  18.235  0.00  0.00    +0.000 C 
ATOM     23  N   UNL     1       4.219   5.721  18.321  0.00  0.00    +0.000 N 
ATOM     24  H   UNL     1       3.768   5.993  17.454  0.00  0.00    +0.000 HD
BRANCH  22  25
ATOM     25  C   UNL     1       5.905   4.774  16.897  0.00  0.00    +0.000 A 
ATOM     26  C   UNL     1       7.143   5.198  16.441  0.00  0.00    +0.000 A 
ATOM     27  C   UNL     1       7.380   4.842  15.079  0.00  0.00    +0.000 A 
ATOM     28  C   UNL     1       6.303   4.181  14.549  0.00  0.00    +0.000 A 
ATOM     29 BR   UNL     1       6.233   3.558  12.784  0.00  0.00    +0.000 Br
ATOM     30  S   UNL     1       5.034   3.977  15.649  0.00  0.00    +0.000 S 
ENDBRANCH  22  25
ENDBRANCH  20  23
ENDBRANCH   1  20
TORSDOF 5
ENDMDL
MODEL 7
REMARK VINA RESULT:      -7.4      2.270      3.283
REMARK  Name = 
REMARK  5 active torsions:
REMARK  status: ('A' for Active; 'I' for Inactive)
REMARK    1  A    between atoms: C_2  and  C_24
REMARK    2  A    between atoms: N_3  and  C_4
REMARK    3  A    between atoms: C_4  and  C_5
REMARK    4  A    between atoms: N_7  and  C_8
REMARK    5  A    between atoms: C_11  and  N_12
REMARK                            x       y       z     vdW  Elec       q    Type
REMARK                         _______ _______ _______ _____ _____    ______ ____
ROOT
ATOM      1  C   UNL     1       2.403   6.559  18.846  0.00  0.00    +0.000 C 
ATOM      2  C   UNL     1       2.019   7.314  20.099  0.00  0.00    +0.000 C 
ATOM      3  N   UNL     1       1.472   8.524  19.573  0.00  0.00    +0.000 N 
ATOM      4  C   UNL     1       1.877   8.685  18.255  0.00  0.00    +0.000 C 
ATOM      5  O   UNL     1       1.722   9.646  17.515  0.00  0.00    +0.000 OA
ATOM      6  O   UNL     1       2.577   7.579  17.851  0.00  0.00    +0.000 OA
ENDROOT
BRANCH   3   7
ATOM      7  C   UNL     1       0.735   9.446  20.345  0.00  0.00    +0.000 A 
ATOM      8  C   UNL     1       0.155  10.565  19.751  0.00  0.00    +0.000 A 
ATOM      9  C   UNL     1      -0.581  11.482  20.501  0.00  0.00    +0.000 A 
ATOM     10  C   UNL     1      -0.734  11.339  21.880  0.00  0.00    +0.000 A 
ATOM     11  C   UNL     1      -0.171  10.195  22.467  0.00  0.00    +0.000 A 
ATOM     12  F   UNL     1      -0.263   9.972  23.788  0.00  0.00    +0.000 F 
ATOM     13  C   UNL     1       0.546   9.258  21.717  0.00  0.00    +0.000 A 
BRANCH  10  14
ATOM     14  N   UNL     1      -1.413  12.332  22.633  0.00  0.00    +0.000 N 
ATOM     15  C   UNL     1      -2.665  12.081  23.305  0.00  0.00    +0.000 C 
ATOM     16  C   UNL     1      -3.136  13.456  23.724  0.00  0.00    +0.000 C 
ATOM     17  C   UNL     1      -1.849  14.220  23.959  0.00  0.00    +0.000 C 
ATOM     18  C   UNL     1      -0.879  13.578  23.007  0.00  0.00    +0.000 C 
ATOM     19  O   UNL     1       0.196  14.083  22.724  0.00  0.00    +0.000 OA
ENDBRANCH  10  14
ENDBRANCH   3   7
BRANCH   1  20
ATOM     20  C   UNL     1       3.704   5.785  19.013  0.00  0.00    +0.000 C 
BRANCH  20  23
ATOM     21  O   UNL     1       6.140   4.457  18.647  0.00  0.00    +0.000 OA
ATOM     22  C   UNL     1       5.568   4.885  17.646  0.00  0.00    +0.000 C 
ATOM     23  N   UNL     1       4.383   5.581  17.749  0.00  0.00    +0.000 N 
ATOM     24  H   UNL     1       3.880   5.784  16.891  0.00  0.00    +0.000 HD
BRANCH  22  25
ATOM     25  C   UNL     1       6.071   4.685  16.294  0.00  0.00    +0.000 A 
ATOM     26  C   UNL     1       7.274   5.138  15.779  0.00  0.00    +0.000 A 
ATOM     27  C   UNL     1       7.474   4.748  14.420  0.00  0.00    +0.000 A 
ATOM     28  C   UNL     1       6.404   4.032  13.952  0.00  0.00    +0.000 A 
ATOM     29 BR   UNL     1       6.293   3.350  12.210  0.00  0.00    +0.000 Br
ATOM     30  S   UNL     1       5.185   3.817  15.105  0.00  0.00    +0.000 S 
ENDBRANCH  22  25
ENDBRANCH  20  23
ENDBRANCH   1  20
TORSDOF 5
ENDMDL
MODEL 8
REMARK VINA RESULT:      -7.4      5.340     10.997
REMARK  Name = 
REMARK  5 active torsions:
REMARK  status: ('A' for Active; 'I' for Inactive)
REMARK    1  A    between atoms: C_2  and  C_24
REMARK    2  A    between atoms: N_3  and  C_4
REMARK    3  A    between atoms: C_4  and  C_5
REMARK    4  A    between atoms: N_7  and  C_8
REMARK    5  A    between atoms: C_11  and  N_12
REMARK                            x       y       z     vdW  Elec       q    Type
REMARK                         _______ _______ _______ _____ _____    ______ ____
ROOT
ATOM      1  C   UNL     1       0.116  12.416  20.626  0.00  0.00    +0.000 C 
ATOM      2  C   UNL     1       0.992  11.201  20.839  0.00  0.00    +0.000 C 
ATOM      3  N   UNL     1       0.559  10.325  19.797  0.00  0.00    +0.000 N 
ATOM      4  C   UNL     1      -0.679  10.737  19.325  0.00  0.00    +0.000 C 
ATOM      5  O   UNL     1      -1.424  10.179  18.532  0.00  0.00    +0.000 OA
ATOM      6  O   UNL     1      -1.034  11.912  19.931  0.00  0.00    +0.000 OA
ENDROOT
BRANCH   3   7
ATOM      7  C   UNL     1       1.259   9.161  19.418  0.00  0.00    +0.000 A 
ATOM      8  C   UNL     1       1.832   9.058  18.151  0.00  0.00    +0.000 A 
ATOM      9  C   UNL     1       2.532   7.915  17.766  0.00  0.00    +0.000 A 
ATOM     10  C   UNL     1       2.654   6.815  18.614  0.00  0.00    +0.000 A 
ATOM     11  C   UNL     1       2.101   6.937  19.898  0.00  0.00    +0.000 A 
ATOM     12  F   UNL     1       2.165   5.929  20.784  0.00  0.00    +0.000 F 
ATOM     13  C   UNL     1       1.420   8.089  20.301  0.00  0.00    +0.000 A 
BRANCH  10  14
ATOM     14  N   UNL     1       3.296   5.631  18.166  0.00  0.00    +0.000 N 
ATOM     15  C   UNL     1       4.700   5.375  18.382  0.00  0.00    +0.000 C 
ATOM     16  C   UNL     1       4.988   4.169  17.514  0.00  0.00    +0.000 C 
ATOM     17  C   UNL     1       3.678   3.409  17.508  0.00  0.00    +0.000 C 
ATOM     18  C   UNL     1       2.644   4.488  17.671  0.00  0.00    +0.000 C 
ATOM     19  O   UNL     1       1.456   4.297  17.461  0.00  0.00    +0.000 OA
ENDBRANCH  10  14
ENDBRANCH   3   7
BRANCH   1  20
ATOM     20  C   UNL     1      -0.322  13.051  21.941  0.00  0.00    +0.000 C 
BRANCH  20  23
ATOM     21  O   UNL     1      -1.962  14.822  23.356  0.00  0.00    +0.000 OA
ATOM     22  C   UNL     1      -2.491  13.831  22.855  0.00  0.00    +0.000 C 
ATOM     23  N   UNL     1      -1.743  12.895  22.174  0.00  0.00    +0.000 N 
ATOM     24  H   UNL     1      -2.243  12.177  21.658  0.00  0.00    +0.000 HD
BRANCH  22  25
ATOM     25  C   UNL     1      -3.924  13.573  22.920  0.00  0.00    +0.000 A 
ATOM     26  C   UNL     1      -4.779  13.892  23.962  0.00  0.00    +0.000 A 
ATOM     27  C   UNL     1      -6.132  13.522  23.697  0.00  0.00    +0.000 A 
ATOM     28  C   UNL     1      -6.246  12.919  22.471  0.00  0.00    +0.000 A 
ATOM     29 BR   UNL     1      -7.865  12.289  21.771  0.00  0.00    +0.000 Br
ATOM     30  S   UNL     1      -4.776  12.799  21.644  0.00  0.00    +0.000 S 
ENDBRANCH  22  25
ENDBRANCH  20  23
ENDBRANCH   1  20
TORSDOF 5
ENDMDL
MODEL 9
REMARK VINA RESULT:      -7.3      6.197     11.557
REMARK  Name = 
REMARK  5 active torsions:
REMARK  status: ('A' for Active; 'I' for Inactive)
REMARK    1  A    between atoms: C_2  and  C_24
REMARK    2  A    between atoms: N_3  and  C_4
REMARK    3  A    between atoms: C_4  and  C_5
REMARK    4  A    between atoms: N_7  and  C_8
REMARK    5  A    between atoms: C_11  and  N_12
REMARK                            x       y       z     vdW  Elec       q    Type
REMARK                         _______ _______ _______ _____ _____    ______ ____
ROOT
ATOM      1  C   UNL     1      -0.324  11.326  21.845  0.00  0.00    +0.000 C 
ATOM      2  C   UNL     1       0.468  10.038  21.787  0.00  0.00    +0.000 C 
ATOM      3  N   UNL     1       0.412   9.707  20.398  0.00  0.00    +0.000 N 
ATOM      4  C   UNL     1      -0.620  10.408  19.792  0.00  0.00    +0.000 C 
ATOM      5  O   UNL     1      -1.060  10.300  18.656  0.00  0.00    +0.000 OA
ATOM      6  O   UNL     1      -1.179  11.274  20.694  0.00  0.00    +0.000 OA
ENDROOT
BRANCH   3   7
ATOM      7  C   UNL     1       1.225   8.721  19.800  0.00  0.00    +0.000 A 
ATOM      8  C   UNL     1       1.719   8.897  18.509  0.00  0.00    +0.000 A 
ATOM      9  C   UNL     1       2.528   7.934  17.907  0.00  0.00    +0.000 A 
ATOM     10  C   UNL     1       2.844   6.740  18.555  0.00  0.00    +0.000 A 
ATOM     11  C   UNL     1       2.368   6.583  19.866  0.00  0.00    +0.000 A 
ATOM     12  F   UNL     1       2.617   5.466  20.570  0.00  0.00    +0.000 F 
ATOM     13  C   UNL     1       1.577   7.555  20.485  0.00  0.00    +0.000 A 
BRANCH  10  14
ATOM     14  N   UNL     1       3.597   5.739  17.888  0.00  0.00    +0.000 N 
ATOM     15  C   UNL     1       5.039   5.754  17.832  0.00  0.00    +0.000 C 
ATOM     16  C   UNL     1       5.375   4.688  16.813  0.00  0.00    +0.000 C 
ATOM     17  C   UNL     1       4.251   3.684  16.959  0.00  0.00    +0.000 C 
ATOM     18  C   UNL     1       3.085   4.523  17.403  0.00  0.00    +0.000 C 
ATOM     19  O   UNL     1       1.934   4.112  17.384  0.00  0.00    +0.000 OA
ENDBRANCH  10  14
ENDBRANCH   3   7
BRANCH   1  20
ATOM     20  C   UNL     1      -1.173  11.427  23.106  0.00  0.00    +0.000 C 
BRANCH  20  23
ATOM     21  O   UNL     1      -3.794  11.802  24.010  0.00  0.00    +0.000 OA
ATOM     22  C   UNL     1      -3.156  12.801  23.681  0.00  0.00    +0.000 C 
ATOM     23  N   UNL     1      -1.872  12.693  23.192  0.00  0.00    +0.000 N 
ATOM     24  H   UNL     1      -1.340  13.549  23.074  0.00  0.00    +0.000 HD
BRANCH  22  25
ATOM     25  C   UNL     1      -3.681  14.155  23.793  0.00  0.00    +0.000 A 
ATOM     26  C   UNL     1      -4.640  14.744  22.986  0.00  0.00    +0.000 A 
ATOM     27  C   UNL     1      -4.949  16.080  23.382  0.00  0.00    +0.000 A 
ATOM     28  C   UNL     1      -4.195  16.459  24.462  0.00  0.00    +0.000 A 
ATOM     29 BR   UNL     1      -4.311  18.146  25.268  0.00  0.00    +0.000 Br
ATOM     30  S   UNL     1      -3.145  15.250  25.004  0.00  0.00    +0.000 S 
ENDBRANCH  22  25
ENDBRANCH  20  23
ENDBRANCH   1  20
TORSDOF 5
ENDMDL
