MODEL 1
REMARK VINA RESULT:      -7.5      0.000      0.000
REMARK  Name = 
REMARK  7 active torsions:
REMARK  status: ('A' for Active; 'I' for Inactive)
REMARK    1  A    between atoms: C_1  and  C_2
REMARK    2  A    between atoms: C_7  and  C_8
REMARK    3  A    between atoms: C_9  and  C_10
REMARK    4  A    between atoms: C_10  and  C_11
REMARK    5  A    between atoms: C_10  and  C_12
REMARK    6  A    between atoms: C_10  and  C_13
REMARK    7  A    between atoms: C_13  and  O_14
REMARK                            x       y       z     vdW  Elec       q    Type
REMARK                         _______ _______ _______ _____ _____    ______ ____
ROOT
ATOM      1  C   UNL     1       0.841  12.629  19.132  0.00  0.00    +0.000 C 
ATOM      2  C   UNL     1       1.271  11.212  18.977  0.00  0.00    +0.000 A 
ATOM      3  N   UNL     1       1.951  10.760  17.940  0.00  0.00    +0.000 NA
ATOM      4  C   UNL     1       2.193   9.439  18.197  0.00  0.00    +0.000 A 
ATOM      5  C   UNL     1       2.886   8.500  17.416  0.00  0.00    +0.000 A 
ATOM      6  C   UNL     1       2.994   7.178  17.871  0.00  0.00    +0.000 A 
ATOM      7  C   UNL     1       2.426   6.797  19.086  0.00  0.00    +0.000 A 
ATOM      8  C   UNL     1       1.754   7.729  19.884  0.00  0.00    +0.000 A 
ATOM      9  C   UNL     1       1.646   9.054  19.416  0.00  0.00    +0.000 A 
ATOM     10  N   UNL     1       1.046  10.207  19.918  0.00  0.00    +0.000 N 
ATOM     11  C   UNL     1       0.345  10.330  21.159  0.00  0.00    +0.000 A 
ATOM     12  N   UNL     1       0.333   9.276  21.979  0.00  0.00    +0.000 NA
ATOM     13  C   UNL     1      -0.306   9.463  23.125  0.00  0.00    +0.000 A 
ATOM     14  N   UNL     1      -0.930  10.575  23.494  0.00  0.00    +0.000 NA
ATOM     15  C   UNL     1      -0.860  11.561  22.615  0.00  0.00    +0.000 A 
ATOM     16  N   UNL     1      -1.497  12.739  22.937  0.00  0.00    +0.000 N 
ATOM     17  N   UNL     1      -0.255  11.491  21.443  0.00  0.00    +0.000 NA
ATOM     18  H   UNL     1      -2.215  12.575  23.628  0.00  0.00    +0.000 HD
ATOM     19  H   UNL     1      -1.762  13.252  22.108  0.00  0.00    +0.000 HD
ENDROOT
BRANCH   7  20
ATOM     20  C   UNL     1       2.514   5.437  19.527  0.00  0.00    +0.000 C 
ATOM     21  C   UNL     1       2.605   4.198  19.924  0.00  0.00    +0.000 C 
BRANCH  21  22
ATOM     22  C   UNL     1       2.710   2.753  20.386  0.00  0.00    +0.000 C 
ATOM     23  C   UNL     1       2.020   2.634  21.754  0.00  0.00    +0.000 C 
ATOM     24  C   UNL     1       1.996   1.856  19.368  0.00  0.00    +0.000 C 
BRANCH  22  25
ATOM     25  C   UNL     1       4.199   2.353  20.485  0.00  0.00    +0.000 C 
BRANCH  25  26
ATOM     26  O   UNL     1       4.967   2.815  19.375  0.00  0.00    +0.000 OA
ATOM     27  H   UNL     1       4.351   3.258  18.762  0.00  0.00    +0.000 HD
ENDBRANCH  25  26
ENDBRANCH  22  25
ENDBRANCH  21  22
ENDBRANCH   7  20
TORSDOF 4
ENDMDL
MODEL 2
REMARK VINA RESULT:      -7.3      0.627      1.094
REMARK  Name = 
REMARK  7 active torsions:
REMARK  status: ('A' for Active; 'I' for Inactive)
REMARK    1  A    between atoms: C_1  and  C_2
REMARK    2  A    between atoms: C_7  and  C_8
REMARK    3  A    between atoms: C_9  and  C_10
REMARK    4  A    between atoms: C_10  and  C_11
REMARK    5  A    between atoms: C_10  and  C_12
REMARK    6  A    between atoms: C_10  and  C_13
REMARK    7  A    between atoms: C_13  and  O_14
REMARK                            x       y       z     vdW  Elec       q    Type
REMARK                         _______ _______ _______ _____ _____    ______ ____
ROOT
ATOM      1  C   UNL     1       0.891  12.772  19.169  0.00  0.00    +0.000 C 
ATOM      2  C   UNL     1       1.286  11.346  19.000  0.00  0.00    +0.000 A 
ATOM      3  N   UNL     1       1.967  10.890  17.966  0.00  0.00    +0.000 NA
ATOM      4  C   UNL     1       2.171   9.560  18.208  0.00  0.00    +0.000 A 
ATOM      5  C   UNL     1       2.848   8.613  17.424  0.00  0.00    +0.000 A 
ATOM      6  C   UNL     1       2.916   7.282  17.863  0.00  0.00    +0.000 A 
ATOM      7  C   UNL     1       2.322   6.901  19.066  0.00  0.00    +0.000 A 
ATOM      8  C   UNL     1       1.664   7.840  19.867  0.00  0.00    +0.000 A 
ATOM      9  C   UNL     1       1.598   9.173  19.415  0.00  0.00    +0.000 A 
ATOM     10  N   UNL     1       1.022  10.336  19.924  0.00  0.00    +0.000 N 
ATOM     11  C   UNL     1       0.308  10.461  21.158  0.00  0.00    +0.000 A 
ATOM     12  N   UNL     1       0.259   9.397  21.964  0.00  0.00    +0.000 NA
ATOM     13  C   UNL     1      -0.391   9.586  23.105  0.00  0.00    +0.000 A 
ATOM     14  N   UNL     1      -0.989  10.710  23.480  0.00  0.00    +0.000 NA
ATOM     15  C   UNL     1      -0.882  11.704  22.616  0.00  0.00    +0.000 A 
ATOM     16  N   UNL     1      -1.492  12.895  22.945  0.00  0.00    +0.000 N 
ATOM     17  N   UNL     1      -0.264  11.633  21.450  0.00  0.00    +0.000 NA
ATOM     18  H   UNL     1      -2.223  12.742  23.625  0.00  0.00    +0.000 HD
ATOM     19  H   UNL     1      -1.733  13.425  22.120  0.00  0.00    +0.000 HD
ENDROOT
BRANCH   7  20
ATOM     20  C   UNL     1       2.368   5.533  19.490  0.00  0.00    +0.000 C 
ATOM     21  C   UNL     1       2.422   4.290  19.879  0.00  0.00    +0.000 C 
BRANCH  21  22
ATOM     22  C   UNL     1       2.484   2.840  20.333  0.00  0.00    +0.000 C 
ATOM     23  C   UNL     1       3.960   2.426  20.426  0.00  0.00    +0.000 C 
ATOM     24  C   UNL     1       1.829   2.727  21.715  0.00  0.00    +0.000 C 
BRANCH  22  25
ATOM     25  C   UNL     1       1.727   1.953  19.320  0.00  0.00    +0.000 C 
BRANCH  25  26
ATOM     26  O   UNL     1       2.572   1.456  18.284  0.00  0.00    +0.000 OA
ATOM     27  H   UNL     1       2.037   1.413  17.470  0.00  0.00    +0.000 HD
ENDBRANCH  25  26
ENDBRANCH  22  25
ENDBRANCH  21  22
ENDBRANCH   7  20
TORSDOF 4
ENDMDL
MODEL 3
REMARK VINA RESULT:      -7.2      4.471      8.485
REMARK  Name = 
REMARK  7 active torsions:
REMARK  status: ('A' for Active; 'I' for Inactive)
REMARK    1  A    between atoms: C_1  and  C_2
REMARK    2  A    between atoms: C_7  and  C_8
REMARK    3  A    between atoms: C_9  and  C_10
REMARK    4  A    between atoms: C_10  and  C_11
REMARK    5  A    between atoms: C_10  and  C_12
REMARK    6  A    between atoms: C_10  and  C_13
REMARK    7  A    between atoms: C_13  and  O_14
REMARK                            x       y       z     vdW  Elec       q    Type
REMARK                         _______ _______ _______ _____ _____    ______ ____
ROOT
ATOM      1  C   UNL     1       4.028   2.595  18.630  0.00  0.00    +0.000 C 
ATOM      2  C   UNL     1       3.366   3.874  19.005  0.00  0.00    +0.000 A 
ATOM      3  N   UNL     1       2.576   4.014  20.052  0.00  0.00    +0.000 NA
ATOM      4  C   UNL     1       2.217   5.333  20.079  0.00  0.00    +0.000 A 
ATOM      5  C   UNL     1       1.394   6.006  20.996  0.00  0.00    +0.000 A 
ATOM      6  C   UNL     1       1.143   7.374  20.814  0.00  0.00    +0.000 A 
ATOM      7  C   UNL     1       1.705   8.063  19.740  0.00  0.00    +0.000 A 
ATOM      8  C   UNL     1       2.546   7.408  18.833  0.00  0.00    +0.000 A 
ATOM      9  C   UNL     1       2.789   6.033  19.021  0.00  0.00    +0.000 A 
ATOM     10  N   UNL     1       3.532   5.081  18.325  0.00  0.00    +0.000 N 
ATOM     11  C   UNL     1       4.314   5.308  17.148  0.00  0.00    +0.000 A 
ATOM     12  N   UNL     1       4.438   6.564  16.711  0.00  0.00    +0.000 NA
ATOM     13  C   UNL     1       5.200   6.711  15.636  0.00  0.00    +0.000 A 
ATOM     14  N   UNL     1       5.809   5.734  14.976  0.00  0.00    +0.000 NA
ATOM     15  C   UNL     1       5.626   4.528  15.487  0.00  0.00    +0.000 A 
ATOM     16  N   UNL     1       6.225   3.470  14.841  0.00  0.00    +0.000 N 
ATOM     17  N   UNL     1       4.888   4.259  16.551  0.00  0.00    +0.000 NA
ATOM     18  H   UNL     1       6.426   3.711  13.880  0.00  0.00    +0.000 HD
ATOM     19  H   UNL     1       5.726   2.608  15.005  0.00  0.00    +0.000 HD
ENDROOT
BRANCH   7  20
ATOM     20  C   UNL     1       1.417   9.452  19.545  0.00  0.00    +0.000 C 
ATOM     21  C   UNL     1       1.145  10.716  19.374  0.00  0.00    +0.000 C 
BRANCH  21  22
ATOM     22  C   UNL     1       0.830  12.190  19.175  0.00  0.00    +0.000 C 
ATOM     23  C   UNL     1      -0.497  12.300  18.408  0.00  0.00    +0.000 C 
ATOM     24  C   UNL     1       0.687  12.854  20.550  0.00  0.00    +0.000 C 
BRANCH  22  25
ATOM     25  C   UNL     1       1.978  12.859  18.387  0.00  0.00    +0.000 C 
BRANCH  25  26
ATOM     26  O   UNL     1       2.605  11.967  17.466  0.00  0.00    +0.000 OA
ATOM     27  H   UNL     1       2.555  12.381  16.585  0.00  0.00    +0.000 HD
ENDBRANCH  25  26
ENDBRANCH  22  25
ENDBRANCH  21  22
ENDBRANCH   7  20
TORSDOF 4
ENDMDL
MODEL 4
REMARK VINA RESULT:      -7.2      0.986      1.294
REMARK  Name = 
REMARK  7 active torsions:
REMARK  status: ('A' for Active; 'I' for Inactive)
REMARK    1  A    between atoms: C_1  and  C_2
REMARK    2  A    between atoms: C_7  and  C_8
REMARK    3  A    between atoms: C_9  and  C_10
REMARK    4  A    between atoms: C_10  and  C_11
REMARK    5  A    between atoms: C_10  and  C_12
REMARK    6  A    between atoms: C_10  and  C_13
REMARK    7  A    between atoms: C_13  and  O_14
REMARK                            x       y       z     vdW  Elec       q    Type
REMARK                         _______ _______ _______ _____ _____    ______ ____
ROOT
ATOM      1  C   UNL     1       0.787  12.734  19.218  0.00  0.00    +0.000 C 
ATOM      2  C   UNL     1       1.230  11.326  19.026  0.00  0.00    +0.000 A 
ATOM      3  N   UNL     1       1.911  10.906  17.976  0.00  0.00    +0.000 NA
ATOM      4  C   UNL     1       2.166   9.581  18.200  0.00  0.00    +0.000 A 
ATOM      5  C   UNL     1       2.865   8.668  17.394  0.00  0.00    +0.000 A 
ATOM      6  C   UNL     1       2.986   7.336  17.816  0.00  0.00    +0.000 A 
ATOM      7  C   UNL     1       2.424   6.919  19.023  0.00  0.00    +0.000 A 
ATOM      8  C   UNL     1       1.745   7.826  19.845  0.00  0.00    +0.000 A 
ATOM      9  C   UNL     1       1.625   9.160  19.410  0.00  0.00    +0.000 A 
ATOM     10  N   UNL     1       1.016  10.295  19.942  0.00  0.00    +0.000 N 
ATOM     11  C   UNL     1       0.317  10.381  21.187  0.00  0.00    +0.000 A 
ATOM     12  N   UNL     1       0.317   9.307  21.981  0.00  0.00    +0.000 NA
ATOM     13  C   UNL     1      -0.322   9.460  23.133  0.00  0.00    +0.000 A 
ATOM     14  N   UNL     1      -0.954  10.556  23.531  0.00  0.00    +0.000 NA
ATOM     15  C   UNL     1      -0.896  11.564  22.677  0.00  0.00    +0.000 A 
ATOM     16  N   UNL     1      -1.542  12.728  23.029  0.00  0.00    +0.000 N 
ATOM     17  N   UNL     1      -0.293  11.529  21.501  0.00  0.00    +0.000 NA
ATOM     18  H   UNL     1      -2.257  12.541  23.718  0.00  0.00    +0.000 HD
ATOM     19  H   UNL     1      -1.814  13.259  22.214  0.00  0.00    +0.000 HD
ENDROOT
BRANCH   7  20
ATOM     20  C   UNL     1       2.525   5.549  19.430  0.00  0.00    +0.000 C 
ATOM     21  C   UNL     1       2.627   4.301  19.792  0.00  0.00    +0.000 C 
BRANCH  21  22
ATOM     22  C   UNL     1       2.744   2.846  20.216  0.00  0.00    +0.000 C 
ATOM     23  C   UNL     1       1.839   2.003  19.304  0.00  0.00    +0.000 C 
ATOM     24  C   UNL     1       4.201   2.399  20.050  0.00  0.00    +0.000 C 
BRANCH  22  25
ATOM     25  C   UNL     1       2.318   2.706  21.694  0.00  0.00    +0.000 C 
BRANCH  25  26
ATOM     26  O   UNL     1       0.903   2.612  21.852  0.00  0.00    +0.000 OA
ATOM     27  H   UNL     1       0.727   2.490  22.804  0.00  0.00    +0.000 HD
ENDBRANCH  25  26
ENDBRANCH  22  25
ENDBRANCH  21  22
ENDBRANCH   7  20
TORSDOF 4
ENDMDL
MODEL 5
REMARK VINA RESULT:      -7.1      4.774      8.625
REMARK  Name = 
REMARK  7 active torsions:
REMARK  status: ('A' for Active; 'I' for Inactive)
REMARK    1  A    between atoms: C_1  and  C_2
REMARK    2  A    between atoms: C_7  and  C_8
REMARK    3  A    between atoms: C_9  and  C_10
REMARK    4  A    between atoms: C_10  and  C_11
REMARK    5  A    between atoms: C_10  and  C_12
REMARK    6  A    between atoms: C_10  and  C_13
REMARK    7  A    between atoms: C_13  and  O_14
REMARK                            x       y       z     vdW  Elec       q    Type
REMARK                         _______ _______ _______ _____ _____    ______ ____
ROOT
ATOM      1  C   UNL     1       4.162   2.509  18.550  0.00  0.00    +0.000 C 
ATOM      2  C   UNL     1       3.471   3.766  18.949  0.00  0.00    +0.000 A 
ATOM      3  N   UNL     1       2.681   3.869  20.002  0.00  0.00    +0.000 NA
ATOM      4  C   UNL     1       2.290   5.178  20.052  0.00  0.00    +0.000 A 
ATOM      5  C   UNL     1       1.455   5.815  20.983  0.00  0.00    +0.000 A 
ATOM      6  C   UNL     1       1.169   7.180  20.824  0.00  0.00    +0.000 A 
ATOM      7  C   UNL     1       1.709   7.899  19.759  0.00  0.00    +0.000 A 
ATOM      8  C   UNL     1       2.562   7.280  18.838  0.00  0.00    +0.000 A 
ATOM      9  C   UNL     1       2.839   5.909  19.003  0.00  0.00    +0.000 A 
ATOM     10  N   UNL     1       3.602   4.988  18.288  0.00  0.00    +0.000 N 
ATOM     11  C   UNL     1       4.373   5.252  17.112  0.00  0.00    +0.000 A 
ATOM     12  N   UNL     1       4.464   6.518  16.694  0.00  0.00    +0.000 NA
ATOM     13  C   UNL     1       5.217   6.701  15.619  0.00  0.00    +0.000 A 
ATOM     14  N   UNL     1       5.847   5.750  14.940  0.00  0.00    +0.000 NA
ATOM     15  C   UNL     1       5.696   4.533  15.433  0.00  0.00    +0.000 A 
ATOM     16  N   UNL     1       6.319   3.501  14.767  0.00  0.00    +0.000 N 
ATOM     17  N   UNL     1       4.971   4.229  16.495  0.00  0.00    +0.000 NA
ATOM     18  H   UNL     1       6.510   3.762  13.809  0.00  0.00    +0.000 HD
ATOM     19  H   UNL     1       5.842   2.624  14.920  0.00  0.00    +0.000 HD
ENDROOT
BRANCH   7  20
ATOM     20  C   UNL     1       1.385   9.284  19.588  0.00  0.00    +0.000 C 
ATOM     21  C   UNL     1       1.097  10.545  19.422  0.00  0.00    +0.000 C 
BRANCH  21  22
ATOM     22  C   UNL     1       0.760  12.015  19.230  0.00  0.00    +0.000 C 
ATOM     23  C   UNL     1       0.748  12.692  20.609  0.00  0.00    +0.000 C 
ATOM     24  C   UNL     1       1.839  12.658  18.350  0.00  0.00    +0.000 C 
BRANCH  22  25
ATOM     25  C   UNL     1      -0.619  12.140  18.544  0.00  0.00    +0.000 C 
BRANCH  25  26
ATOM     26  O   UNL     1      -0.801  13.400  17.900  0.00  0.00    +0.000 OA
ATOM     27  H   UNL     1       0.030  13.609  17.435  0.00  0.00    +0.000 HD
ENDBRANCH  25  26
ENDBRANCH  22  25
ENDBRANCH  21  22
ENDBRANCH   7  20
TORSDOF 4
ENDMDL
MODEL 6
REMARK VINA RESULT:      -7.0      4.680      8.559
REMARK  Name = 
REMARK  7 active torsions:
REMARK  status: ('A' for Active; 'I' for Inactive)
REMARK    1  A    between atoms: C_1  and  C_2
REMARK    2  A    between atoms: C_7  and  C_8
REMARK    3  A    between atoms: C_9  and  C_10
REMARK    4  A    between atoms: C_10  and  C_11
REMARK    5  A    between atoms: C_10  and  C_12
REMARK    6  A    between atoms: C_10  and  C_13
REMARK    7  A    between atoms: C_13  and  O_14
REMARK                            x       y       z     vdW  Elec       q    Type
REMARK                         _______ _______ _______ _____ _____    ______ ____
ROOT
ATOM      1  C   UNL     1       4.160   2.315  18.312  0.00  0.00    +0.000 C 
ATOM      2  C   UNL     1       3.492   3.566  18.765  0.00  0.00    +0.000 A 
ATOM      3  N   UNL     1       2.709   3.639  19.826  0.00  0.00    +0.000 NA
ATOM      4  C   UNL     1       2.341   4.952  19.932  0.00  0.00    +0.000 A 
ATOM      5  C   UNL     1       1.521   5.565  20.892  0.00  0.00    +0.000 A 
ATOM      6  C   UNL     1       1.258   6.939  20.791  0.00  0.00    +0.000 A 
ATOM      7  C   UNL     1       1.805   7.692  19.753  0.00  0.00    +0.000 A 
ATOM      8  C   UNL     1       2.644   7.097  18.803  0.00  0.00    +0.000 A 
ATOM      9  C   UNL     1       2.898   5.715  18.911  0.00  0.00    +0.000 A 
ATOM     10  N   UNL     1       3.642   4.812  18.155  0.00  0.00    +0.000 N 
ATOM     11  C   UNL     1       4.412   5.111  16.986  0.00  0.00    +0.000 A 
ATOM     12  N   UNL     1       4.523   6.391  16.620  0.00  0.00    +0.000 NA
ATOM     13  C   UNL     1       5.274   6.605  15.549  0.00  0.00    +0.000 A 
ATOM     14  N   UNL     1       5.884   5.672  14.829  0.00  0.00    +0.000 NA
ATOM     15  C   UNL     1       5.715   4.438  15.272  0.00  0.00    +0.000 A 
ATOM     16  N   UNL     1       6.317   3.424  14.561  0.00  0.00    +0.000 N 
ATOM     17  N   UNL     1       4.989   4.103  16.325  0.00  0.00    +0.000 NA
ATOM     18  H   UNL     1       6.507   3.721  13.614  0.00  0.00    +0.000 HD
ATOM     19  H   UNL     1       5.825   2.549  14.681  0.00  0.00    +0.000 HD
ENDROOT
BRANCH   7  20
ATOM     20  C   UNL     1       1.505   9.088  19.640  0.00  0.00    +0.000 C 
ATOM     21  C   UNL     1       1.230  10.359  19.549  0.00  0.00    +0.000 C 
BRANCH  21  22
ATOM     22  C   UNL     1       0.909  11.842  19.441  0.00  0.00    +0.000 C 
ATOM     23  C   UNL     1       1.974  12.502  18.552  0.00  0.00    +0.000 C 
ATOM     24  C   UNL     1      -0.473  12.003  18.797  0.00  0.00    +0.000 C 
BRANCH  22  25
ATOM     25  C   UNL     1       0.906  12.470  20.853  0.00  0.00    +0.000 C 
BRANCH  25  26
ATOM     26  O   UNL     1       0.322  11.614  21.834  0.00  0.00    +0.000 OA
ATOM     27  H   UNL     1      -0.585  11.933  21.992  0.00  0.00    +0.000 HD
ENDBRANCH  25  26
ENDBRANCH  22  25
ENDBRANCH  21  22
ENDBRANCH   7  20
TORSDOF 4
ENDMDL
MODEL 7
REMARK VINA RESULT:      -6.8      5.442      7.976
REMARK  Name = 
REMARK  7 active torsions:
REMARK  status: ('A' for Active; 'I' for Inactive)
REMARK    1  A    between atoms: C_1  and  C_2
REMARK    2  A    between atoms: C_7  and  C_8
REMARK    3  A    between atoms: C_9  and  C_10
REMARK    4  A    between atoms: C_10  and  C_11
REMARK    5  A    between atoms: C_10  and  C_12
REMARK    6  A    between atoms: C_10  and  C_13
REMARK    7  A    between atoms: C_13  and  O_14
REMARK                            x       y       z     vdW  Elec       q    Type
REMARK                         _______ _______ _______ _____ _____    ______ ____
ROOT
ATOM      1  C   UNL     1       3.168   2.520  17.214  0.00  0.00    +0.000 C 
ATOM      2  C   UNL     1       4.241   3.549  17.131  0.00  0.00    +0.000 A 
ATOM      3  N   UNL     1       5.268   3.476  16.305  0.00  0.00    +0.000 NA
ATOM      4  C   UNL     1       5.986   4.623  16.497  0.00  0.00    +0.000 A 
ATOM      5  C   UNL     1       7.165   5.043  15.861  0.00  0.00    +0.000 A 
ATOM      6  C   UNL     1       7.748   6.263  16.237  0.00  0.00    +0.000 A 
ATOM      7  C   UNL     1       7.165   7.054  17.226  0.00  0.00    +0.000 A 
ATOM      8  C   UNL     1       5.977   6.657  17.850  0.00  0.00    +0.000 A 
ATOM      9  C   UNL     1       5.402   5.428  17.469  0.00  0.00    +0.000 A 
ATOM     10  N   UNL     1       4.270   4.726  17.880  0.00  0.00    +0.000 N 
ATOM     11  C   UNL     1       3.325   5.140  18.871  0.00  0.00    +0.000 A 
ATOM     12  N   UNL     1       3.466   6.359  19.400  0.00  0.00    +0.000 NA
ATOM     13  C   UNL     1       2.542   6.695  20.289  0.00  0.00    +0.000 A 
ATOM     14  N   UNL     1       1.536   5.929  20.692  0.00  0.00    +0.000 NA
ATOM     15  C   UNL     1       1.482   4.743  20.109  0.00  0.00    +0.000 A 
ATOM     16  N   UNL     1       0.465   3.897  20.493  0.00  0.00    +0.000 N 
ATOM     17  N   UNL     1       2.346   4.298  19.214  0.00  0.00    +0.000 NA
ATOM     18  H   UNL     1       0.115   4.155  21.405  0.00  0.00    +0.000 HD
ATOM     19  H   UNL     1       0.719   2.929  20.353  0.00  0.00    +0.000 HD
ENDROOT
BRANCH   7  20
ATOM     20  C   UNL     1       7.785   8.282  17.625  0.00  0.00    +0.000 C 
ATOM     21  C   UNL     1       8.347   9.404  17.977  0.00  0.00    +0.000 C 
BRANCH  21  22
ATOM     22  C   UNL     1       9.002  10.713  18.389  0.00  0.00    +0.000 C 
ATOM     23  C   UNL     1       9.126  10.729  19.921  0.00  0.00    +0.000 C 
ATOM     24  C   UNL     1      10.398  10.786  17.759  0.00  0.00    +0.000 C 
BRANCH  22  25
ATOM     25  C   UNL     1       8.141  11.896  17.895  0.00  0.00    +0.000 C 
BRANCH  25  26
ATOM     26  O   UNL     1       8.924  12.959  17.353  0.00  0.00    +0.000 OA
ATOM     27  H   UNL     1       8.344  13.471  16.761  0.00  0.00    +0.000 HD
ENDBRANCH  25  26
ENDBRANCH  22  25
ENDBRANCH  21  22
ENDBRANCH   7  20
TORSDOF 4
ENDMDL
MODEL 8
REMARK VINA RESULT:      -6.7      2.260      4.611
REMARK  Name = 
REMARK  7 active torsions:
REMARK  status: ('A' for Active; 'I' for Inactive)
REMARK    1  A    between atoms: C_1  and  C_2
REMARK    2  A    between atoms: C_7  and  C_8
REMARK    3  A    between atoms: C_9  and  C_10
REMARK    4  A    between atoms: C_10  and  C_11
REMARK    5  A    between atoms: C_10  and  C_12
REMARK    6  A    between atoms: C_10  and  C_13
REMARK    7  A    between atoms: C_13  and  O_14
REMARK                            x       y       z     vdW  Elec       q    Type
REMARK                         _______ _______ _______ _____ _____    ______ ____
ROOT
ATOM      1  C   UNL     1      -0.493  14.681  22.053  0.00  0.00    +0.000 C 
ATOM      2  C   UNL     1      -0.271  13.209  22.027  0.00  0.00    +0.000 A 
ATOM      3  N   UNL     1      -0.828  12.367  22.878  0.00  0.00    +0.000 NA
ATOM      4  C   UNL     1      -0.419  11.120  22.493  0.00  0.00    +0.000 A 
ATOM      5  C   UNL     1      -0.733   9.874  23.059  0.00  0.00    +0.000 A 
ATOM      6  C   UNL     1      -0.177   8.711  22.506  0.00  0.00    +0.000 A 
ATOM      7  C   UNL     1       0.676   8.786  21.405  0.00  0.00    +0.000 A 
ATOM      8  C   UNL     1       0.977  10.020  20.818  0.00  0.00    +0.000 A 
ATOM      9  C   UNL     1       0.417  11.183  21.384  0.00  0.00    +0.000 A 
ATOM     10  N   UNL     1       0.512  12.541  21.086  0.00  0.00    +0.000 N 
ATOM     11  C   UNL     1       1.264  13.127  20.019  0.00  0.00    +0.000 A 
ATOM     12  N   UNL     1       1.862  12.307  19.150  0.00  0.00    +0.000 NA
ATOM     13  C   UNL     1       2.516  12.911  18.168  0.00  0.00    +0.000 A 
ATOM     14  N   UNL     1       2.631  14.223  18.002  0.00  0.00    +0.000 NA
ATOM     15  C   UNL     1       2.003  14.948  18.912  0.00  0.00    +0.000 A 
ATOM     16  N   UNL     1       2.093  16.318  18.800  0.00  0.00    +0.000 N 
ATOM     17  N   UNL     1       1.323  14.460  19.935  0.00  0.00    +0.000 NA
ATOM     18  H   UNL     1       2.904  16.575  18.254  0.00  0.00    +0.000 HD
ATOM     19  H   UNL     1       1.977  16.769  19.696  0.00  0.00    +0.000 HD
ENDROOT
BRANCH   7  20
ATOM     20  C   UNL     1       1.265   7.596  20.868  0.00  0.00    +0.000 C 
ATOM     21  C   UNL     1       1.791   6.507  20.383  0.00  0.00    +0.000 C 
BRANCH  21  22
ATOM     22  C   UNL     1       2.406   5.237  19.816  0.00  0.00    +0.000 C 
ATOM     23  C   UNL     1       1.750   4.948  18.457  0.00  0.00    +0.000 C 
ATOM     24  C   UNL     1       3.911   5.460  19.624  0.00  0.00    +0.000 C 
BRANCH  22  25
ATOM     25  C   UNL     1       2.171   4.070  20.800  0.00  0.00    +0.000 C 
BRANCH  25  26
ATOM     26  O   UNL     1       0.834   3.574  20.755  0.00  0.00    +0.000 OA
ATOM     27  H   UNL     1       0.290   4.161  21.312  0.00  0.00    +0.000 HD
ENDBRANCH  25  26
ENDBRANCH  22  25
ENDBRANCH  21  22
ENDBRANCH   7  20
TORSDOF 4
ENDMDL
MODEL 9
REMARK VINA RESULT:      -6.6      7.643      8.244
REMARK  Name = 
REMARK  7 active torsions:
REMARK  status: ('A' for Active; 'I' for Inactive)
REMARK    1  A    between atoms: C_1  and  C_2
REMARK    2  A    between atoms: C_7  and  C_8
REMARK    3  A    between atoms: C_9  and  C_10
REMARK    4  A    between atoms: C_10  and  C_11
REMARK    5  A    between atoms: C_10  and  C_12
REMARK    6  A    between atoms: C_10  and  C_13
REMARK    7  A    between atoms: C_13  and  O_14
REMARK                            x       y       z     vdW  Elec       q    Type
REMARK                         _______ _______ _______ _____ _____    ______ ____
ROOT
ATOM      1  C   UNL     1      10.643  15.232  21.552  0.00  0.00    +0.000 C 
ATOM      2  C   UNL     1      10.328  14.051  20.703  0.00  0.00    +0.000 A 
ATOM      3  N   UNL     1      10.795  13.879  19.480  0.00  0.00    +0.000 NA
ATOM      4  C   UNL     1      10.322  12.665  19.065  0.00  0.00    +0.000 A 
ATOM      5  C   UNL     1      10.533  12.006  17.844  0.00  0.00    +0.000 A 
ATOM      6  C   UNL     1       9.924  10.761  17.623  0.00  0.00    +0.000 A 
ATOM      7  C   UNL     1       9.122  10.180  18.605  0.00  0.00    +0.000 A 
ATOM      8  C   UNL     1       8.924  10.816  19.835  0.00  0.00    +0.000 A 
ATOM      9  C   UNL     1       9.536  12.068  20.045  0.00  0.00    +0.000 A 
ATOM     10  N   UNL     1       9.540  12.972  21.105  0.00  0.00    +0.000 N 
ATOM     11  C   UNL     1       8.871  12.815  22.360  0.00  0.00    +0.000 A 
ATOM     12  N   UNL     1       8.255  11.654  22.600  0.00  0.00    +0.000 NA
ATOM     13  C   UNL     1       7.680  11.560  23.791  0.00  0.00    +0.000 A 
ATOM     14  N   UNL     1       7.657  12.508  24.720  0.00  0.00    +0.000 NA
ATOM     15  C   UNL     1       8.294  13.617  24.388  0.00  0.00    +0.000 A 
ATOM     16  N   UNL     1       8.297  14.643  25.308  0.00  0.00    +0.000 N 
ATOM     17  N   UNL     1       8.900  13.827  23.233  0.00  0.00    +0.000 NA
ATOM     18  H   UNL     1       7.527  14.541  25.953  0.00  0.00    +0.000 HD
ATOM     19  H   UNL     1       8.407  15.540  24.857  0.00  0.00    +0.000 HD
ENDROOT
BRANCH   7  20
ATOM     20  C   UNL     1       8.479   8.924  18.358  0.00  0.00    +0.000 C 
ATOM     21  C   UNL     1       7.895   7.783  18.122  0.00  0.00    +0.000 C 
BRANCH  21  22
ATOM     22  C   UNL     1       7.213   6.451  17.848  0.00  0.00    +0.000 C 
ATOM     23  C   UNL     1       5.712   6.610  18.133  0.00  0.00    +0.000 C 
ATOM     24  C   UNL     1       7.421   6.085  16.373  0.00  0.00    +0.000 C 
BRANCH  22  25
ATOM     25  C   UNL     1       7.833   5.362  18.751  0.00  0.00    +0.000 C 
BRANCH  25  26
ATOM     26  O   UNL     1       7.712   5.665  20.140  0.00  0.00    +0.000 OA
ATOM     27  H   UNL     1       6.768   5.588  20.371  0.00  0.00    +0.000 HD
ENDBRANCH  25  26
ENDBRANCH  22  25
ENDBRANCH  21  22
ENDBRANCH   7  20
TORSDOF 4
ENDMDL
