MODEL 1
REMARK VINA RESULT:      -5.8      0.000      0.000
REMARK  Name = 
REMARK  4 active torsions:
REMARK  status: ('A' for Active; 'I' for Inactive)
REMARK    1  A    between atoms: C_2  and  C_3
REMARK    2  A    between atoms: C_3  and  N_4
REMARK    3  A    between atoms: N_4  and  C_5
REMARK    4  A    between atoms: C_11  and  O_12
REMARK                            x       y       z     vdW  Elec       q    Type
REMARK                         _______ _______ _______ _____ _____    ______ ____
ROOT
ATOM      1  N   UNL     1       3.357   4.956  19.095  0.00  0.00    +0.000 N 
ATOM      2  C   UNL     1       4.877   5.227  19.215  0.00  0.00    +0.000 C 
ATOM      3  C   UNL     1       2.897   4.360  17.766  0.00  0.00    +0.000 C 
ATOM      4  C   UNL     1       1.420   4.059  18.034  0.00  0.00    +0.000 C 
ATOM      5  C   UNL     1       1.274   4.022  19.552  0.00  0.00    +0.000 C 
ATOM      6  C   UNL     1       2.755   3.883  20.195  0.00  0.00    +0.000 C 
ATOM      7  C   UNL     1       3.848   2.708  19.965  0.00  0.00    +0.000 C 
ATOM      8  C   UNL     1       3.780   2.090  18.559  0.00  0.00    +0.000 C 
ATOM      9  C   UNL     1       3.751   3.126  17.437  0.00  0.00    +0.000 C 
ENDROOT
BRANCH   8  10
ATOM     10  O   UNL     1       2.583   1.338  18.443  0.00  0.00    +0.000 OA
ATOM     11  H   UNL     1       1.842   1.821  18.877  0.00  0.00    +0.000 HD
ENDBRANCH   8  10
BRANCH   1  12
ATOM     12  C   UNL     1       2.746   6.409  19.310  0.00  0.00    +0.000 C 
BRANCH  12  14
ATOM     13  C   UNL     1       2.086   8.361  17.870  0.00  0.00    +0.000 C 
ATOM     14  C   UNL     1       2.935   7.369  18.167  0.00  0.00    +0.000 C 
ENDBRANCH  12  14
ENDBRANCH   1  12
TORSDOF 3
ENDMDL
MODEL 2
REMARK VINA RESULT:      -5.7      1.863      2.793
REMARK  Name = 
REMARK  4 active torsions:
REMARK  status: ('A' for Active; 'I' for Inactive)
REMARK    1  A    between atoms: C_2  and  C_3
REMARK    2  A    between atoms: C_3  and  N_4
REMARK    3  A    between atoms: N_4  and  C_5
REMARK    4  A    between atoms: C_11  and  O_12
REMARK                            x       y       z     vdW  Elec       q    Type
REMARK                         _______ _______ _______ _____ _____    ______ ____
ROOT
ATOM      1  N   UNL     1       3.643   4.270  18.591  0.00  0.00    +0.000 N 
ATOM      2  C   UNL     1       4.834   4.858  19.387  0.00  0.00    +0.000 C 
ATOM      3  C   UNL     1       3.228   2.852  18.978  0.00  0.00    +0.000 C 
ATOM      4  C   UNL     1       1.953   2.646  18.154  0.00  0.00    +0.000 C 
ATOM      5  C   UNL     1       1.472   4.044  17.780  0.00  0.00    +0.000 C 
ATOM      6  C   UNL     1       2.229   5.109  18.739  0.00  0.00    +0.000 C 
ATOM      7  C   UNL     1       2.206   5.202  20.357  0.00  0.00    +0.000 C 
ATOM      8  C   UNL     1       2.059   3.831  21.037  0.00  0.00    +0.000 C 
ATOM      9  C   UNL     1       3.024   2.777  20.499  0.00  0.00    +0.000 C 
ENDROOT
BRANCH   8  10
ATOM     10  O   UNL     1       0.751   3.337  20.800  0.00  0.00    +0.000 OA
ATOM     11  H   UNL     1       0.801   2.450  20.375  0.00  0.00    +0.000 HD
ENDBRANCH   8  10
BRANCH   1  12
ATOM     12  C   UNL     1       4.189   4.316  17.098  0.00  0.00    +0.000 C 
BRANCH  12  14
ATOM     13  C   UNL     1       5.468   5.827  15.548  0.00  0.00    +0.000 C 
ATOM     14  C   UNL     1       4.712   5.650  16.639  0.00  0.00    +0.000 C 
ENDBRANCH  12  14
ENDBRANCH   1  12
TORSDOF 3
ENDMDL
MODEL 3
REMARK VINA RESULT:      -5.6      1.846      3.090
REMARK  Name = 
REMARK  4 active torsions:
REMARK  status: ('A' for Active; 'I' for Inactive)
REMARK    1  A    between atoms: C_2  and  C_3
REMARK    2  A    between atoms: C_3  and  N_4
REMARK    3  A    between atoms: N_4  and  C_5
REMARK    4  A    between atoms: C_11  and  O_12
REMARK                            x       y       z     vdW  Elec       q    Type
REMARK                         _______ _______ _______ _____ _____    ______ ____
ROOT
ATOM      1  N   UNL     1       3.667   3.478  18.872  0.00  0.00    +0.000 N 
ATOM      2  C   UNL     1       4.518   2.446  19.650  0.00  0.00    +0.000 C 
ATOM      3  C   UNL     1       2.414   2.924  18.195  0.00  0.00    +0.000 C 
ATOM      4  C   UNL     1       1.729   4.194  17.681  0.00  0.00    +0.000 C 
ATOM      5  C   UNL     1       2.323   5.341  18.491  0.00  0.00    +0.000 C 
ATOM      6  C   UNL     1       3.062   4.710  19.789  0.00  0.00    +0.000 C 
ATOM      7  C   UNL     1       2.424   3.802  20.970  0.00  0.00    +0.000 C 
ATOM      8  C   UNL     1       1.269   2.911  20.486  0.00  0.00    +0.000 C 
ATOM      9  C   UNL     1       1.594   2.125  19.218  0.00  0.00    +0.000 C 
ENDROOT
BRANCH   8  10
ATOM     10  O   UNL     1       0.153   3.730  20.176  0.00  0.00    +0.000 OA
ATOM     11  H   UNL     1      -0.347   3.342  19.422  0.00  0.00    +0.000 HD
ENDBRANCH   8  10
BRANCH   1  12
ATOM     12  C   UNL     1       4.706   4.016  17.794  0.00  0.00    +0.000 C 
BRANCH  12  14
ATOM     13  C   UNL     1       7.115   4.717  17.633  0.00  0.00    +0.000 C 
ATOM     14  C   UNL     1       5.994   4.561  18.349  0.00  0.00    +0.000 C 
ENDBRANCH  12  14
ENDBRANCH   1  12
TORSDOF 3
ENDMDL
MODEL 4
REMARK VINA RESULT:      -5.5      1.873      3.321
REMARK  Name = 
REMARK  4 active torsions:
REMARK  status: ('A' for Active; 'I' for Inactive)
REMARK    1  A    between atoms: C_2  and  C_3
REMARK    2  A    between atoms: C_3  and  N_4
REMARK    3  A    between atoms: N_4  and  C_5
REMARK    4  A    between atoms: C_11  and  O_12
REMARK                            x       y       z     vdW  Elec       q    Type
REMARK                         _______ _______ _______ _____ _____    ______ ____
ROOT
ATOM      1  N   UNL     1       2.950   4.402  18.982  0.00  0.00    +0.000 N 
ATOM      2  C   UNL     1       3.058   5.716  19.794  0.00  0.00    +0.000 C 
ATOM      3  C   UNL     1       3.027   4.556  17.465  0.00  0.00    +0.000 C 
ATOM      4  C   UNL     1       3.067   3.101  16.988  0.00  0.00    +0.000 C 
ATOM      5  C   UNL     1       3.506   2.281  18.196  0.00  0.00    +0.000 C 
ATOM      6  C   UNL     1       4.138   3.298  19.290  0.00  0.00    +0.000 C 
ATOM      7  C   UNL     1       5.404   4.297  19.123  0.00  0.00    +0.000 C 
ATOM      8  C   UNL     1       5.563   4.833  17.691  0.00  0.00    +0.000 C 
ATOM      9  C   UNL     1       4.268   5.383  17.098  0.00  0.00    +0.000 C 
ENDROOT
BRANCH   8  10
ATOM     10  O   UNL     1       5.975   3.772  16.845  0.00  0.00    +0.000 OA
ATOM     11  H   UNL     1       6.828   4.004  16.410  0.00  0.00    +0.000 HD
ENDBRANCH   8  10
BRANCH   1  12
ATOM     12  C   UNL     1       1.525   3.856  19.428  0.00  0.00    +0.000 C 
BRANCH  12  14
ATOM     13  C   UNL     1       1.505   2.626  21.621  0.00  0.00    +0.000 C 
ATOM     14  C   UNL     1       1.307   3.745  20.913  0.00  0.00    +0.000 C 
ENDBRANCH  12  14
ENDBRANCH   1  12
TORSDOF 3
ENDMDL
MODEL 5
REMARK VINA RESULT:      -5.5      1.957      3.354
REMARK  Name = 
REMARK  4 active torsions:
REMARK  status: ('A' for Active; 'I' for Inactive)
REMARK    1  A    between atoms: C_2  and  C_3
REMARK    2  A    between atoms: C_3  and  N_4
REMARK    3  A    between atoms: N_4  and  C_5
REMARK    4  A    between atoms: C_11  and  O_12
REMARK                            x       y       z     vdW  Elec       q    Type
REMARK                         _______ _______ _______ _____ _____    ______ ____
ROOT
ATOM      1  N   UNL     1       2.737   3.768  18.350  0.00  0.00    +0.000 N 
ATOM      2  C   UNL     1       1.741   4.861  17.892  0.00  0.00    +0.000 C 
ATOM      3  C   UNL     1       3.514   4.078  19.627  0.00  0.00    +0.000 C 
ATOM      4  C   UNL     1       4.254   2.763  19.890  0.00  0.00    +0.000 C 
ATOM      5  C   UNL     1       3.501   1.699  19.098  0.00  0.00    +0.000 C 
ATOM      6  C   UNL     1       2.053   2.306  18.693  0.00  0.00    +0.000 C 
ATOM      7  C   UNL     1       0.878   2.847  19.671  0.00  0.00    +0.000 C 
ATOM      8  C   UNL     1       1.416   3.476  20.966  0.00  0.00    +0.000 C 
ATOM      9  C   UNL     1       2.533   4.491  20.734  0.00  0.00    +0.000 C 
ENDROOT
BRANCH   8  10
ATOM     10  O   UNL     1       1.964   2.454  21.783  0.00  0.00    +0.000 OA
ATOM     11  H   UNL     1       2.858   2.722  22.098  0.00  0.00    +0.000 HD
ENDBRANCH   8  10
BRANCH   1  12
ATOM     12  C   UNL     1       3.714   3.669  17.099  0.00  0.00    +0.000 C 
BRANCH  12  14
ATOM     13  C   UNL     1       5.346   5.041  15.766  0.00  0.00    +0.000 C 
ATOM     14  C   UNL     1       4.572   4.879  16.846  0.00  0.00    +0.000 C 
ENDBRANCH  12  14
ENDBRANCH   1  12
TORSDOF 3
ENDMDL
MODEL 6
REMARK VINA RESULT:      -5.5      1.348      1.642
REMARK  Name = 
REMARK  4 active torsions:
REMARK  status: ('A' for Active; 'I' for Inactive)
REMARK    1  A    between atoms: C_2  and  C_3
REMARK    2  A    between atoms: C_3  and  N_4
REMARK    3  A    between atoms: N_4  and  C_5
REMARK    4  A    between atoms: C_11  and  O_12
REMARK                            x       y       z     vdW  Elec       q    Type
REMARK                         _______ _______ _______ _____ _____    ______ ____
ROOT
ATOM      1  N   UNL     1       2.525   4.663  19.724  0.00  0.00    +0.000 N 
ATOM      2  C   UNL     1       3.656   5.591  19.220  0.00  0.00    +0.000 C 
ATOM      3  C   UNL     1       1.636   4.058  18.639  0.00  0.00    +0.000 C 
ATOM      4  C   UNL     1       0.763   3.084  19.435  0.00  0.00    +0.000 C 
ATOM      5  C   UNL     1       1.508   2.832  20.741  0.00  0.00    +0.000 C 
ATOM      6  C   UNL     1       3.039   3.330  20.550  0.00  0.00    +0.000 C 
ATOM      7  C   UNL     1       4.136   2.821  19.470  0.00  0.00    +0.000 C 
ATOM      8  C   UNL     1       3.510   2.385  18.136  0.00  0.00    +0.000 C 
ATOM      9  C   UNL     1       2.517   3.397  17.568  0.00  0.00    +0.000 C 
ENDROOT
BRANCH   8  10
ATOM     10  O   UNL     1       2.787   1.181  18.337  0.00  0.00    +0.000 OA
ATOM     11  H   UNL     1       2.109   1.313  19.039  0.00  0.00    +0.000 HD
ENDBRANCH   8  10
BRANCH   1  12
ATOM     12  C   UNL     1       1.692   5.639  20.663  0.00  0.00    +0.000 C 
BRANCH  12  14
ATOM     13  C   UNL     1       1.235   8.079  21.064  0.00  0.00    +0.000 C 
ATOM     14  C   UNL     1       1.866   7.109  20.390  0.00  0.00    +0.000 C 
ENDBRANCH  12  14
ENDBRANCH   1  12
TORSDOF 3
ENDMDL
MODEL 7
REMARK VINA RESULT:      -5.5      1.707      3.508
REMARK  Name = 
REMARK  4 active torsions:
REMARK  status: ('A' for Active; 'I' for Inactive)
REMARK    1  A    between atoms: C_2  and  C_3
REMARK    2  A    between atoms: C_3  and  N_4
REMARK    3  A    between atoms: N_4  and  C_5
REMARK    4  A    between atoms: C_11  and  O_12
REMARK                            x       y       z     vdW  Elec       q    Type
REMARK                         _______ _______ _______ _____ _____    ______ ____
ROOT
ATOM      1  N   UNL     1       3.847   4.320  17.981  0.00  0.00    +0.000 N 
ATOM      2  C   UNL     1       3.592   5.827  17.735  0.00  0.00    +0.000 C 
ATOM      3  C   UNL     1       3.941   3.898  19.446  0.00  0.00    +0.000 C 
ATOM      4  C   UNL     1       4.017   2.371  19.343  0.00  0.00    +0.000 C 
ATOM      5  C   UNL     1       3.474   2.021  17.962  0.00  0.00    +0.000 C 
ATOM      6  C   UNL     1       2.678   3.314  17.393  0.00  0.00    +0.000 C 
ATOM      7  C   UNL     1       1.400   4.075  18.039  0.00  0.00    +0.000 C 
ATOM      8  C   UNL     1       1.387   4.031  19.575  0.00  0.00    +0.000 C 
ATOM      9  C   UNL     1       2.718   4.427  20.209  0.00  0.00    +0.000 C 
ENDROOT
BRANCH   8  10
ATOM     10  O   UNL     1       1.120   2.702  19.996  0.00  0.00    +0.000 OA
ATOM     11  H   UNL     1       0.221   2.433  19.700  0.00  0.00    +0.000 HD
ENDBRANCH   8  10
BRANCH   1  12
ATOM     12  C   UNL     1       5.232   4.095  17.233  0.00  0.00    +0.000 C 
BRANCH  12  14
ATOM     13  C   UNL     1       6.119   3.959  14.884  0.00  0.00    +0.000 C 
ATOM     14  C   UNL     1       5.248   4.455  15.772  0.00  0.00    +0.000 C 
ENDBRANCH  12  14
ENDBRANCH   1  12
TORSDOF 3
ENDMDL
MODEL 8
REMARK VINA RESULT:      -5.5      1.211      2.649
REMARK  Name = 
REMARK  4 active torsions:
REMARK  status: ('A' for Active; 'I' for Inactive)
REMARK    1  A    between atoms: C_2  and  C_3
REMARK    2  A    between atoms: C_3  and  N_4
REMARK    3  A    between atoms: N_4  and  C_5
REMARK    4  A    between atoms: C_11  and  O_12
REMARK                            x       y       z     vdW  Elec       q    Type
REMARK                         _______ _______ _______ _____ _____    ______ ____
ROOT
ATOM      1  N   UNL     1       3.273   4.826  18.097  0.00  0.00    +0.000 N 
ATOM      2  C   UNL     1       1.767   4.547  17.872  0.00  0.00    +0.000 C 
ATOM      3  C   UNL     1       3.749   4.740  19.546  0.00  0.00    +0.000 C 
ATOM      4  C   UNL     1       5.267   4.889  19.402  0.00  0.00    +0.000 C 
ATOM      5  C   UNL     1       5.580   4.551  17.949  0.00  0.00    +0.000 C 
ATOM      6  C   UNL     1       4.294   3.787  17.323  0.00  0.00    +0.000 C 
ATOM      7  C   UNL     1       3.605   2.405  17.815  0.00  0.00    +0.000 C 
ATOM      8  C   UNL     1       3.710   2.188  19.333  0.00  0.00    +0.000 C 
ATOM      9  C   UNL     1       3.293   3.406  20.155  0.00  0.00    +0.000 C 
ENDROOT
BRANCH   8  10
ATOM     10  O   UNL     1       5.062   1.921  19.668  0.00  0.00    +0.000 OA
ATOM     11  H   UNL     1       5.483   1.386  18.956  0.00  0.00    +0.000 HD
ENDBRANCH   8  10
BRANCH   1  12
ATOM     12  C   UNL     1       3.420   6.307  17.536  0.00  0.00    +0.000 C 
BRANCH  12  14
ATOM     13  C   UNL     1       2.335   8.564  17.765  0.00  0.00    +0.000 C 
ATOM     14  C   UNL     1       2.637   7.362  18.271  0.00  0.00    +0.000 C 
ENDBRANCH  12  14
ENDBRANCH   1  12
TORSDOF 3
ENDMDL
MODEL 9
REMARK VINA RESULT:      -5.4      3.091      4.617
REMARK  Name = 
REMARK  4 active torsions:
REMARK  status: ('A' for Active; 'I' for Inactive)
REMARK    1  A    between atoms: C_2  and  C_3
REMARK    2  A    between atoms: C_3  and  N_4
REMARK    3  A    between atoms: N_4  and  C_5
REMARK    4  A    between atoms: C_11  and  O_12
REMARK                            x       y       z     vdW  Elec       q    Type
REMARK                         _______ _______ _______ _____ _____    ______ ____
ROOT
ATOM      1  N   UNL     1       4.937   4.814  17.787  0.00  0.00    +0.000 N 
ATOM      2  C   UNL     1       4.663   5.180  19.267  0.00  0.00    +0.000 C 
ATOM      3  C   UNL     1       4.835   5.969  16.793  0.00  0.00    +0.000 C 
ATOM      4  C   UNL     1       5.322   5.327  15.491  0.00  0.00    +0.000 C 
ATOM      5  C   UNL     1       6.106   4.087  15.909  0.00  0.00    +0.000 C 
ATOM      6  C   UNL     1       6.447   4.218  17.489  0.00  0.00    +0.000 C 
ATOM      7  C   UNL     1       7.287   5.380  18.246  0.00  0.00    +0.000 C 
ATOM      8  C   UNL     1       7.141   6.758  17.581  0.00  0.00    +0.000 C 
ATOM      9  C   UNL     1       5.693   7.144  17.286  0.00  0.00    +0.000 C 
ENDROOT
BRANCH   8  10
ATOM     10  O   UNL     1       7.815   6.741  16.333  0.00  0.00    +0.000 OA
ATOM     11  H   UNL     1       8.723   7.107  16.439  0.00  0.00    +0.000 HD
ENDBRANCH   8  10
BRANCH   1  12
ATOM     12  C   UNL     1       3.817   3.720  17.506  0.00  0.00    +0.000 C 
BRANCH  12  14
ATOM     13  C   UNL     1       1.419   3.384  18.182  0.00  0.00    +0.000 C 
ATOM     14  C   UNL     1       2.398   4.172  17.721  0.00  0.00    +0.000 C 
ENDBRANCH  12  14
ENDBRANCH   1  12
TORSDOF 3
ENDMDL
