MODEL 1
REMARK VINA RESULT:      -8.7      0.000      0.000
REMARK  Name = 
REMARK  11 active torsions:
REMARK  status: ('A' for Active; 'I' for Inactive)
REMARK    1  A    between atoms: C_1  and  N_2
REMARK    2  A    between atoms: C_3  and  C_5
REMARK    3  A    between atoms: C_5  and  C_6
REMARK    4  A    between atoms: C_5  and  N_10
REMARK    5  A    between atoms: N_8  and  O_9
REMARK    6  A    between atoms: N_10  and  C_11
REMARK    7  A    between atoms: C_12  and  C_14
REMARK    8  A    between atoms: C_17  and  C_18
REMARK    9  A    between atoms: C_21  and  N_22
REMARK   10  A    between atoms: N_22  and  C_23
REMARK   11  A    between atoms: N_22  and  C_24
REMARK                            x       y       z     vdW  Elec       q    Type
REMARK                         _______ _______ _______ _____ _____    ______ ____
ROOT
ATOM      1  N   UNL     1       5.377   5.932  17.469  0.00  0.00    +0.000 N 
ATOM      2  C   UNL     1       6.035   7.240  17.446  0.00  0.00    +0.000 C 
ATOM      3  C   UNL     1       4.124   5.680  18.037  0.00  0.00    +0.000 C 
ATOM      4  O   UNL     1       3.766   4.528  18.283  0.00  0.00    +0.000 OA
ENDROOT
BRANCH   3   5
ATOM      5  C   UNL     1       3.207   6.800  18.409  0.00  0.00    +0.000 A 
ATOM      6  C   UNL     1       2.654   6.922  19.680  0.00  0.00    +0.000 A 
ATOM      7  C   UNL     1       1.727   7.933  19.955  0.00  0.00    +0.000 A 
ATOM      8  C   UNL     1       1.393   8.916  19.007  0.00  0.00    +0.000 A 
ATOM      9  C   UNL     1       2.032   8.833  17.759  0.00  0.00    +0.000 A 
ATOM     10  C   UNL     1       2.923   7.784  17.455  0.00  0.00    +0.000 A 
BRANCH   8  11
ATOM     11  C   UNL     1       0.402   9.976  19.328  0.00  0.00    +0.000 A 
ATOM     12  C   UNL     1       0.458  10.691  20.533  0.00  0.00    +0.000 A 
ATOM     13  C   UNL     1      -0.522  11.630  20.889  0.00  0.00    +0.000 A 
ATOM     14  C   UNL     1      -1.603  11.940  20.055  0.00  0.00    +0.000 A 
ATOM     15  C   UNL     1      -1.632  11.257  18.832  0.00  0.00    +0.000 A 
ATOM     16  C   UNL     1      -0.665  10.295  18.477  0.00  0.00    +0.000 A 
BRANCH  14  17
ATOM     17  N   UNL     1      -2.595  12.820  20.453  0.00  0.00    +0.000 N 
ATOM     18  C   UNL     1      -2.272  14.131  21.011  0.00  0.00    +0.000 C 
ATOM     19  C   UNL     1      -3.987  12.652  20.049  0.00  0.00    +0.000 C 
ENDBRANCH  14  17
ENDBRANCH   8  11
ENDBRANCH   3   5
BRANCH   1  20
ATOM     20  C   UNL     1       6.181   4.757  17.034  0.00  0.00    +0.000 C 
BRANCH  20  23
ATOM     21  C   UNL     1       6.300   3.797  13.325  0.00  0.00    +0.000 C 
ATOM     22  N   UNL     1       5.916   3.920  14.711  0.00  0.00    +0.000 N 
ATOM     23  C   UNL     1       6.635   4.749  15.554  0.00  0.00    +0.000 C 
ATOM     24  O   UNL     1       7.533   5.465  15.112  0.00  0.00    +0.000 OA
ATOM     25  H   UNL     1       5.113   3.400  15.042  0.00  0.00    +0.000 HD
ENDBRANCH  20  23
BRANCH  20  26
ATOM     26  C   UNL     1       7.368   4.630  17.999  0.00  0.00    +0.000 C 
ATOM     27  O   UNL     1       8.445   4.103  17.721  0.00  0.00    +0.000 OA
ATOM     28  N   UNL     1       7.155   5.224  19.231  0.00  0.00    +0.000 N 
ATOM     29  H   UNL     1       6.526   6.033  19.280  0.00  0.00    +0.000 HD
BRANCH  28  30
ATOM     30  O   UNL     1       8.293   5.271  20.077  0.00  0.00    +0.000 OA
ATOM     31  H   UNL     1       8.754   6.084  19.773  0.00  0.00    +0.000 HD
ENDBRANCH  28  30
ENDBRANCH  20  26
ENDBRANCH   1  20
TORSDOF 7
ENDMDL
MODEL 2
REMARK VINA RESULT:      -8.7      0.426      1.000
REMARK  Name = 
REMARK  11 active torsions:
REMARK  status: ('A' for Active; 'I' for Inactive)
REMARK    1  A    between atoms: C_1  and  N_2
REMARK    2  A    between atoms: C_3  and  C_5
REMARK    3  A    between atoms: C_5  and  C_6
REMARK    4  A    between atoms: C_5  and  N_10
REMARK    5  A    between atoms: N_8  and  O_9
REMARK    6  A    between atoms: N_10  and  C_11
REMARK    7  A    between atoms: C_12  and  C_14
REMARK    8  A    between atoms: C_17  and  C_18
REMARK    9  A    between atoms: C_21  and  N_22
REMARK   10  A    between atoms: N_22  and  C_23
REMARK   11  A    between atoms: N_22  and  C_24
REMARK                            x       y       z     vdW  Elec       q    Type
REMARK                         _______ _______ _______ _____ _____    ______ ____
ROOT
ATOM      1  N   UNL     1       5.354   5.857  17.409  0.00  0.00    +0.000 N 
ATOM      2  C   UNL     1       5.916   7.195  17.222  0.00  0.00    +0.000 C 
ATOM      3  C   UNL     1       4.173   5.578  18.105  0.00  0.00    +0.000 C 
ATOM      4  O   UNL     1       3.917   4.431  18.474  0.00  0.00    +0.000 OA
ENDROOT
BRANCH   3   5
ATOM      5  C   UNL     1       3.215   6.667  18.465  0.00  0.00    +0.000 A 
ATOM      6  C   UNL     1       2.850   7.668  17.568  0.00  0.00    +0.000 A 
ATOM      7  C   UNL     1       2.025   8.720  17.979  0.00  0.00    +0.000 A 
ATOM      8  C   UNL     1       1.453   8.761  19.263  0.00  0.00    +0.000 A 
ATOM      9  C   UNL     1       1.756   7.694  20.124  0.00  0.00    +0.000 A 
ATOM     10  C   UNL     1       2.634   6.661  19.737  0.00  0.00    +0.000 A 
BRANCH   8  11
ATOM     11  C   UNL     1       0.582   9.894  19.671  0.00  0.00    +0.000 A 
ATOM     12  C   UNL     1       0.812  10.605  20.858  0.00  0.00    +0.000 A 
ATOM     13  C   UNL     1      -0.054  11.616  21.300  0.00  0.00    +0.000 A 
ATOM     14  C   UNL     1      -1.186  12.006  20.575  0.00  0.00    +0.000 A 
ATOM     15  C   UNL     1      -1.388  11.326  19.367  0.00  0.00    +0.000 A 
ATOM     16  C   UNL     1      -0.537  10.292  18.927  0.00  0.00    +0.000 A 
BRANCH  14  17
ATOM     17  N   UNL     1      -2.064  12.960  21.061  0.00  0.00    +0.000 N 
ATOM     18  C   UNL     1      -1.602  14.065  21.899  0.00  0.00    +0.000 C 
ATOM     19  C   UNL     1      -3.409  13.124  20.519  0.00  0.00    +0.000 C 
ENDBRANCH  14  17
ENDBRANCH   8  11
ENDBRANCH   3   5
BRANCH   1  20
ATOM     20  C   UNL     1       6.197   4.700  17.001  0.00  0.00    +0.000 C 
BRANCH  20  23
ATOM     21  C   UNL     1       6.334   3.797  13.279  0.00  0.00    +0.000 C 
ATOM     22  N   UNL     1       5.931   3.918  14.659  0.00  0.00    +0.000 N 
ATOM     23  C   UNL     1       6.679   4.690  15.530  0.00  0.00    +0.000 C 
ATOM     24  O   UNL     1       7.627   5.360  15.117  0.00  0.00    +0.000 OA
ATOM     25  H   UNL     1       5.093   3.441  14.966  0.00  0.00    +0.000 HD
ENDBRANCH  20  23
BRANCH  20  26
ATOM     26  C   UNL     1       7.370   4.615  17.989  0.00  0.00    +0.000 C 
ATOM     27  O   UNL     1       8.476   4.144  17.727  0.00  0.00    +0.000 OA
ATOM     28  N   UNL     1       7.103   5.179  19.225  0.00  0.00    +0.000 N 
ATOM     29  H   UNL     1       6.434   5.957  19.272  0.00  0.00    +0.000 HD
BRANCH  28  30
ATOM     30  O   UNL     1       8.219   5.267  20.095  0.00  0.00    +0.000 OA
ATOM     31  H   UNL     1       8.968   5.010  19.512  0.00  0.00    +0.000 HD
ENDBRANCH  28  30
ENDBRANCH  20  26
ENDBRANCH   1  20
TORSDOF 7
ENDMDL
MODEL 3
REMARK VINA RESULT:      -8.6      2.169      3.433
REMARK  Name = 
REMARK  11 active torsions:
REMARK  status: ('A' for Active; 'I' for Inactive)
REMARK    1  A    between atoms: C_1  and  N_2
REMARK    2  A    between atoms: C_3  and  C_5
REMARK    3  A    between atoms: C_5  and  C_6
REMARK    4  A    between atoms: C_5  and  N_10
REMARK    5  A    between atoms: N_8  and  O_9
REMARK    6  A    between atoms: N_10  and  C_11
REMARK    7  A    between atoms: C_12  and  C_14
REMARK    8  A    between atoms: C_17  and  C_18
REMARK    9  A    between atoms: C_21  and  N_22
REMARK   10  A    between atoms: N_22  and  C_23
REMARK   11  A    between atoms: N_22  and  C_24
REMARK                            x       y       z     vdW  Elec       q    Type
REMARK                         _______ _______ _______ _____ _____    ______ ____
ROOT
ATOM      1  N   UNL     1       3.034   5.238  18.306  0.00  0.00    +0.000 N 
ATOM      2  C   UNL     1       1.848   4.608  18.889  0.00  0.00    +0.000 C 
ATOM      3  C   UNL     1       3.207   6.616  18.145  0.00  0.00    +0.000 C 
ATOM      4  O   UNL     1       4.078   7.057  17.394  0.00  0.00    +0.000 OA
ENDROOT
BRANCH   3   5
ATOM      5  C   UNL     1       2.310   7.592  18.837  0.00  0.00    +0.000 A 
ATOM      6  C   UNL     1       1.719   8.663  18.174  0.00  0.00    +0.000 A 
ATOM      7  C   UNL     1       0.964   9.604  18.883  0.00  0.00    +0.000 A 
ATOM      8  C   UNL     1       0.687   9.459  20.253  0.00  0.00    +0.000 A 
ATOM      9  C   UNL     1       1.213   8.320  20.887  0.00  0.00    +0.000 A 
ATOM     10  C   UNL     1       2.023   7.399  20.193  0.00  0.00    +0.000 A 
BRANCH   8  11
ATOM     11  C   UNL     1      -0.116  10.477  20.979  0.00  0.00    +0.000 A 
ATOM     12  C   UNL     1      -0.463  10.312  22.327  0.00  0.00    +0.000 A 
ATOM     13  C   UNL     1      -1.296  11.219  22.999  0.00  0.00    +0.000 A 
ATOM     14  C   UNL     1      -1.811  12.365  22.381  0.00  0.00    +0.000 A 
ATOM     15  C   UNL     1      -1.426  12.552  21.047  0.00  0.00    +0.000 A 
ATOM     16  C   UNL     1      -0.609  11.633  20.358  0.00  0.00    +0.000 A 
BRANCH  14  17
ATOM     17  N   UNL     1      -2.684  13.213  23.041  0.00  0.00    +0.000 N 
ATOM     18  C   UNL     1      -3.634  12.710  24.031  0.00  0.00    +0.000 C 
ATOM     19  C   UNL     1      -2.501  14.661  23.049  0.00  0.00    +0.000 C 
ENDBRANCH  14  17
ENDBRANCH   8  11
ENDBRANCH   3   5
BRANCH   1  20
ATOM     20  C   UNL     1       4.036   4.343  17.665  0.00  0.00    +0.000 C 
BRANCH  20  23
ATOM     21  C   UNL     1       7.851   4.693  17.756  0.00  0.00    +0.000 C 
ATOM     22  N   UNL     1       6.473   4.678  17.328  0.00  0.00    +0.000 N 
ATOM     23  C   UNL     1       5.472   4.398  18.241  0.00  0.00    +0.000 C 
ATOM     24  O   UNL     1       5.733   4.266  19.437  0.00  0.00    +0.000 OA
ATOM     25  H   UNL     1       6.261   4.885  16.360  0.00  0.00    +0.000 HD
ENDBRANCH  20  23
BRANCH  20  26
ATOM     26  C   UNL     1       3.462   2.919  17.691  0.00  0.00    +0.000 C 
ATOM     27  O   UNL     1       2.465   2.551  17.070  0.00  0.00    +0.000 OA
ATOM     28  N   UNL     1       4.207   2.029  18.446  0.00  0.00    +0.000 N 
ATOM     29  H   UNL     1       5.218   2.187  18.531  0.00  0.00    +0.000 HD
BRANCH  28  30
ATOM     30  O   UNL     1       3.798   0.674  18.349  0.00  0.00    +0.000 OA
ATOM     31  H   UNL     1       3.113   0.604  19.051  0.00  0.00    +0.000 HD
ENDBRANCH  28  30
ENDBRANCH  20  26
ENDBRANCH   1  20
TORSDOF 7
ENDMDL
MODEL 4
REMARK VINA RESULT:      -8.5      2.116      3.330
REMARK  Name = 
REMARK  11 active torsions:
REMARK  status: ('A' for Active; 'I' for Inactive)
REMARK    1  A    between atoms: C_1  and  N_2
REMARK    2  A    between atoms: C_3  and  C_5
REMARK    3  A    between atoms: C_5  and  C_6
REMARK    4  A    between atoms: C_5  and  N_10
REMARK    5  A    between atoms: N_8  and  O_9
REMARK    6  A    between atoms: N_10  and  C_11
REMARK    7  A    between atoms: C_12  and  C_14
REMARK    8  A    between atoms: C_17  and  C_18
REMARK    9  A    between atoms: C_21  and  N_22
REMARK   10  A    between atoms: N_22  and  C_23
REMARK   11  A    between atoms: N_22  and  C_24
REMARK                            x       y       z     vdW  Elec       q    Type
REMARK                         _______ _______ _______ _____ _____    ______ ____
ROOT
ATOM      1  N   UNL     1       3.103   5.339  18.421  0.00  0.00    +0.000 N 
ATOM      2  C   UNL     1       2.064   4.699  19.229  0.00  0.00    +0.000 C 
ATOM      3  C   UNL     1       3.147   6.703  18.114  0.00  0.00    +0.000 C 
ATOM      4  O   UNL     1       3.865   7.120  17.205  0.00  0.00    +0.000 OA
ENDROOT
BRANCH   3   5
ATOM      5  C   UNL     1       2.288   7.685  18.844  0.00  0.00    +0.000 A 
ATOM      6  C   UNL     1       2.045   7.593  20.212  0.00  0.00    +0.000 A 
ATOM      7  C   UNL     1       1.159   8.479  20.834  0.00  0.00    +0.000 A 
ATOM      8  C   UNL     1       0.562   9.547  20.141  0.00  0.00    +0.000 A 
ATOM      9  C   UNL     1       0.893   9.682  18.782  0.00  0.00    +0.000 A 
ATOM     10  C   UNL     1       1.739   8.759  18.135  0.00  0.00    +0.000 A 
BRANCH   8  11
ATOM     11  C   UNL     1      -0.377  10.470  20.829  0.00  0.00    +0.000 A 
ATOM     12  C   UNL     1      -1.157  11.389  20.113  0.00  0.00    +0.000 A 
ATOM     13  C   UNL     1      -1.980  12.327  20.755  0.00  0.00    +0.000 A 
ATOM     14  C   UNL     1      -2.103  12.389  22.148  0.00  0.00    +0.000 A 
ATOM     15  C   UNL     1      -1.357  11.440  22.860  0.00  0.00    +0.000 A 
ATOM     16  C   UNL     1      -0.510  10.511  22.224  0.00  0.00    +0.000 A 
BRANCH  14  17
ATOM     17  N   UNL     1      -2.869  13.365  22.765  0.00  0.00    +0.000 N 
ATOM     18  C   UNL     1      -3.423  14.488  22.012  0.00  0.00    +0.000 C 
ATOM     19  C   UNL     1      -3.442  13.175  24.093  0.00  0.00    +0.000 C 
ENDBRANCH  14  17
ENDBRANCH   8  11
ENDBRANCH   3   5
BRANCH   1  20
ATOM     20  C   UNL     1       4.066   4.448  17.718  0.00  0.00    +0.000 C 
BRANCH  20  23
ATOM     21  C   UNL     1       7.899   4.476  17.717  0.00  0.00    +0.000 C 
ATOM     22  N   UNL     1       6.514   4.535  17.313  0.00  0.00    +0.000 N 
ATOM     23  C   UNL     1       5.514   4.440  18.264  0.00  0.00    +0.000 C 
ATOM     24  O   UNL     1       5.791   4.411  19.464  0.00  0.00    +0.000 OA
ATOM     25  H   UNL     1       6.298   4.657  16.332  0.00  0.00    +0.000 HD
ENDBRANCH  20  23
BRANCH  20  26
ATOM     26  C   UNL     1       3.454   3.040  17.693  0.00  0.00    +0.000 C 
ATOM     27  O   UNL     1       2.427   2.731  17.089  0.00  0.00    +0.000 OA
ATOM     28  N   UNL     1       4.199   2.093  18.375  0.00  0.00    +0.000 N 
ATOM     29  H   UNL     1       5.216   2.221  18.431  0.00  0.00    +0.000 HD
BRANCH  28  30
ATOM     30  O   UNL     1       3.750   0.757  18.224  0.00  0.00    +0.000 OA
ATOM     31  H   UNL     1       3.546   0.491  19.148  0.00  0.00    +0.000 HD
ENDBRANCH  28  30
ENDBRANCH  20  26
ENDBRANCH   1  20
TORSDOF 7
ENDMDL
MODEL 5
REMARK VINA RESULT:      -8.5      2.190      3.024
REMARK  Name = 
REMARK  11 active torsions:
REMARK  status: ('A' for Active; 'I' for Inactive)
REMARK    1  A    between atoms: C_1  and  N_2
REMARK    2  A    between atoms: C_3  and  C_5
REMARK    3  A    between atoms: C_5  and  C_6
REMARK    4  A    between atoms: C_5  and  N_10
REMARK    5  A    between atoms: N_8  and  O_9
REMARK    6  A    between atoms: N_10  and  C_11
REMARK    7  A    between atoms: C_12  and  C_14
REMARK    8  A    between atoms: C_17  and  C_18
REMARK    9  A    between atoms: C_21  and  N_22
REMARK   10  A    between atoms: N_22  and  C_23
REMARK   11  A    between atoms: N_22  and  C_24
REMARK                            x       y       z     vdW  Elec       q    Type
REMARK                         _______ _______ _______ _____ _____    ______ ____
ROOT
ATOM      1  N   UNL     1       2.863   4.762  17.826  0.00  0.00    +0.000 N 
ATOM      2  C   UNL     1       1.426   4.499  17.739  0.00  0.00    +0.000 C 
ATOM      3  C   UNL     1       3.430   5.948  18.304  0.00  0.00    +0.000 C 
ATOM      4  O   UNL     1       4.610   6.216  18.079  0.00  0.00    +0.000 OA
ENDROOT
BRANCH   3   5
ATOM      5  C   UNL     1       2.608   6.946  19.055  0.00  0.00    +0.000 A 
ATOM      6  C   UNL     1       2.216   6.748  20.376  0.00  0.00    +0.000 A 
ATOM      7  C   UNL     1       1.369   7.665  21.007  0.00  0.00    +0.000 A 
ATOM      8  C   UNL     1       0.964   8.858  20.384  0.00  0.00    +0.000 A 
ATOM      9  C   UNL     1       1.446   9.087  19.084  0.00  0.00    +0.000 A 
ATOM     10  C   UNL     1       2.252   8.141  18.420  0.00  0.00    +0.000 A 
BRANCH   8  11
ATOM     11  C   UNL     1       0.061   9.811  21.080  0.00  0.00    +0.000 A 
ATOM     12  C   UNL     1      -0.441  10.950  20.434  0.00  0.00    +0.000 A 
ATOM     13  C   UNL     1      -1.220  11.905  21.105  0.00  0.00    +0.000 A 
ATOM     14  C   UNL     1      -1.576  11.771  22.452  0.00  0.00    +0.000 A 
ATOM     15  C   UNL     1      -1.112  10.610  23.083  0.00  0.00    +0.000 A 
ATOM     16  C   UNL     1      -0.308   9.658  22.423  0.00  0.00    +0.000 A 
BRANCH  14  17
ATOM     17  N   UNL     1      -2.289  12.756  23.114  0.00  0.00    +0.000 N 
ATOM     18  C   UNL     1      -2.029  14.175  22.878  0.00  0.00    +0.000 C 
ATOM     19  C   UNL     1      -3.537  12.471  23.815  0.00  0.00    +0.000 C 
ENDBRANCH  14  17
ENDBRANCH   8  11
ENDBRANCH   3   5
BRANCH   1  20
ATOM     20  C   UNL     1       3.776   3.779  17.181  0.00  0.00    +0.000 C 
BRANCH  20  23
ATOM     21  C   UNL     1       7.443   4.688  16.537  0.00  0.00    +0.000 C 
ATOM     22  N   UNL     1       6.232   4.133  17.092  0.00  0.00    +0.000 N 
ATOM     23  C   UNL     1       5.020   4.363  16.469  0.00  0.00    +0.000 C 
ATOM     24  O   UNL     1       4.973   4.949  15.386  0.00  0.00    +0.000 OA
ATOM     25  H   UNL     1       6.294   3.569  17.931  0.00  0.00    +0.000 HD
ENDBRANCH  20  23
BRANCH  20  26
ATOM     26  C   UNL     1       4.160   2.742  18.247  0.00  0.00    +0.000 C 
ATOM     27  O   UNL     1       4.461   3.008  19.410  0.00  0.00    +0.000 OA
ATOM     28  N   UNL     1       4.086   1.431  17.805  0.00  0.00    +0.000 N 
ATOM     29  H   UNL     1       3.405   1.201  17.073  0.00  0.00    +0.000 HD
BRANCH  28  30
ATOM     30  O   UNL     1       4.269   0.450  18.813  0.00  0.00    +0.000 OA
ATOM     31  H   UNL     1       4.745   0.948  19.515  0.00  0.00    +0.000 HD
ENDBRANCH  28  30
ENDBRANCH  20  26
ENDBRANCH   1  20
TORSDOF 7
ENDMDL
MODEL 6
REMARK VINA RESULT:      -8.4      1.939      2.552
REMARK  Name = 
REMARK  11 active torsions:
REMARK  status: ('A' for Active; 'I' for Inactive)
REMARK    1  A    between atoms: C_1  and  N_2
REMARK    2  A    between atoms: C_3  and  C_5
REMARK    3  A    between atoms: C_5  and  C_6
REMARK    4  A    between atoms: C_5  and  N_10
REMARK    5  A    between atoms: N_8  and  O_9
REMARK    6  A    between atoms: N_10  and  C_11
REMARK    7  A    between atoms: C_12  and  C_14
REMARK    8  A    between atoms: C_17  and  C_18
REMARK    9  A    between atoms: C_21  and  N_22
REMARK   10  A    between atoms: N_22  and  C_23
REMARK   11  A    between atoms: N_22  and  C_24
REMARK                            x       y       z     vdW  Elec       q    Type
REMARK                         _______ _______ _______ _____ _____    ______ ____
ROOT
ATOM      1  N   UNL     1       3.094   4.793  17.926  0.00  0.00    +0.000 N 
ATOM      2  C   UNL     1       1.686   4.392  17.927  0.00  0.00    +0.000 C 
ATOM      3  C   UNL     1       3.551   6.097  18.140  0.00  0.00    +0.000 C 
ATOM      4  O   UNL     1       4.701   6.418  17.837  0.00  0.00    +0.000 OA
ENDROOT
BRANCH   3   5
ATOM      5  C   UNL     1       2.645   7.151  18.691  0.00  0.00    +0.000 A 
ATOM      6  C   UNL     1       2.158   8.199  17.915  0.00  0.00    +0.000 A 
ATOM      7  C   UNL     1       1.391   9.213  18.497  0.00  0.00    +0.000 A 
ATOM      8  C   UNL     1       0.998   9.170  19.846  0.00  0.00    +0.000 A 
ATOM      9  C   UNL     1       1.420   8.057  20.592  0.00  0.00    +0.000 A 
ATOM     10  C   UNL     1       2.241   7.060  20.028  0.00  0.00    +0.000 A 
BRANCH   8  11
ATOM     11  C   UNL     1       0.184  10.265  20.436  0.00  0.00    +0.000 A 
ATOM     12  C   UNL     1       0.106  10.453  21.824  0.00  0.00    +0.000 A 
ATOM     13  C   UNL     1      -0.729  11.425  22.398  0.00  0.00    +0.000 A 
ATOM     14  C   UNL     1      -1.513  12.291  21.627  0.00  0.00    +0.000 A 
ATOM     15  C   UNL     1      -1.398  12.131  20.240  0.00  0.00    +0.000 A 
ATOM     16  C   UNL     1      -0.581  11.142  19.656  0.00  0.00    +0.000 A 
BRANCH  14  17
ATOM     17  N   UNL     1      -2.379  13.198  22.214  0.00  0.00    +0.000 N 
ATOM     18  C   UNL     1      -2.091  13.795  23.516  0.00  0.00    +0.000 C 
ATOM     19  C   UNL     1      -3.438  13.859  21.458  0.00  0.00    +0.000 C 
ENDBRANCH  14  17
ENDBRANCH   8  11
ENDBRANCH   3   5
BRANCH   1  20
ATOM     20  C   UNL     1       4.090   3.784  17.473  0.00  0.00    +0.000 C 
BRANCH  20  23
ATOM     21  C   UNL     1       7.356   4.707  15.693  0.00  0.00    +0.000 C 
ATOM     22  N   UNL     1       6.390   4.252  16.664  0.00  0.00    +0.000 N 
ATOM     23  C   UNL     1       5.046   4.226  16.339  0.00  0.00    +0.000 C 
ATOM     24  O   UNL     1       4.673   4.487  15.195  0.00  0.00    +0.000 OA
ATOM     25  H   UNL     1       6.719   3.946  17.571  0.00  0.00    +0.000 HD
ENDBRANCH  20  23
BRANCH  20  26
ATOM     26  C   UNL     1       4.855   3.305  18.715  0.00  0.00    +0.000 C 
ATOM     27  O   UNL     1       5.645   3.993  19.362  0.00  0.00    +0.000 OA
ATOM     28  N   UNL     1       4.539   2.015  19.105  0.00  0.00    +0.000 N 
ATOM     29  H   UNL     1       3.597   1.662  18.903  0.00  0.00    +0.000 HD
BRANCH  28  30
ATOM     30  O   UNL     1       5.101   1.611  20.343  0.00  0.00    +0.000 OA
ATOM     31  H   UNL     1       4.489   2.012  20.999  0.00  0.00    +0.000 HD
ENDBRANCH  28  30
ENDBRANCH  20  26
ENDBRANCH   1  20
TORSDOF 7
ENDMDL
MODEL 7
REMARK VINA RESULT:      -8.4      1.879      2.303
REMARK  Name = 
REMARK  11 active torsions:
REMARK  status: ('A' for Active; 'I' for Inactive)
REMARK    1  A    between atoms: C_1  and  N_2
REMARK    2  A    between atoms: C_3  and  C_5
REMARK    3  A    between atoms: C_5  and  C_6
REMARK    4  A    between atoms: C_5  and  N_10
REMARK    5  A    between atoms: N_8  and  O_9
REMARK    6  A    between atoms: N_10  and  C_11
REMARK    7  A    between atoms: C_12  and  C_14
REMARK    8  A    between atoms: C_17  and  C_18
REMARK    9  A    between atoms: C_21  and  N_22
REMARK   10  A    between atoms: N_22  and  C_23
REMARK   11  A    between atoms: N_22  and  C_24
REMARK                            x       y       z     vdW  Elec       q    Type
REMARK                         _______ _______ _______ _____ _____    ______ ____
ROOT
ATOM      1  N   UNL     1       3.133   4.843  18.028  0.00  0.00    +0.000 N 
ATOM      2  C   UNL     1       1.733   4.434  18.146  0.00  0.00    +0.000 C 
ATOM      3  C   UNL     1       3.588   6.163  18.110  0.00  0.00    +0.000 C 
ATOM      4  O   UNL     1       4.714   6.465  17.715  0.00  0.00    +0.000 OA
ENDROOT
BRANCH   3   5
ATOM      5  C   UNL     1       2.705   7.251  18.630  0.00  0.00    +0.000 A 
ATOM      6  C   UNL     1       2.272   7.295  19.952  0.00  0.00    +0.000 A 
ATOM      7  C   UNL     1       1.370   8.279  20.369  0.00  0.00    +0.000 A 
ATOM      8  C   UNL     1       0.945   9.312  19.515  0.00  0.00    +0.000 A 
ATOM      9  C   UNL     1       1.467   9.307  18.211  0.00  0.00    +0.000 A 
ATOM     10  C   UNL     1       2.330   8.286  17.766  0.00  0.00    +0.000 A 
BRANCH   8  11
ATOM     11  C   UNL     1      -0.016  10.342  19.988  0.00  0.00    +0.000 A 
ATOM     12  C   UNL     1      -0.154  10.646  21.350  0.00  0.00    +0.000 A 
ATOM     13  C   UNL     1      -1.120  11.550  21.818  0.00  0.00    +0.000 A 
ATOM     14  C   UNL     1      -1.988  12.233  20.957  0.00  0.00    +0.000 A 
ATOM     15  C   UNL     1      -1.817  11.962  19.593  0.00  0.00    +0.000 A 
ATOM     16  C   UNL     1      -0.866  11.038  19.117  0.00  0.00    +0.000 A 
BRANCH  14  17
ATOM     17  N   UNL     1      -2.977  13.071  21.443  0.00  0.00    +0.000 N 
ATOM     18  C   UNL     1      -3.672  12.783  22.697  0.00  0.00    +0.000 C 
ATOM     19  C   UNL     1      -3.162  14.427  20.938  0.00  0.00    +0.000 C 
ENDBRANCH  14  17
ENDBRANCH   8  11
ENDBRANCH   3   5
BRANCH   1  20
ATOM     20  C   UNL     1       4.112   3.807  17.598  0.00  0.00    +0.000 C 
BRANCH  20  23
ATOM     21  C   UNL     1       7.328   4.658  15.695  0.00  0.00    +0.000 C 
ATOM     22  N   UNL     1       6.389   4.253  16.713  0.00  0.00    +0.000 N 
ATOM     23  C   UNL     1       5.039   4.188  16.419  0.00  0.00    +0.000 C 
ATOM     24  O   UNL     1       4.639   4.369  15.268  0.00  0.00    +0.000 OA
ATOM     25  H   UNL     1       6.740   4.011  17.632  0.00  0.00    +0.000 HD
ENDBRANCH  20  23
BRANCH  20  26
ATOM     26  C   UNL     1       4.909   3.384  18.841  0.00  0.00    +0.000 C 
ATOM     27  O   UNL     1       5.648   4.127  19.488  0.00  0.00    +0.000 OA
ATOM     28  N   UNL     1       4.685   2.075  19.232  0.00  0.00    +0.000 N 
ATOM     29  H   UNL     1       3.770   1.655  19.029  0.00  0.00    +0.000 HD
BRANCH  28  30
ATOM     30  O   UNL     1       5.274   1.712  20.470  0.00  0.00    +0.000 OA
ATOM     31  H   UNL     1       4.513   1.339  20.969  0.00  0.00    +0.000 HD
ENDBRANCH  28  30
ENDBRANCH  20  26
ENDBRANCH   1  20
TORSDOF 7
ENDMDL
MODEL 8
REMARK VINA RESULT:      -8.4      2.002      2.616
REMARK  Name = 
REMARK  11 active torsions:
REMARK  status: ('A' for Active; 'I' for Inactive)
REMARK    1  A    between atoms: C_1  and  N_2
REMARK    2  A    between atoms: C_3  and  C_5
REMARK    3  A    between atoms: C_5  and  C_6
REMARK    4  A    between atoms: C_5  and  N_10
REMARK    5  A    between atoms: N_8  and  O_9
REMARK    6  A    between atoms: N_10  and  C_11
REMARK    7  A    between atoms: C_12  and  C_14
REMARK    8  A    between atoms: C_17  and  C_18
REMARK    9  A    between atoms: C_21  and  N_22
REMARK   10  A    between atoms: N_22  and  C_23
REMARK   11  A    between atoms: N_22  and  C_24
REMARK                            x       y       z     vdW  Elec       q    Type
REMARK                         _______ _______ _______ _____ _____    ______ ____
ROOT
ATOM      1  N   UNL     1       3.943   5.299  18.360  0.00  0.00    +0.000 N 
ATOM      2  C   UNL     1       4.918   5.825  19.317  0.00  0.00    +0.000 C 
ATOM      3  C   UNL     1       2.583   5.625  18.346  0.00  0.00    +0.000 C 
ATOM      4  O   UNL     1       1.778   4.936  17.719  0.00  0.00    +0.000 OA
ENDROOT
BRANCH   3   5
ATOM      5  C   UNL     1       2.060   6.784  19.132  0.00  0.00    +0.000 A 
ATOM      6  C   UNL     1       1.684   6.672  20.468  0.00  0.00    +0.000 A 
ATOM      7  C   UNL     1       1.111   7.760  21.135  0.00  0.00    +0.000 A 
ATOM      8  C   UNL     1       0.986   9.024  20.531  0.00  0.00    +0.000 A 
ATOM      9  C   UNL     1       1.459   9.144  19.213  0.00  0.00    +0.000 A 
ATOM     10  C   UNL     1       1.983   8.037  18.514  0.00  0.00    +0.000 A 
BRANCH   8  11
ATOM     11  C   UNL     1       0.371  10.160  21.265  0.00  0.00    +0.000 A 
ATOM     12  C   UNL     1      -0.414   9.954  22.409  0.00  0.00    +0.000 A 
ATOM     13  C   UNL     1      -1.074  11.008  23.059  0.00  0.00    +0.000 A 
ATOM     14  C   UNL     1      -0.970  12.337  22.631  0.00  0.00    +0.000 A 
ATOM     15  C   UNL     1      -0.149  12.546  21.516  0.00  0.00    +0.000 A 
ATOM     16  C   UNL     1       0.499  11.490  20.842  0.00  0.00    +0.000 A 
BRANCH  14  17
ATOM     17  N   UNL     1      -1.682  13.353  23.246  0.00  0.00    +0.000 N 
ATOM     18  C   UNL     1      -1.011  14.528  23.799  0.00  0.00    +0.000 C 
ATOM     19  C   UNL     1      -3.127  13.487  23.097  0.00  0.00    +0.000 C 
ENDBRANCH  14  17
ENDBRANCH   8  11
ENDBRANCH   3   5
BRANCH   1  20
ATOM     20  C   UNL     1       4.391   4.195  17.468  0.00  0.00    +0.000 C 
BRANCH  20  23
ATOM     21  C   UNL     1       7.035   4.772  14.753  0.00  0.00    +0.000 C 
ATOM     22  N   UNL     1       5.785   4.653  15.464  0.00  0.00    +0.000 N 
ATOM     23  C   UNL     1       5.785   4.365  16.817  0.00  0.00    +0.000 C 
ATOM     24  O   UNL     1       6.843   4.311  17.445  0.00  0.00    +0.000 OA
ATOM     25  H   UNL     1       4.920   4.796  14.956  0.00  0.00    +0.000 HD
ENDBRANCH  20  23
BRANCH  20  26
ATOM     26  C   UNL     1       4.286   2.887  18.266  0.00  0.00    +0.000 C 
ATOM     27  O   UNL     1       3.542   1.949  17.981  0.00  0.00    +0.000 OA
ATOM     28  N   UNL     1       5.163   2.811  19.335  0.00  0.00    +0.000 N 
ATOM     29  H   UNL     1       6.055   3.314  19.270  0.00  0.00    +0.000 HD
BRANCH  28  30
ATOM     30  O   UNL     1       5.207   1.550  19.982  0.00  0.00    +0.000 OA
ATOM     31  H   UNL     1       5.053   1.786  20.924  0.00  0.00    +0.000 HD
ENDBRANCH  28  30
ENDBRANCH  20  26
ENDBRANCH   1  20
TORSDOF 7
ENDMDL
MODEL 9
REMARK VINA RESULT:      -8.4      1.857      2.414
REMARK  Name = 
REMARK  11 active torsions:
REMARK  status: ('A' for Active; 'I' for Inactive)
REMARK    1  A    between atoms: C_1  and  N_2
REMARK    2  A    between atoms: C_3  and  C_5
REMARK    3  A    between atoms: C_5  and  C_6
REMARK    4  A    between atoms: C_5  and  N_10
REMARK    5  A    between atoms: N_8  and  O_9
REMARK    6  A    between atoms: N_10  and  C_11
REMARK    7  A    between atoms: C_12  and  C_14
REMARK    8  A    between atoms: C_17  and  C_18
REMARK    9  A    between atoms: C_21  and  N_22
REMARK   10  A    between atoms: N_22  and  C_23
REMARK   11  A    between atoms: N_22  and  C_24
REMARK                            x       y       z     vdW  Elec       q    Type
REMARK                         _______ _______ _______ _____ _____    ______ ____
ROOT
ATOM      1  N   UNL     1       3.145   4.812  18.027  0.00  0.00    +0.000 N 
ATOM      2  C   UNL     1       1.746   4.389  18.115  0.00  0.00    +0.000 C 
ATOM      3  C   UNL     1       3.587   6.133  18.149  0.00  0.00    +0.000 C 
ATOM      4  O   UNL     1       4.716   6.455  17.777  0.00  0.00    +0.000 OA
ENDROOT
BRANCH   3   5
ATOM      5  C   UNL     1       2.687   7.201  18.683  0.00  0.00    +0.000 A 
ATOM      6  C   UNL     1       2.275   7.234  20.012  0.00  0.00    +0.000 A 
ATOM      7  C   UNL     1       1.357   8.197  20.445  0.00  0.00    +0.000 A 
ATOM      8  C   UNL     1       0.896   9.221  19.599  0.00  0.00    +0.000 A 
ATOM      9  C   UNL     1       1.396   9.229  18.286  0.00  0.00    +0.000 A 
ATOM     10  C   UNL     1       2.275   8.227  17.826  0.00  0.00    +0.000 A 
BRANCH   8  11
ATOM     11  C   UNL     1      -0.081  10.229  20.087  0.00  0.00    +0.000 A 
ATOM     12  C   UNL     1      -0.911  10.932  19.203  0.00  0.00    +0.000 A 
ATOM     13  C   UNL     1      -1.773  11.950  19.640  0.00  0.00    +0.000 A 
ATOM     14  C   UNL     1      -1.886  12.310  20.989  0.00  0.00    +0.000 A 
ATOM     15  C   UNL     1      -1.089  11.575  21.875  0.00  0.00    +0.000 A 
ATOM     16  C   UNL     1      -0.203  10.568  21.441  0.00  0.00    +0.000 A 
BRANCH  14  17
ATOM     17  N   UNL     1      -2.693  13.361  21.392  0.00  0.00    +0.000 N 
ATOM     18  C   UNL     1      -2.485  14.718  20.890  0.00  0.00    +0.000 C 
ATOM     19  C   UNL     1      -3.972  13.144  22.059  0.00  0.00    +0.000 C 
ENDBRANCH  14  17
ENDBRANCH   8  11
ENDBRANCH   3   5
BRANCH   1  20
ATOM     20  C   UNL     1       4.138   3.796  17.585  0.00  0.00    +0.000 C 
BRANCH  20  23
ATOM     21  C   UNL     1       7.355   4.703  15.709  0.00  0.00    +0.000 C 
ATOM     22  N   UNL     1       6.415   4.272  16.715  0.00  0.00    +0.000 N 
ATOM     23  C   UNL     1       5.066   4.208  16.416  0.00  0.00    +0.000 C 
ATOM     24  O   UNL     1       4.668   4.415  15.269  0.00  0.00    +0.000 OA
ATOM     25  H   UNL     1       6.765   4.009  17.628  0.00  0.00    +0.000 HD
ENDBRANCH  20  23
BRANCH  20  26
ATOM     26  C   UNL     1       4.934   3.362  18.824  0.00  0.00    +0.000 C 
ATOM     27  O   UNL     1       5.711   4.084  19.448  0.00  0.00    +0.000 OA
ATOM     28  N   UNL     1       4.662   2.070  19.241  0.00  0.00    +0.000 N 
ATOM     29  H   UNL     1       3.728   1.685  19.058  0.00  0.00    +0.000 HD
BRANCH  28  30
ATOM     30  O   UNL     1       5.252   1.704  20.477  0.00  0.00    +0.000 OA
ATOM     31  H   UNL     1       4.837   0.833  20.665  0.00  0.00    +0.000 HD
ENDBRANCH  28  30
ENDBRANCH  20  26
ENDBRANCH   1  20
TORSDOF 7
ENDMDL
