MODEL 1
REMARK VINA RESULT:      -8.1      0.000      0.000
REMARK  Name = 
REMARK  5 active torsions:
REMARK  status: ('A' for Active; 'I' for Inactive)
REMARK    1  A    between atoms: C_1  and  O_2
REMARK    2  A    between atoms: O_2  and  C_3
REMARK    3  A    between atoms: C_6  and  C_7
REMARK    4  A    between atoms: C_7  and  C_9
REMARK    5  A    between atoms: C_10  and  C_11
REMARK                            x       y       z     vdW  Elec       q    Type
REMARK                         _______ _______ _______ _____ _____    ______ ____
ROOT
ATOM      1  C   UNL     1       2.224   8.601  17.705  0.00  0.00    +0.000 C 
ATOM      2  C   UNL     1       1.493   9.036  18.752  0.00  0.00    +0.000 C 
ENDROOT
BRANCH   2   3
ATOM      3  C   UNL     1       0.413   9.979  18.866  0.00  0.00    +0.000 A 
ATOM      4  C   UNL     1       0.580  11.021  19.770  0.00  0.00    +0.000 A 
ATOM      5  N   UNL     1      -0.678  11.365  20.164  0.00  0.00    +0.000 N 
ATOM      6  C   UNL     1      -1.508  11.179  19.093  0.00  0.00    +0.000 A 
ATOM      7  C   UNL     1      -2.745  11.779  18.837  0.00  0.00    +0.000 A 
ATOM      8  C   UNL     1      -3.347  11.501  17.615  0.00  0.00    +0.000 A 
ATOM      9  C   UNL     1      -2.752  10.593  16.743  0.00  0.00    +0.000 A 
ATOM     10 BR   UNL     1      -3.570  10.312  15.055  0.00  0.00    +0.000 Br
ATOM     11  C   UNL     1      -1.543   9.928  17.051  0.00  0.00    +0.000 A 
ATOM     12  C   UNL     1      -0.855  10.264  18.237  0.00  0.00    +0.000 A 
ATOM     13  H   UNL     1      -0.922  11.837  21.024  0.00  0.00    +0.000 HD
ENDBRANCH   2   3
BRANCH   1  14
ATOM     14  C   UNL     1       3.034   7.327  17.923  0.00  0.00    +0.000 C 
ATOM     15  O   UNL     1       4.240   7.305  17.634  0.00  0.00    +0.000 OA
BRANCH  14  19
ATOM     16  C   UNL     1       1.428   3.792  19.896  0.00  0.00    +0.000 A 
ATOM     17  C   UNL     1       1.868   4.900  20.612  0.00  0.00    +0.000 A 
ATOM     18  C   UNL     1       2.357   6.035  19.946  0.00  0.00    +0.000 A 
ATOM     19  C   UNL     1       2.441   6.087  18.539  0.00  0.00    +0.000 A 
ATOM     20  C   UNL     1       1.994   4.970  17.823  0.00  0.00    +0.000 A 
ATOM     21  C   UNL     1       1.489   3.830  18.499  0.00  0.00    +0.000 A 
BRANCH  16  23
ATOM     22  C   UNL     1       1.727   2.484  21.873  0.00  0.00    +0.000 C 
ATOM     23  O   UNL     1       1.022   2.739  20.664  0.00  0.00    +0.000 OA
ENDBRANCH  16  23
ENDBRANCH  14  19
ENDBRANCH   1  14
TORSDOF 4
ENDMDL
MODEL 2
REMARK VINA RESULT:      -7.8      0.424      1.104
REMARK  Name = 
REMARK  5 active torsions:
REMARK  status: ('A' for Active; 'I' for Inactive)
REMARK    1  A    between atoms: C_1  and  O_2
REMARK    2  A    between atoms: O_2  and  C_3
REMARK    3  A    between atoms: C_6  and  C_7
REMARK    4  A    between atoms: C_7  and  C_9
REMARK    5  A    between atoms: C_10  and  C_11
REMARK                            x       y       z     vdW  Elec       q    Type
REMARK                         _______ _______ _______ _____ _____    ______ ____
ROOT
ATOM      1  C   UNL     1       2.187   8.924  17.691  0.00  0.00    +0.000 C 
ATOM      2  C   UNL     1       1.210   9.127  18.599  0.00  0.00    +0.000 C 
ENDROOT
BRANCH   2   3
ATOM      3  C   UNL     1       0.096  10.035  18.649  0.00  0.00    +0.000 A 
ATOM      4  C   UNL     1       0.188  11.096  19.541  0.00  0.00    +0.000 A 
ATOM      5  N   UNL     1      -1.097  11.404  19.873  0.00  0.00    +0.000 N 
ATOM      6  C   UNL     1      -1.872  11.174  18.770  0.00  0.00    +0.000 A 
ATOM      7  C   UNL     1      -3.116  11.728  18.449  0.00  0.00    +0.000 A 
ATOM      8  C   UNL     1      -3.652  11.410  17.206  0.00  0.00    +0.000 A 
ATOM      9  C   UNL     1      -2.989  10.509  16.376  0.00  0.00    +0.000 A 
ATOM     10 BR   UNL     1      -3.720  10.174  14.659  0.00  0.00    +0.000 Br
ATOM     11  C   UNL     1      -1.774   9.890  16.749  0.00  0.00    +0.000 A 
ATOM     12  C   UNL     1      -1.151  10.268  17.959  0.00  0.00    +0.000 A 
ATOM     13  H   UNL     1      -1.395  11.881  20.713  0.00  0.00    +0.000 HD
ENDBRANCH   2   3
BRANCH   1  14
ATOM     14  C   UNL     1       2.975   7.623  17.820  0.00  0.00    +0.000 C 
ATOM     15  O   UNL     1       4.077   7.511  17.263  0.00  0.00    +0.000 OA
BRANCH  14  19
ATOM     16  C   UNL     1       1.485   4.188  20.045  0.00  0.00    +0.000 A 
ATOM     17  C   UNL     1       1.684   4.145  18.670  0.00  0.00    +0.000 A 
ATOM     18  C   UNL     1       2.190   5.262  17.984  0.00  0.00    +0.000 A 
ATOM     19  C   UNL     1       2.493   6.465  18.655  0.00  0.00    +0.000 A 
ATOM     20  C   UNL     1       2.293   6.501  20.040  0.00  0.00    +0.000 A 
ATOM     21  C   UNL     1       1.794   5.368  20.730  0.00  0.00    +0.000 A 
BRANCH  16  23
ATOM     22  C   UNL     1       1.644   2.420  21.645  0.00  0.00    +0.000 C 
ATOM     23  O   UNL     1       0.945   3.054  20.581  0.00  0.00    +0.000 OA
ENDBRANCH  16  23
ENDBRANCH  14  19
ENDBRANCH   1  14
TORSDOF 4
ENDMDL
MODEL 3
REMARK VINA RESULT:      -7.7      3.306      4.977
REMARK  Name = 
REMARK  5 active torsions:
REMARK  status: ('A' for Active; 'I' for Inactive)
REMARK    1  A    between atoms: C_1  and  O_2
REMARK    2  A    between atoms: O_2  and  C_3
REMARK    3  A    between atoms: C_6  and  C_7
REMARK    4  A    between atoms: C_7  and  C_9
REMARK    5  A    between atoms: C_10  and  C_11
REMARK                            x       y       z     vdW  Elec       q    Type
REMARK                         _______ _______ _______ _____ _____    ______ ____
ROOT
ATOM      1  C   UNL     1       2.474   6.024  19.879  0.00  0.00    +0.000 C 
ATOM      2  C   UNL     1       2.407   6.936  18.887  0.00  0.00    +0.000 C 
ENDROOT
BRANCH   2   3
ATOM      3  C   UNL     1       1.891   8.276  18.825  0.00  0.00    +0.000 A 
ATOM      4  C   UNL     1       1.817   8.866  17.569  0.00  0.00    +0.000 A 
ATOM      5  N   UNL     1       1.924  10.206  17.789  0.00  0.00    +0.000 N 
ATOM      6  C   UNL     1       1.318  10.474  18.986  0.00  0.00    +0.000 A 
ATOM      7  C   UNL     1       0.777  11.683  19.436  0.00  0.00    +0.000 A 
ATOM      8  C   UNL     1       0.114  11.669  20.658  0.00  0.00    +0.000 A 
ATOM      9  C   UNL     1       0.082  10.499  21.413  0.00  0.00    +0.000 A 
ATOM     10 BR   UNL     1      -0.905  10.510  23.032  0.00  0.00    +0.000 Br
ATOM     11  C   UNL     1       0.706   9.304  20.985  0.00  0.00    +0.000 A 
ATOM     12  C   UNL     1       1.299   9.258  19.704  0.00  0.00    +0.000 A 
ATOM     13  H   UNL     1       2.232  10.896  17.117  0.00  0.00    +0.000 HD
ENDBRANCH   2   3
BRANCH   1  14
ATOM     14  C   UNL     1       3.422   4.848  19.658  0.00  0.00    +0.000 C 
ATOM     15  O   UNL     1       3.234   3.782  20.263  0.00  0.00    +0.000 OA
BRANCH  14  19
ATOM     16  C   UNL     1       6.629   4.842  16.712  0.00  0.00    +0.000 A 
ATOM     17  C   UNL     1       5.359   4.357  16.420  0.00  0.00    +0.000 A 
ATOM     18  C   UNL     1       4.339   4.396  17.384  0.00  0.00    +0.000 A 
ATOM     19  C   UNL     1       4.566   4.904  18.680  0.00  0.00    +0.000 A 
ATOM     20  C   UNL     1       5.846   5.394  18.966  0.00  0.00    +0.000 A 
ATOM     21  C   UNL     1       6.870   5.364  17.986  0.00  0.00    +0.000 A 
BRANCH  16  23
ATOM     22  C   UNL     1       7.081   4.844  14.365  0.00  0.00    +0.000 C 
ATOM     23  O   UNL     1       7.540   4.702  15.704  0.00  0.00    +0.000 OA
ENDBRANCH  16  23
ENDBRANCH  14  19
ENDBRANCH   1  14
TORSDOF 4
ENDMDL
MODEL 4
REMARK VINA RESULT:      -7.7      5.315      8.317
REMARK  Name = 
REMARK  5 active torsions:
REMARK  status: ('A' for Active; 'I' for Inactive)
REMARK    1  A    between atoms: C_1  and  O_2
REMARK    2  A    between atoms: O_2  and  C_3
REMARK    3  A    between atoms: C_6  and  C_7
REMARK    4  A    between atoms: C_7  and  C_9
REMARK    5  A    between atoms: C_10  and  C_11
REMARK                            x       y       z     vdW  Elec       q    Type
REMARK                         _______ _______ _______ _____ _____    ______ ____
ROOT
ATOM      1  C   UNL     1       3.527   3.588  17.085  0.00  0.00    +0.000 C 
ATOM      2  C   UNL     1       4.686   4.277  17.128  0.00  0.00    +0.000 C 
ENDROOT
BRANCH   2   3
ATOM      3  C   UNL     1       5.714   4.523  16.153  0.00  0.00    +0.000 A 
ATOM      4  C   UNL     1       6.890   5.103  16.610  0.00  0.00    +0.000 A 
ATOM      5  N   UNL     1       7.398   5.785  15.545  0.00  0.00    +0.000 N 
ATOM      6  C   UNL     1       7.080   5.078  14.418  0.00  0.00    +0.000 A 
ATOM      7  C   UNL     1       7.715   5.095  13.172  0.00  0.00    +0.000 A 
ATOM      8  C   UNL     1       7.261   4.197  12.213  0.00  0.00    +0.000 A 
ATOM      9  C   UNL     1       6.163   3.386  12.491  0.00  0.00    +0.000 A 
ATOM     10 BR   UNL     1       5.636   2.120  11.181  0.00  0.00    +0.000 Br
ATOM     11  C   UNL     1       5.476   3.438  13.725  0.00  0.00    +0.000 A 
ATOM     12  C   UNL     1       5.974   4.266  14.756  0.00  0.00    +0.000 A 
ATOM     13  H   UNL     1       8.039   6.565  15.590  0.00  0.00    +0.000 HD
ENDBRANCH   2   3
BRANCH   1  14
ATOM     14  C   UNL     1       2.531   3.862  18.208  0.00  0.00    +0.000 C 
ATOM     15  O   UNL     1       1.871   2.929  18.689  0.00  0.00    +0.000 OA
BRANCH  14  19
ATOM     16  C   UNL     1       1.860   7.725  20.103  0.00  0.00    +0.000 A 
ATOM     17  C   UNL     1       1.660   6.527  20.781  0.00  0.00    +0.000 A 
ATOM     18  C   UNL     1       1.909   5.298  20.150  0.00  0.00    +0.000 A 
ATOM     19  C   UNL     1       2.348   5.230  18.811  0.00  0.00    +0.000 A 
ATOM     20  C   UNL     1       2.551   6.439  18.135  0.00  0.00    +0.000 A 
ATOM     21  C   UNL     1       2.309   7.680  18.779  0.00  0.00    +0.000 A 
BRANCH  16  23
ATOM     22  C   UNL     1       0.178   9.272  20.803  0.00  0.00    +0.000 C 
ATOM     23  O   UNL     1       1.535   8.845  20.813  0.00  0.00    +0.000 OA
ENDBRANCH  16  23
ENDBRANCH  14  19
ENDBRANCH   1  14
TORSDOF 4
ENDMDL
MODEL 5
REMARK VINA RESULT:      -7.6      3.635      5.352
REMARK  Name = 
REMARK  5 active torsions:
REMARK  status: ('A' for Active; 'I' for Inactive)
REMARK    1  A    between atoms: C_1  and  O_2
REMARK    2  A    between atoms: O_2  and  C_3
REMARK    3  A    between atoms: C_6  and  C_7
REMARK    4  A    between atoms: C_7  and  C_9
REMARK    5  A    between atoms: C_10  and  C_11
REMARK                            x       y       z     vdW  Elec       q    Type
REMARK                         _______ _______ _______ _____ _____    ______ ____
ROOT
ATOM      1  C   UNL     1       3.210   5.695  19.544  0.00  0.00    +0.000 C 
ATOM      2  C   UNL     1       2.815   6.562  18.590  0.00  0.00    +0.000 C 
ENDROOT
BRANCH   2   3
ATOM      3  C   UNL     1       2.168   7.846  18.642  0.00  0.00    +0.000 A 
ATOM      4  C   UNL     1       1.908   8.470  17.429  0.00  0.00    +0.000 A 
ATOM      5  N   UNL     1       1.908   9.806  17.700  0.00  0.00    +0.000 N 
ATOM      6  C   UNL     1       1.407   9.967  18.962  0.00  0.00    +0.000 A 
ATOM      7  C   UNL     1       0.803  11.099  19.520  0.00  0.00    +0.000 A 
ATOM      8  C   UNL     1       0.276  10.973  20.801  0.00  0.00    +0.000 A 
ATOM      9  C   UNL     1       0.435   9.779  21.500  0.00  0.00    +0.000 A 
ATOM     10 BR   UNL     1      -0.374   9.632  23.208  0.00  0.00    +0.000 Br
ATOM     11  C   UNL     1       1.123   8.670  20.956  0.00  0.00    +0.000 A 
ATOM     12  C   UNL     1       1.580   8.730  19.622  0.00  0.00    +0.000 A 
ATOM     13  H   UNL     1       2.076  10.547  17.033  0.00  0.00    +0.000 HD
ENDBRANCH   2   3
BRANCH   1  14
ATOM     14  C   UNL     1       4.188   4.606  19.110  0.00  0.00    +0.000 C 
ATOM     15  O   UNL     1       4.265   3.551  19.758  0.00  0.00    +0.000 OA
BRANCH  14  19
ATOM     16  C   UNL     1       6.760   5.148  15.638  0.00  0.00    +0.000 A 
ATOM     17  C   UNL     1       7.114   5.618  16.898  0.00  0.00    +0.000 A 
ATOM     18  C   UNL     1       6.275   5.406  18.003  0.00  0.00    +0.000 A 
ATOM     19  C   UNL     1       5.042   4.732  17.876  0.00  0.00    +0.000 A 
ATOM     20  C   UNL     1       4.693   4.257  16.606  0.00  0.00    +0.000 A 
ATOM     21  C   UNL     1       5.549   4.464  15.494  0.00  0.00    +0.000 A 
BRANCH  16  23
ATOM     22  C   UNL     1       7.408   4.916  13.349  0.00  0.00    +0.000 C 
ATOM     23  O   UNL     1       7.640   5.462  14.642  0.00  0.00    +0.000 OA
ENDBRANCH  16  23
ENDBRANCH  14  19
ENDBRANCH   1  14
TORSDOF 4
ENDMDL
MODEL 6
REMARK VINA RESULT:      -7.5      2.376      3.649
REMARK  Name = 
REMARK  5 active torsions:
REMARK  status: ('A' for Active; 'I' for Inactive)
REMARK    1  A    between atoms: C_1  and  O_2
REMARK    2  A    between atoms: O_2  and  C_3
REMARK    3  A    between atoms: C_6  and  C_7
REMARK    4  A    between atoms: C_7  and  C_9
REMARK    5  A    between atoms: C_10  and  C_11
REMARK                            x       y       z     vdW  Elec       q    Type
REMARK                         _______ _______ _______ _____ _____    ______ ____
ROOT
ATOM      1  C   UNL     1       2.207   8.023  18.430  0.00  0.00    +0.000 C 
ATOM      2  C   UNL     1       1.552   8.700  19.395  0.00  0.00    +0.000 C 
ENDROOT
BRANCH   2   3
ATOM      3  C   UNL     1       0.579   9.757  19.359  0.00  0.00    +0.000 A 
ATOM      4  C   UNL     1       0.786  10.834  20.212  0.00  0.00    +0.000 A 
ATOM      5  N   UNL     1      -0.453  11.336  20.473  0.00  0.00    +0.000 N 
ATOM      6  C   UNL     1      -1.209  11.167  19.345  0.00  0.00    +0.000 A 
ATOM      7  C   UNL     1      -2.347  11.877  18.946  0.00  0.00    +0.000 A 
ATOM      8  C   UNL     1      -2.874  11.582  17.694  0.00  0.00    +0.000 A 
ATOM      9  C   UNL     1      -2.314  10.559  16.932  0.00  0.00    +0.000 A 
ATOM     10 BR   UNL     1      -3.018  10.254  15.197  0.00  0.00    +0.000 Br
ATOM     11  C   UNL     1      -1.216   9.792  17.383  0.00  0.00    +0.000 A 
ATOM     12  C   UNL     1      -0.594  10.133  18.605  0.00  0.00    +0.000 A 
ATOM     13  H   UNL     1      -0.713  11.888  21.279  0.00  0.00    +0.000 HD
ENDBRANCH   2   3
BRANCH   1  14
ATOM     14  C   UNL     1       2.888   6.724  18.852  0.00  0.00    +0.000 C 
ATOM     15  O   UNL     1       2.392   6.032  19.753  0.00  0.00    +0.000 OA
BRANCH  14  19
ATOM     16  C   UNL     1       6.382   5.276  16.692  0.00  0.00    +0.000 A 
ATOM     17  C   UNL     1       5.514   6.216  16.146  0.00  0.00    +0.000 A 
ATOM     18  C   UNL     1       4.411   6.682  16.877  0.00  0.00    +0.000 A 
ATOM     19  C   UNL     1       4.129   6.204  18.175  0.00  0.00    +0.000 A 
ATOM     20  C   UNL     1       5.007   5.261  18.721  0.00  0.00    +0.000 A 
ATOM     21  C   UNL     1       6.128   4.801  17.983  0.00  0.00    +0.000 A 
BRANCH  16  23
ATOM     22  C   UNL     1       7.092   4.739  14.474  0.00  0.00    +0.000 C 
ATOM     23  O   UNL     1       7.386   4.872  15.860  0.00  0.00    +0.000 OA
ENDBRANCH  16  23
ENDBRANCH  14  19
ENDBRANCH   1  14
TORSDOF 4
ENDMDL
MODEL 7
REMARK VINA RESULT:      -7.5      5.332      8.367
REMARK  Name = 
REMARK  5 active torsions:
REMARK  status: ('A' for Active; 'I' for Inactive)
REMARK    1  A    between atoms: C_1  and  O_2
REMARK    2  A    between atoms: O_2  and  C_3
REMARK    3  A    between atoms: C_6  and  C_7
REMARK    4  A    between atoms: C_7  and  C_9
REMARK    5  A    between atoms: C_10  and  C_11
REMARK                            x       y       z     vdW  Elec       q    Type
REMARK                         _______ _______ _______ _____ _____    ______ ____
ROOT
ATOM      1  C   UNL     1       3.675   3.401  17.183  0.00  0.00    +0.000 C 
ATOM      2  C   UNL     1       4.883   3.997  17.252  0.00  0.00    +0.000 C 
ENDROOT
BRANCH   2   3
ATOM      3  C   UNL     1       5.855   4.354  16.255  0.00  0.00    +0.000 A 
ATOM      4  C   UNL     1       7.008   4.990  16.698  0.00  0.00    +0.000 A 
ATOM      5  N   UNL     1       7.430   5.751  15.650  0.00  0.00    +0.000 N 
ATOM      6  C   UNL     1       7.116   5.076  14.502  0.00  0.00    +0.000 A 
ATOM      7  C   UNL     1       7.701   5.193  13.237  0.00  0.00    +0.000 A 
ATOM      8  C   UNL     1       7.270   4.310  12.253  0.00  0.00    +0.000 A 
ATOM      9  C   UNL     1       6.238   3.416  12.529  0.00  0.00    +0.000 A 
ATOM     10 BR   UNL     1       5.746   2.179  11.179  0.00  0.00    +0.000 Br
ATOM     11  C   UNL     1       5.597   3.367  13.788  0.00  0.00    +0.000 A 
ATOM     12  C   UNL     1       6.078   4.178  14.839  0.00  0.00    +0.000 A 
ATOM     13  H   UNL     1       8.020   6.570  15.709  0.00  0.00    +0.000 HD
ENDBRANCH   2   3
BRANCH   1  14
ATOM     14  C   UNL     1       2.785   3.523  18.416  0.00  0.00    +0.000 C 
ATOM     15  O   UNL     1       2.372   2.501  18.984  0.00  0.00    +0.000 OA
BRANCH  14  19
ATOM     16  C   UNL     1       1.873   7.470  20.016  0.00  0.00    +0.000 A 
ATOM     17  C   UNL     1       2.340   7.290  18.719  0.00  0.00    +0.000 A 
ATOM     18  C   UNL     1       2.601   6.003  18.223  0.00  0.00    +0.000 A 
ATOM     19  C   UNL     1       2.421   4.854  19.022  0.00  0.00    +0.000 A 
ATOM     20  C   UNL     1       1.948   5.041  20.326  0.00  0.00    +0.000 A 
ATOM     21  C   UNL     1       1.674   6.342  20.819  0.00  0.00    +0.000 A 
BRANCH  16  23
ATOM     22  C   UNL     1       1.007   9.036  21.600  0.00  0.00    +0.000 C 
ATOM     23  O   UNL     1       1.705   8.773  20.389  0.00  0.00    +0.000 OA
ENDBRANCH  16  23
ENDBRANCH  14  19
ENDBRANCH   1  14
TORSDOF 4
ENDMDL
MODEL 8
REMARK VINA RESULT:      -7.5      3.903      7.780
REMARK  Name = 
REMARK  5 active torsions:
REMARK  status: ('A' for Active; 'I' for Inactive)
REMARK    1  A    between atoms: C_1  and  O_2
REMARK    2  A    between atoms: O_2  and  C_3
REMARK    3  A    between atoms: C_6  and  C_7
REMARK    4  A    between atoms: C_7  and  C_9
REMARK    5  A    between atoms: C_10  and  C_11
REMARK                            x       y       z     vdW  Elec       q    Type
REMARK                         _______ _______ _______ _____ _____    ______ ____
ROOT
ATOM      1  C   UNL     1       1.562   8.639  18.800  0.00  0.00    +0.000 C 
ATOM      2  C   UNL     1       2.642   8.132  18.171  0.00  0.00    +0.000 C 
ENDROOT
BRANCH   2   3
ATOM      3  C   UNL     1       3.171   6.799  18.056  0.00  0.00    +0.000 A 
ATOM      4  C   UNL     1       4.334   6.645  17.313  0.00  0.00    +0.000 A 
ATOM      5  N   UNL     1       4.290   5.372  16.828  0.00  0.00    +0.000 N 
ATOM      6  C   UNL     1       3.671   4.597  17.770  0.00  0.00    +0.000 A 
ATOM      7  C   UNL     1       3.771   3.215  17.961  0.00  0.00    +0.000 A 
ATOM      8  C   UNL     1       3.120   2.676  19.066  0.00  0.00    +0.000 A 
ATOM      9  C   UNL     1       2.343   3.498  19.879  0.00  0.00    +0.000 A 
ATOM     10 BR   UNL     1       1.546   2.730  21.419  0.00  0.00    +0.000 Br
ATOM     11  C   UNL     1       2.182   4.879  19.626  0.00  0.00    +0.000 A 
ATOM     12  C   UNL     1       2.910   5.476  18.573  0.00  0.00    +0.000 A 
ATOM     13  H   UNL     1       4.778   5.030  16.012  0.00  0.00    +0.000 HD
ENDBRANCH   2   3
BRANCH   1  14
ATOM     14  C   UNL     1       1.133  10.044  18.387  0.00  0.00    +0.000 C 
ATOM     15  O   UNL     1       1.988  10.880  18.061  0.00  0.00    +0.000 OA
BRANCH  14  19
ATOM     16  C   UNL     1      -3.029  11.326  18.351  0.00  0.00    +0.000 A 
ATOM     17  C   UNL     1      -2.075  11.943  19.153  0.00  0.00    +0.000 A 
ATOM     18  C   UNL     1      -0.735  11.523  19.123  0.00  0.00    +0.000 A 
ATOM     19  C   UNL     1      -0.314  10.456  18.303  0.00  0.00    +0.000 A 
ATOM     20  C   UNL     1      -1.278   9.841  17.495  0.00  0.00    +0.000 A 
ATOM     21  C   UNL     1      -2.628  10.276  17.519  0.00  0.00    +0.000 A 
BRANCH  16  23
ATOM     22  C   UNL     1      -5.337  11.193  17.744  0.00  0.00    +0.000 C 
ATOM     23  O   UNL     1      -4.301  11.798  18.509  0.00  0.00    +0.000 OA
ENDBRANCH  16  23
ENDBRANCH  14  19
ENDBRANCH   1  14
TORSDOF 4
ENDMDL
MODEL 9
REMARK VINA RESULT:      -7.4      3.867      7.789
REMARK  Name = 
REMARK  5 active torsions:
REMARK  status: ('A' for Active; 'I' for Inactive)
REMARK    1  A    between atoms: C_1  and  O_2
REMARK    2  A    between atoms: O_2  and  C_3
REMARK    3  A    between atoms: C_6  and  C_7
REMARK    4  A    between atoms: C_7  and  C_9
REMARK    5  A    between atoms: C_10  and  C_11
REMARK                            x       y       z     vdW  Elec       q    Type
REMARK                         _______ _______ _______ _____ _____    ______ ____
ROOT
ATOM      1  C   UNL     1       1.711   8.746  18.868  0.00  0.00    +0.000 C 
ATOM      2  C   UNL     1       2.688   8.203  18.113  0.00  0.00    +0.000 C 
ENDROOT
BRANCH   2   3
ATOM      3  C   UNL     1       3.207   6.867  17.999  0.00  0.00    +0.000 A 
ATOM      4  C   UNL     1       4.387   6.708  17.284  0.00  0.00    +0.000 A 
ATOM      5  N   UNL     1       4.343   5.440  16.787  0.00  0.00    +0.000 N 
ATOM      6  C   UNL     1       3.694   4.662  17.706  0.00  0.00    +0.000 A 
ATOM      7  C   UNL     1       3.775   3.277  17.886  0.00  0.00    +0.000 A 
ATOM      8  C   UNL     1       3.093   2.735  18.969  0.00  0.00    +0.000 A 
ATOM      9  C   UNL     1       2.303   3.557  19.770  0.00  0.00    +0.000 A 
ATOM     10 BR   UNL     1       1.460   2.783  21.282  0.00  0.00    +0.000 Br
ATOM     11  C   UNL     1       2.161   4.942  19.526  0.00  0.00    +0.000 A 
ATOM     12  C   UNL     1       2.921   5.541  18.497  0.00  0.00    +0.000 A 
ATOM     13  H   UNL     1       4.848   5.101  15.980  0.00  0.00    +0.000 HD
ENDBRANCH   2   3
BRANCH   1  14
ATOM     14  C   UNL     1       1.208  10.123  18.442  0.00  0.00    +0.000 C 
ATOM     15  O   UNL     1       2.014  10.979  18.047  0.00  0.00    +0.000 OA
BRANCH  14  19
ATOM     16  C   UNL     1      -3.034  11.074  18.185  0.00  0.00    +0.000 A 
ATOM     17  C   UNL     1      -2.448  10.095  17.390  0.00  0.00    +0.000 A 
ATOM     18  C   UNL     1      -1.082   9.794  17.514  0.00  0.00    +0.000 A 
ATOM     19  C   UNL     1      -0.255  10.480  18.427  0.00  0.00    +0.000 A 
ATOM     20  C   UNL     1      -0.850  11.462  19.227  0.00  0.00    +0.000 A 
ATOM     21  C   UNL     1      -2.233  11.756  19.107  0.00  0.00    +0.000 A 
BRANCH  16  23
ATOM     22  C   UNL     1      -5.078  12.123  18.842  0.00  0.00    +0.000 C 
ATOM     23  O   UNL     1      -4.356  11.302  17.932  0.00  0.00    +0.000 OA
ENDBRANCH  16  23
ENDBRANCH  14  19
ENDBRANCH   1  14
TORSDOF 4
ENDMDL
