MODEL 1
REMARK VINA RESULT:      -7.0      0.000      0.000
REMARK  Name = 
REMARK  11 active torsions:
REMARK  status: ('A' for Active; 'I' for Inactive)
REMARK    1  A    between atoms: C_1  and  C_2
REMARK    2  A    between atoms: C_2  and  O_3
REMARK    3  A    between atoms: O_3  and  C_4
REMARK    4  A    between atoms: C_4  and  C_6
REMARK    5  A    between atoms: C_11  and  S_12
REMARK    6  A    between atoms: S_12  and  C_13
REMARK    7  A    between atoms: C_13  and  C_14
REMARK    8  A    between atoms: N_16  and  C_17
REMARK    9  A    between atoms: N_16  and  C_19
REMARK   10  A    between atoms: C_17  and  C_18
REMARK   11  A    between atoms: C_23  and  C_24
REMARK                            x       y       z     vdW  Elec       q    Type
REMARK                         _______ _______ _______ _____ _____    ______ ____
ROOT
ATOM      1  C   UNL     1       4.662   6.486  17.536  0.00  0.00    +0.000 C 
ENDROOT
BRANCH   1   2
ATOM      2  C   UNL     1       5.172   6.269  16.109  0.00  0.00    +0.000 C 
ATOM      3  O   UNL     1       4.835   7.031  15.197  0.00  0.00    +0.000 OA
ATOM      4  N   UNL     1       5.937   5.105  15.871  0.00  0.00    +0.000 N 
BRANCH   4   5
ATOM      5  C   UNL     1       6.358   4.812  14.532  0.00  0.00    +0.000 A 
ATOM      6  C   UNL     1       7.483   5.440  13.985  0.00  0.00    +0.000 A 
ATOM      7  C   UNL     1       7.931   5.102  12.706  0.00  0.00    +0.000 A 
ATOM      8  C   UNL     1       7.239   4.163  11.942  0.00  0.00    +0.000 A 
ATOM      9  C   UNL     1       6.095   3.544  12.457  0.00  0.00    +0.000 A 
ATOM     10  C   UNL     1       5.302   2.572  11.634  0.00  0.00    +0.000 C 
ATOM     11  C   UNL     1       5.678   3.858  13.759  0.00  0.00    +0.000 A 
ENDBRANCH   4   5
BRANCH   4  12
ATOM     12  C   UNL     1       6.374   4.135  16.900  0.00  0.00    +0.000 C 
ATOM     13  C   UNL     1       7.638   4.590  17.627  0.00  0.00    +0.000 C 
ENDBRANCH   4  12
ENDBRANCH   1   2
BRANCH   1  14
ATOM     14  S   UNL     1       3.261   5.374  17.979  0.00  0.00    +0.000 S 
BRANCH  14  20
ATOM     15  C   UNL     1       1.639   5.926  20.237  0.00  0.00    +0.000 A 
ATOM     16  C   UNL     1       1.031   6.861  21.091  0.00  0.00    +0.000 A 
ATOM     17  C   UNL     1       1.171   8.223  20.857  0.00  0.00    +0.000 A 
ATOM     18  C   UNL     1       1.919   8.610  19.766  0.00  0.00    +0.000 A 
ATOM     19  N   UNL     1       2.502   7.740  18.914  0.00  0.00    +0.000 NA
ATOM     20  C   UNL     1       2.378   6.405  19.152  0.00  0.00    +0.000 A 
BRANCH  15  21
ATOM     21  C   UNL     1       1.500   4.515  20.654  0.00  0.00    +0.000 C 
ATOM     22  O   UNL     1       0.632   3.794  20.176  0.00  0.00    +0.000 OA
BRANCH  21  23
ATOM     23  O   UNL     1       2.493   4.109  21.474  0.00  0.00    +0.000 OA
BRANCH  23  25
ATOM     24  C   UNL     1       3.892   2.510  20.281  0.00  0.00    +0.000 C 
ATOM     25  C   UNL     1       2.847   2.718  21.363  0.00  0.00    +0.000 C 
ENDBRANCH  23  25
ENDBRANCH  21  23
ENDBRANCH  15  21
ENDBRANCH  14  20
ENDBRANCH   1  14
TORSDOF 8
ENDMDL
MODEL 2
REMARK VINA RESULT:      -6.9      3.461      7.899
REMARK  Name = 
REMARK  11 active torsions:
REMARK  status: ('A' for Active; 'I' for Inactive)
REMARK    1  A    between atoms: C_1  and  C_2
REMARK    2  A    between atoms: C_2  and  O_3
REMARK    3  A    between atoms: O_3  and  C_4
REMARK    4  A    between atoms: C_4  and  C_6
REMARK    5  A    between atoms: C_11  and  S_12
REMARK    6  A    between atoms: S_12  and  C_13
REMARK    7  A    between atoms: C_13  and  C_14
REMARK    8  A    between atoms: N_16  and  C_17
REMARK    9  A    between atoms: N_16  and  C_19
REMARK   10  A    between atoms: C_17  and  C_18
REMARK   11  A    between atoms: C_23  and  C_24
REMARK                            x       y       z     vdW  Elec       q    Type
REMARK                         _______ _______ _______ _____ _____    ______ ____
ROOT
ATOM      1  C   UNL     1       2.576   7.308  19.207  0.00  0.00    +0.000 C 
ENDROOT
BRANCH   1   2
ATOM      2  C   UNL     1       1.768   8.502  18.690  0.00  0.00    +0.000 C 
ATOM      3  O   UNL     1       1.778   8.797  17.490  0.00  0.00    +0.000 OA
ATOM      4  N   UNL     1       1.120   9.305  19.655  0.00  0.00    +0.000 N 
BRANCH   4   5
ATOM      5  C   UNL     1       0.429  10.485  19.226  0.00  0.00    +0.000 A 
ATOM      6  C   UNL     1       1.009  11.750  19.383  0.00  0.00    +0.000 A 
ATOM      7  C   UNL     1       0.363  12.890  18.901  0.00  0.00    +0.000 A 
ATOM      8  C   UNL     1      -0.887  12.788  18.292  0.00  0.00    +0.000 A 
ATOM      9  C   UNL     1      -1.499  11.538  18.150  0.00  0.00    +0.000 A 
ATOM     10  C   UNL     1      -2.867  11.408  17.548  0.00  0.00    +0.000 C 
ATOM     11  C   UNL     1      -0.823  10.394  18.598  0.00  0.00    +0.000 A 
ENDBRANCH   4   5
BRANCH   4  12
ATOM     12  C   UNL     1       1.069   9.032  21.109  0.00  0.00    +0.000 C 
ATOM     13  C   UNL     1      -0.293   8.498  21.552  0.00  0.00    +0.000 C 
ENDBRANCH   4  12
ENDBRANCH   1   2
BRANCH   1  14
ATOM     14  S   UNL     1       3.767   6.650  17.964  0.00  0.00    +0.000 S 
BRANCH  14  20
ATOM     15  C   UNL     1       4.098   3.867  17.545  0.00  0.00    +0.000 A 
ATOM     16  C   UNL     1       3.569   2.566  17.578  0.00  0.00    +0.000 A 
ATOM     17  C   UNL     1       2.252   2.352  17.963  0.00  0.00    +0.000 A 
ATOM     18  C   UNL     1       1.499   3.455  18.303  0.00  0.00    +0.000 A 
ATOM     19  N   UNL     1       1.968   4.720  18.264  0.00  0.00    +0.000 NA
ATOM     20  C   UNL     1       3.264   4.929  17.903  0.00  0.00    +0.000 A 
BRANCH  15  21
ATOM     21  C   UNL     1       5.538   3.948  17.219  0.00  0.00    +0.000 C 
ATOM     22  O   UNL     1       5.938   3.813  16.068  0.00  0.00    +0.000 OA
BRANCH  21  23
ATOM     23  O   UNL     1       6.296   4.316  18.275  0.00  0.00    +0.000 OA
BRANCH  23  25
ATOM     24  C   UNL     1       7.609   6.364  18.430  0.00  0.00    +0.000 C 
ATOM     25  C   UNL     1       7.555   4.928  17.939  0.00  0.00    +0.000 C 
ENDBRANCH  23  25
ENDBRANCH  21  23
ENDBRANCH  15  21
ENDBRANCH  14  20
ENDBRANCH   1  14
TORSDOF 8
ENDMDL
MODEL 3
REMARK VINA RESULT:      -6.9      3.144      7.995
REMARK  Name = 
REMARK  11 active torsions:
REMARK  status: ('A' for Active; 'I' for Inactive)
REMARK    1  A    between atoms: C_1  and  C_2
REMARK    2  A    between atoms: C_2  and  O_3
REMARK    3  A    between atoms: O_3  and  C_4
REMARK    4  A    between atoms: C_4  and  C_6
REMARK    5  A    between atoms: C_11  and  S_12
REMARK    6  A    between atoms: S_12  and  C_13
REMARK    7  A    between atoms: C_13  and  C_14
REMARK    8  A    between atoms: N_16  and  C_17
REMARK    9  A    between atoms: N_16  and  C_19
REMARK   10  A    between atoms: C_17  and  C_18
REMARK   11  A    between atoms: C_23  and  C_24
REMARK                            x       y       z     vdW  Elec       q    Type
REMARK                         _______ _______ _______ _____ _____    ______ ____
ROOT
ATOM      1  C   UNL     1       2.604   7.394  19.046  0.00  0.00    +0.000 C 
ENDROOT
BRANCH   1   2
ATOM      2  C   UNL     1       1.804   8.603  18.552  0.00  0.00    +0.000 C 
ATOM      3  O   UNL     1       1.828   8.930  17.361  0.00  0.00    +0.000 OA
ATOM      4  N   UNL     1       1.148   9.382  19.532  0.00  0.00    +0.000 N 
BRANCH   4   5
ATOM      5  C   UNL     1       0.464  10.574  19.127  0.00  0.00    +0.000 A 
ATOM      6  C   UNL     1       1.067  11.830  19.277  0.00  0.00    +0.000 A 
ATOM      7  C   UNL     1       0.426  12.982  18.818  0.00  0.00    +0.000 A 
ATOM      8  C   UNL     1      -0.840  12.903  18.240  0.00  0.00    +0.000 A 
ATOM      9  C   UNL     1      -1.474  11.663  18.106  0.00  0.00    +0.000 A 
ATOM     10  C   UNL     1      -2.859  11.558  17.539  0.00  0.00    +0.000 C 
ATOM     11  C   UNL     1      -0.804  10.506  18.531  0.00  0.00    +0.000 A 
ENDBRANCH   4   5
BRANCH   4  12
ATOM     12  C   UNL     1       1.081   9.071  20.978  0.00  0.00    +0.000 C 
ATOM     13  C   UNL     1      -0.271   8.486  21.384  0.00  0.00    +0.000 C 
ENDBRANCH   4  12
ENDBRANCH   1   2
BRANCH   1  14
ATOM     14  S   UNL     1       3.749   6.716  17.770  0.00  0.00    +0.000 S 
BRANCH  14  20
ATOM     15  C   UNL     1       4.149   3.919  17.555  0.00  0.00    +0.000 A 
ATOM     16  C   UNL     1       3.638   2.612  17.639  0.00  0.00    +0.000 A 
ATOM     17  C   UNL     1       2.302   2.399  17.952  0.00  0.00    +0.000 A 
ATOM     18  C   UNL     1       1.512   3.506  18.169  0.00  0.00    +0.000 A 
ATOM     19  N   UNL     1       1.963   4.775  18.079  0.00  0.00    +0.000 NA
ATOM     20  C   UNL     1       3.277   4.986  17.789  0.00  0.00    +0.000 A 
BRANCH  15  21
ATOM     21  C   UNL     1       5.605   4.007  17.318  0.00  0.00    +0.000 C 
ATOM     22  O   UNL     1       6.377   4.325  18.215  0.00  0.00    +0.000 OA
BRANCH  21  23
ATOM     23  O   UNL     1       5.965   3.570  16.092  0.00  0.00    +0.000 OA
BRANCH  23  25
ATOM     24  C   UNL     1       6.180   3.922  13.690  0.00  0.00    +0.000 C 
ATOM     25  C   UNL     1       5.787   4.523  15.028  0.00  0.00    +0.000 C 
ENDBRANCH  23  25
ENDBRANCH  21  23
ENDBRANCH  15  21
ENDBRANCH  14  20
ENDBRANCH   1  14
TORSDOF 8
ENDMDL
MODEL 4
REMARK VINA RESULT:      -6.8      3.934      7.643
REMARK  Name = 
REMARK  11 active torsions:
REMARK  status: ('A' for Active; 'I' for Inactive)
REMARK    1  A    between atoms: C_1  and  C_2
REMARK    2  A    between atoms: C_2  and  O_3
REMARK    3  A    between atoms: O_3  and  C_4
REMARK    4  A    between atoms: C_4  and  C_6
REMARK    5  A    between atoms: C_11  and  S_12
REMARK    6  A    between atoms: S_12  and  C_13
REMARK    7  A    between atoms: C_13  and  C_14
REMARK    8  A    between atoms: N_16  and  C_17
REMARK    9  A    between atoms: N_16  and  C_19
REMARK   10  A    between atoms: C_17  and  C_18
REMARK   11  A    between atoms: C_23  and  C_24
REMARK                            x       y       z     vdW  Elec       q    Type
REMARK                         _______ _______ _______ _____ _____    ______ ____
ROOT
ATOM      1  C   UNL     1       2.565   7.339  19.212  0.00  0.00    +0.000 C 
ENDROOT
BRANCH   1   2
ATOM      2  C   UNL     1       1.836   8.578  18.683  0.00  0.00    +0.000 C 
ATOM      3  O   UNL     1       2.124   9.055  17.580  0.00  0.00    +0.000 OA
ATOM      4  N   UNL     1       0.920   9.205  19.557  0.00  0.00    +0.000 N 
BRANCH   4   5
ATOM      5  C   UNL     1       0.283  10.419  19.139  0.00  0.00    +0.000 A 
ATOM      6  C   UNL     1       0.949  11.646  19.240  0.00  0.00    +0.000 A 
ATOM      7  C   UNL     1       0.352  12.817  18.768  0.00  0.00    +0.000 A 
ATOM      8  C   UNL     1      -0.933  12.785  18.227  0.00  0.00    +0.000 A 
ATOM      9  C   UNL     1      -1.629  11.575  18.143  0.00  0.00    +0.000 A 
ATOM     10  C   UNL     1      -3.033  11.523  17.616  0.00  0.00    +0.000 C 
ATOM     11  C   UNL     1      -1.004  10.398  18.580  0.00  0.00    +0.000 A 
ENDBRANCH   4   5
BRANCH   4  12
ATOM     12  C   UNL     1       0.528   8.709  20.895  0.00  0.00    +0.000 C 
ATOM     13  C   UNL     1       1.318   9.381  22.018  0.00  0.00    +0.000 C 
ENDBRANCH   4  12
ENDBRANCH   1   2
BRANCH   1  14
ATOM     14  S   UNL     1       2.367   5.865  18.123  0.00  0.00    +0.000 S 
BRANCH  14  20
ATOM     15  C   UNL     1       3.564   3.634  19.397  0.00  0.00    +0.000 A 
ATOM     16  C   UNL     1       3.550   2.673  20.422  0.00  0.00    +0.000 A 
ATOM     17  C   UNL     1       2.508   2.640  21.340  0.00  0.00    +0.000 A 
ATOM     18  C   UNL     1       1.504   3.575  21.201  0.00  0.00    +0.000 A 
ATOM     19  N   UNL     1       1.476   4.499  20.219  0.00  0.00    +0.000 NA
ATOM     20  C   UNL     1       2.505   4.543  19.328  0.00  0.00    +0.000 A 
BRANCH  15  21
ATOM     21  C   UNL     1       4.776   3.628  18.552  0.00  0.00    +0.000 C 
ATOM     22  O   UNL     1       4.707   3.443  17.342  0.00  0.00    +0.000 OA
BRANCH  21  23
ATOM     23  O   UNL     1       5.890   3.981  19.228  0.00  0.00    +0.000 OA
BRANCH  23  25
ATOM     24  C   UNL     1       7.624   5.665  18.913  0.00  0.00    +0.000 C 
ATOM     25  C   UNL     1       6.169   5.394  19.253  0.00  0.00    +0.000 C 
ENDBRANCH  23  25
ENDBRANCH  21  23
ENDBRANCH  15  21
ENDBRANCH  14  20
ENDBRANCH   1  14
TORSDOF 8
ENDMDL
MODEL 5
REMARK VINA RESULT:      -6.7      3.013      7.736
REMARK  Name = 
REMARK  11 active torsions:
REMARK  status: ('A' for Active; 'I' for Inactive)
REMARK    1  A    between atoms: C_1  and  C_2
REMARK    2  A    between atoms: C_2  and  O_3
REMARK    3  A    between atoms: O_3  and  C_4
REMARK    4  A    between atoms: C_4  and  C_6
REMARK    5  A    between atoms: C_11  and  S_12
REMARK    6  A    between atoms: S_12  and  C_13
REMARK    7  A    between atoms: C_13  and  C_14
REMARK    8  A    between atoms: N_16  and  C_17
REMARK    9  A    between atoms: N_16  and  C_19
REMARK   10  A    between atoms: C_17  and  C_18
REMARK   11  A    between atoms: C_23  and  C_24
REMARK                            x       y       z     vdW  Elec       q    Type
REMARK                         _______ _______ _______ _____ _____    ______ ____
ROOT
ATOM      1  C   UNL     1       2.596   7.332  19.088  0.00  0.00    +0.000 C 
ENDROOT
BRANCH   1   2
ATOM      2  C   UNL     1       1.808   8.557  18.614  0.00  0.00    +0.000 C 
ATOM      3  O   UNL     1       1.827   8.897  17.427  0.00  0.00    +0.000 OA
ATOM      4  N   UNL     1       1.169   9.332  19.608  0.00  0.00    +0.000 N 
BRANCH   4   5
ATOM      5  C   UNL     1       0.497  10.537  19.222  0.00  0.00    +0.000 A 
ATOM      6  C   UNL     1       1.118  11.783  19.377  0.00  0.00    +0.000 A 
ATOM      7  C   UNL     1       0.488  12.948  18.936  0.00  0.00    +0.000 A 
ATOM      8  C   UNL     1      -0.785  12.891  18.372  0.00  0.00    +0.000 A 
ATOM      9  C   UNL     1      -1.438  11.662  18.233  0.00  0.00    +0.000 A 
ATOM     10  C   UNL     1      -2.830  11.581  17.680  0.00  0.00    +0.000 C 
ATOM     11  C   UNL     1      -0.779  10.492  18.639  0.00  0.00    +0.000 A 
ENDBRANCH   4   5
BRANCH   4  12
ATOM     12  C   UNL     1       1.108   9.004  21.050  0.00  0.00    +0.000 C 
ATOM     13  C   UNL     1      -0.298   8.599  21.494  0.00  0.00    +0.000 C 
ENDBRANCH   4  12
ENDBRANCH   1   2
BRANCH   1  14
ATOM     14  S   UNL     1       2.309   5.841  18.043  0.00  0.00    +0.000 S 
BRANCH  14  20
ATOM     15  C   UNL     1       3.629   3.737  19.408  0.00  0.00    +0.000 A 
ATOM     16  C   UNL     1       3.641   2.781  20.438  0.00  0.00    +0.000 A 
ATOM     17  C   UNL     1       2.550   2.650  21.288  0.00  0.00    +0.000 A 
ATOM     18  C   UNL     1       1.472   3.484  21.078  0.00  0.00    +0.000 A 
ATOM     19  N   UNL     1       1.419   4.400  20.088  0.00  0.00    +0.000 NA
ATOM     20  C   UNL     1       2.495   4.540  19.264  0.00  0.00    +0.000 A 
BRANCH  15  21
ATOM     21  C   UNL     1       4.888   3.846  18.642  0.00  0.00    +0.000 C 
ATOM     22  O   UNL     1       5.957   4.056  19.204  0.00  0.00    +0.000 OA
BRANCH  21  23
ATOM     23  O   UNL     1       4.734   3.553  17.333  0.00  0.00    +0.000 OA
BRANCH  23  25
ATOM     24  C   UNL     1       5.344   5.373  15.831  0.00  0.00    +0.000 C 
ATOM     25  C   UNL     1       5.766   4.061  16.467  0.00  0.00    +0.000 C 
ENDBRANCH  23  25
ENDBRANCH  21  23
ENDBRANCH  15  21
ENDBRANCH  14  20
ENDBRANCH   1  14
TORSDOF 8
ENDMDL
MODEL 6
REMARK VINA RESULT:      -6.6      3.216      8.120
REMARK  Name = 
REMARK  11 active torsions:
REMARK  status: ('A' for Active; 'I' for Inactive)
REMARK    1  A    between atoms: C_1  and  C_2
REMARK    2  A    between atoms: C_2  and  O_3
REMARK    3  A    between atoms: O_3  and  C_4
REMARK    4  A    between atoms: C_4  and  C_6
REMARK    5  A    between atoms: C_11  and  S_12
REMARK    6  A    between atoms: S_12  and  C_13
REMARK    7  A    between atoms: C_13  and  C_14
REMARK    8  A    between atoms: N_16  and  C_17
REMARK    9  A    between atoms: N_16  and  C_19
REMARK   10  A    between atoms: C_17  and  C_18
REMARK   11  A    between atoms: C_23  and  C_24
REMARK                            x       y       z     vdW  Elec       q    Type
REMARK                         _______ _______ _______ _____ _____    ______ ____
ROOT
ATOM      1  C   UNL     1       1.994   7.600  19.915  0.00  0.00    +0.000 C 
ENDROOT
BRANCH   1   2
ATOM      2  C   UNL     1       1.414   8.848  19.245  0.00  0.00    +0.000 C 
ATOM      3  O   UNL     1       1.419   8.963  18.015  0.00  0.00    +0.000 OA
ATOM      4  N   UNL     1       0.990   9.895  20.095  0.00  0.00    +0.000 N 
BRANCH   4   5
ATOM      5  C   UNL     1       0.525  11.118  19.512  0.00  0.00    +0.000 A 
ATOM      6  C   UNL     1      -0.807  11.253  19.103  0.00  0.00    +0.000 A 
ATOM      7  C   UNL     1      -1.273  12.469  18.598  0.00  0.00    +0.000 A 
ATOM      8  C   UNL     1      -0.407  13.553  18.458  0.00  0.00    +0.000 A 
ATOM      9  C   UNL     1       0.935  13.432  18.833  0.00  0.00    +0.000 A 
ATOM     10  C   UNL     1       1.898  14.566  18.640  0.00  0.00    +0.000 C 
ATOM     11  C   UNL     1       1.383  12.221  19.379  0.00  0.00    +0.000 A 
ENDBRANCH   4   5
BRANCH   4  12
ATOM     12  C   UNL     1       0.963   9.846  21.574  0.00  0.00    +0.000 C 
ATOM     13  C   UNL     1      -0.317   9.204  22.110  0.00  0.00    +0.000 C 
ENDBRANCH   4  12
ENDBRANCH   1   2
BRANCH   1  14
ATOM     14  S   UNL     1       2.957   6.540  18.754  0.00  0.00    +0.000 S 
BRANCH  14  20
ATOM     15  C   UNL     1       3.848   3.943  19.459  0.00  0.00    +0.000 A 
ATOM     16  C   UNL     1       3.707   2.786  20.244  0.00  0.00    +0.000 A 
ATOM     17  C   UNL     1       2.672   2.682  21.163  0.00  0.00    +0.000 A 
ATOM     18  C   UNL     1       1.801   3.745  21.268  0.00  0.00    +0.000 A 
ATOM     19  N   UNL     1       1.895   4.863  20.519  0.00  0.00    +0.000 NA
ATOM     20  C   UNL     1       2.919   4.973  19.628  0.00  0.00    +0.000 A 
BRANCH  15  21
ATOM     21  C   UNL     1       5.048   3.971  18.597  0.00  0.00    +0.000 C 
ATOM     22  O   UNL     1       6.167   4.131  19.070  0.00  0.00    +0.000 OA
BRANCH  21  23
ATOM     23  O   UNL     1       4.776   3.667  17.309  0.00  0.00    +0.000 OA
BRANCH  23  25
ATOM     24  C   UNL     1       5.275   5.521  15.808  0.00  0.00    +0.000 C 
ATOM     25  C   UNL     1       5.721   4.174  16.349  0.00  0.00    +0.000 C 
ENDBRANCH  23  25
ENDBRANCH  21  23
ENDBRANCH  15  21
ENDBRANCH  14  20
ENDBRANCH   1  14
TORSDOF 8
ENDMDL
MODEL 7
REMARK VINA RESULT:      -6.6      3.424      8.125
REMARK  Name = 
REMARK  11 active torsions:
REMARK  status: ('A' for Active; 'I' for Inactive)
REMARK    1  A    between atoms: C_1  and  C_2
REMARK    2  A    between atoms: C_2  and  O_3
REMARK    3  A    between atoms: O_3  and  C_4
REMARK    4  A    between atoms: C_4  and  C_6
REMARK    5  A    between atoms: C_11  and  S_12
REMARK    6  A    between atoms: S_12  and  C_13
REMARK    7  A    between atoms: C_13  and  C_14
REMARK    8  A    between atoms: N_16  and  C_17
REMARK    9  A    between atoms: N_16  and  C_19
REMARK   10  A    between atoms: C_17  and  C_18
REMARK   11  A    between atoms: C_23  and  C_24
REMARK                            x       y       z     vdW  Elec       q    Type
REMARK                         _______ _______ _______ _____ _____    ______ ____
ROOT
ATOM      1  C   UNL     1       2.558   7.517  18.965  0.00  0.00    +0.000 C 
ENDROOT
BRANCH   1   2
ATOM      2  C   UNL     1       1.795   8.778  18.550  0.00  0.00    +0.000 C 
ATOM      3  O   UNL     1       1.836   9.184  17.383  0.00  0.00    +0.000 OA
ATOM      4  N   UNL     1       1.153   9.507  19.576  0.00  0.00    +0.000 N 
BRANCH   4   5
ATOM      5  C   UNL     1       0.504  10.742  19.249  0.00  0.00    +0.000 A 
ATOM      6  C   UNL     1      -0.732  10.747  18.591  0.00  0.00    +0.000 A 
ATOM      7  C   UNL     1      -1.393  11.950  18.335  0.00  0.00    +0.000 A 
ATOM      8  C   UNL     1      -0.812  13.165  18.697  0.00  0.00    +0.000 A 
ATOM      9  C   UNL     1       0.435  13.186  19.330  0.00  0.00    +0.000 A 
ATOM     10  C   UNL     1       1.105  14.482  19.679  0.00  0.00    +0.000 C 
ATOM     11  C   UNL     1       1.072  11.971  19.621  0.00  0.00    +0.000 A 
ENDBRANCH   4   5
BRANCH   4  12
ATOM     12  C   UNL     1       1.067   9.101  20.997  0.00  0.00    +0.000 C 
ATOM     13  C   UNL     1      -0.375   8.866  21.447  0.00  0.00    +0.000 C 
ENDBRANCH   4  12
ENDBRANCH   1   2
BRANCH   1  14
ATOM     14  S   UNL     1       3.493   6.749  17.574  0.00  0.00    +0.000 S 
BRANCH  14  20
ATOM     15  C   UNL     1       4.015   4.016  18.115  0.00  0.00    +0.000 A 
ATOM     16  C   UNL     1       3.540   2.709  18.317  0.00  0.00    +0.000 A 
ATOM     17  C   UNL     1       2.182   2.433  18.227  0.00  0.00    +0.000 A 
ATOM     18  C   UNL     1       1.335   3.480  17.934  0.00  0.00    +0.000 A 
ATOM     19  N   UNL     1       1.758   4.743  17.716  0.00  0.00    +0.000 NA
ATOM     20  C   UNL     1       3.087   5.019  17.820  0.00  0.00    +0.000 A 
BRANCH  15  21
ATOM     21  C   UNL     1       5.465   4.196  18.341  0.00  0.00    +0.000 C 
ATOM     22  O   UNL     1       5.948   4.118  19.464  0.00  0.00    +0.000 OA
BRANCH  21  23
ATOM     23  O   UNL     1       6.166   4.305  17.191  0.00  0.00    +0.000 OA
BRANCH  23  25
ATOM     24  C   UNL     1       7.273   6.476  17.208  0.00  0.00    +0.000 C 
ATOM     25  C   UNL     1       7.437   4.970  17.311  0.00  0.00    +0.000 C 
ENDBRANCH  23  25
ENDBRANCH  21  23
ENDBRANCH  15  21
ENDBRANCH  14  20
ENDBRANCH   1  14
TORSDOF 8
ENDMDL
MODEL 8
REMARK VINA RESULT:      -6.6      3.691      8.111
REMARK  Name = 
REMARK  11 active torsions:
REMARK  status: ('A' for Active; 'I' for Inactive)
REMARK    1  A    between atoms: C_1  and  C_2
REMARK    2  A    between atoms: C_2  and  O_3
REMARK    3  A    between atoms: O_3  and  C_4
REMARK    4  A    between atoms: C_4  and  C_6
REMARK    5  A    between atoms: C_11  and  S_12
REMARK    6  A    between atoms: S_12  and  C_13
REMARK    7  A    between atoms: C_13  and  C_14
REMARK    8  A    between atoms: N_16  and  C_17
REMARK    9  A    between atoms: N_16  and  C_19
REMARK   10  A    between atoms: C_17  and  C_18
REMARK   11  A    between atoms: C_23  and  C_24
REMARK                            x       y       z     vdW  Elec       q    Type
REMARK                         _______ _______ _______ _____ _____    ______ ____
ROOT
ATOM      1  C   UNL     1       2.012   7.582  19.959  0.00  0.00    +0.000 C 
ENDROOT
BRANCH   1   2
ATOM      2  C   UNL     1       1.424   8.818  19.273  0.00  0.00    +0.000 C 
ATOM      3  O   UNL     1       1.421   8.912  18.041  0.00  0.00    +0.000 OA
ATOM      4  N   UNL     1       1.004   9.877  20.108  0.00  0.00    +0.000 N 
BRANCH   4   5
ATOM      5  C   UNL     1       0.532  11.090  19.508  0.00  0.00    +0.000 A 
ATOM      6  C   UNL     1      -0.755  11.163  18.962  0.00  0.00    +0.000 A 
ATOM      7  C   UNL     1      -1.236  12.365  18.440  0.00  0.00    +0.000 A 
ATOM      8  C   UNL     1      -0.425  13.499  18.419  0.00  0.00    +0.000 A 
ATOM      9  C   UNL     1       0.875  13.443  18.932  0.00  0.00    +0.000 A 
ATOM     10  C   UNL     1       1.785  14.633  18.871  0.00  0.00    +0.000 C 
ATOM     11  C   UNL     1       1.334  12.242  19.494  0.00  0.00    +0.000 A 
ENDBRANCH   4   5
BRANCH   4  12
ATOM     12  C   UNL     1       0.986   9.853  21.588  0.00  0.00    +0.000 C 
ATOM     13  C   UNL     1      -0.431   9.751  22.151  0.00  0.00    +0.000 C 
ENDBRANCH   4  12
ENDBRANCH   1   2
BRANCH   1  14
ATOM     14  S   UNL     1       3.047   6.554  18.832  0.00  0.00    +0.000 S 
BRANCH  14  20
ATOM     15  C   UNL     1       3.843   3.896  19.411  0.00  0.00    +0.000 A 
ATOM     16  C   UNL     1       3.714   2.736  20.193  0.00  0.00    +0.000 A 
ATOM     17  C   UNL     1       2.776   2.680  21.216  0.00  0.00    +0.000 A 
ATOM     18  C   UNL     1       1.990   3.792  21.425  0.00  0.00    +0.000 A 
ATOM     19  N   UNL     1       2.074   4.915  20.681  0.00  0.00    +0.000 NA
ATOM     20  C   UNL     1       3.004   4.978  19.688  0.00  0.00    +0.000 A 
BRANCH  15  21
ATOM     21  C   UNL     1       4.945   3.866  18.426  0.00  0.00    +0.000 C 
ATOM     22  O   UNL     1       4.727   3.678  17.234  0.00  0.00    +0.000 OA
BRANCH  21  23
ATOM     23  O   UNL     1       6.138   4.202  18.962  0.00  0.00    +0.000 OA
BRANCH  23  25
ATOM     24  C   UNL     1       7.607   6.112  18.597  0.00  0.00    +0.000 C 
ATOM     25  C   UNL     1       7.072   4.802  18.045  0.00  0.00    +0.000 C 
ENDBRANCH  23  25
ENDBRANCH  21  23
ENDBRANCH  15  21
ENDBRANCH  14  20
ENDBRANCH   1  14
TORSDOF 8
ENDMDL
MODEL 9
REMARK VINA RESULT:      -6.6      3.281      7.750
REMARK  Name = 
REMARK  11 active torsions:
REMARK  status: ('A' for Active; 'I' for Inactive)
REMARK    1  A    between atoms: C_1  and  C_2
REMARK    2  A    between atoms: C_2  and  O_3
REMARK    3  A    between atoms: O_3  and  C_4
REMARK    4  A    between atoms: C_4  and  C_6
REMARK    5  A    between atoms: C_11  and  S_12
REMARK    6  A    between atoms: S_12  and  C_13
REMARK    7  A    between atoms: C_13  and  C_14
REMARK    8  A    between atoms: N_16  and  C_17
REMARK    9  A    between atoms: N_16  and  C_19
REMARK   10  A    between atoms: C_17  and  C_18
REMARK   11  A    between atoms: C_23  and  C_24
REMARK                            x       y       z     vdW  Elec       q    Type
REMARK                         _______ _______ _______ _____ _____    ______ ____
ROOT
ATOM      1  C   UNL     1       2.443   7.289  19.236  0.00  0.00    +0.000 C 
ENDROOT
BRANCH   1   2
ATOM      2  C   UNL     1       1.841   8.579  18.670  0.00  0.00    +0.000 C 
ATOM      3  O   UNL     1       2.219   9.025  17.582  0.00  0.00    +0.000 OA
ATOM      4  N   UNL     1       0.936   9.282  19.497  0.00  0.00    +0.000 N 
BRANCH   4   5
ATOM      5  C   UNL     1       0.418  10.540  19.047  0.00  0.00    +0.000 A 
ATOM      6  C   UNL     1      -0.883  10.636  18.538  0.00  0.00    +0.000 A 
ATOM      7  C   UNL     1      -1.408  11.875  18.165  0.00  0.00    +0.000 A 
ATOM      8  C   UNL     1      -0.629  13.027  18.257  0.00  0.00    +0.000 A 
ATOM      9  C   UNL     1       0.683  12.952  18.736  0.00  0.00    +0.000 A 
ATOM     10  C   UNL     1       1.559  14.168  18.793  0.00  0.00    +0.000 C 
ATOM     11  C   UNL     1       1.187  11.709  19.149  0.00  0.00    +0.000 A 
ENDBRANCH   4   5
BRANCH   4  12
ATOM     12  C   UNL     1       0.441   8.826  20.816  0.00  0.00    +0.000 C 
ATOM     13  C   UNL     1       1.244   9.418  21.974  0.00  0.00    +0.000 C 
ENDBRANCH   4  12
ENDBRANCH   1   2
BRANCH   1  14
ATOM     14  S   UNL     1       2.596   5.952  17.978  0.00  0.00    +0.000 S 
BRANCH  14  20
ATOM     15  C   UNL     1       5.129   4.710  18.254  0.00  0.00    +0.000 A 
ATOM     16  C   UNL     1       6.520   4.740  18.059  0.00  0.00    +0.000 A 
ATOM     17  C   UNL     1       7.124   5.846  17.475  0.00  0.00    +0.000 A 
ATOM     18  C   UNL     1       6.313   6.896  17.105  0.00  0.00    +0.000 A 
ATOM     19  N   UNL     1       4.977   6.910  17.294  0.00  0.00    +0.000 NA
ATOM     20  C   UNL     1       4.381   5.820  17.852  0.00  0.00    +0.000 A 
BRANCH  15  21
ATOM     21  C   UNL     1       4.600   3.437  18.788  0.00  0.00    +0.000 C 
ATOM     22  O   UNL     1       4.946   3.016  19.886  0.00  0.00    +0.000 OA
BRANCH  21  23
ATOM     23  O   UNL     1       3.628   2.907  18.015  0.00  0.00    +0.000 OA
BRANCH  23  25
ATOM     24  C   UNL     1       1.317   2.407  18.606  0.00  0.00    +0.000 C 
ATOM     25  C   UNL     1       2.766   1.963  18.679  0.00  0.00    +0.000 C 
ENDBRANCH  23  25
ENDBRANCH  21  23
ENDBRANCH  15  21
ENDBRANCH  14  20
ENDBRANCH   1  14
TORSDOF 8
ENDMDL
