MODEL 1
REMARK VINA RESULT:      -8.5      0.000      0.000
REMARK  Name = 
REMARK  3 active torsions:
REMARK  status: ('A' for Active; 'I' for Inactive)
REMARK    1  A    between atoms: N_11  and  N_12
REMARK    2  A    between atoms: N_12  and  C_13
REMARK    3  A    between atoms: C_13  and  N_15
REMARK                            x       y       z     vdW  Elec       q    Type
REMARK                         _______ _______ _______ _____ _____    ______ ____
ROOT
ATOM      1  O   UNL     1       6.919   5.880  17.459  0.00  0.00    +0.000 OA
ATOM      2  C   UNL     1       6.821   5.471  16.318  0.00  0.00    +0.000 C 
ATOM      3  N   UNL     1       7.646   5.685  15.234  0.00  0.00    +0.000 N 
ATOM      4  C   UNL     1       7.177   4.999  14.116  0.00  0.00    +0.000 A 
ATOM      5  C   UNL     1       7.723   4.981  12.847  0.00  0.00    +0.000 A 
ATOM      6  C   UNL     1       7.072   4.213  11.874  0.00  0.00    +0.000 A 
ATOM      7  C   UNL     1       5.909   3.477  12.186  0.00  0.00    +0.000 A 
ATOM      8  C   UNL     1       5.368   3.508  13.475  0.00  0.00    +0.000 A 
ATOM      9  C   UNL     1       6.019   4.286  14.412  0.00  0.00    +0.000 A 
ATOM     10  C   UNL     1       5.697   4.570  15.809  0.00  0.00    +0.000 C 
ATOM     11  N   UNL     1       4.637   4.150  16.415  0.00  0.00    +0.000 NA
ATOM     12  H   UNL     1       8.479   6.253  15.266  0.00  0.00    +0.000 HD
ENDROOT
BRANCH  11  13
ATOM     13  N   UNL     1       4.414   4.501  17.725  0.00  0.00    +0.000 N 
ATOM     14  H   UNL     1       4.965   4.027  18.435  0.00  0.00    +0.000 HD
BRANCH  13  15
ATOM     15  C   UNL     1       3.370   5.377  18.044  0.00  0.00    +0.000 C 
ATOM     16  S   UNL     1       3.507   7.040  17.726  0.00  0.00    +0.000 S 
BRANCH  15  17
ATOM     17  N   UNL     1       2.234   4.788  18.659  0.00  0.00    +0.000 N 
ATOM     18  C   UNL     1       1.745   5.276  19.968  0.00  0.00    +0.000 C 
ATOM     19  C   UNL     1       2.330   4.478  21.135  0.00  0.00    +0.000 C 
ATOM     20  C   UNL     1       1.677   3.118  21.361  0.00  0.00    +0.000 C 
ATOM     21  C   UNL     1       1.657   2.207  20.135  0.00  0.00    +0.000 C 
ATOM     22  C   UNL     1       0.755   2.736  19.020  0.00  0.00    +0.000 C 
ATOM     23  C   UNL     1       1.462   3.694  18.054  0.00  0.00    +0.000 C 
ENDBRANCH  15  17
ENDBRANCH  13  15
ENDBRANCH  11  13
TORSDOF 3
ENDMDL
MODEL 2
REMARK VINA RESULT:      -7.9      0.887      1.473
REMARK  Name = 
REMARK  3 active torsions:
REMARK  status: ('A' for Active; 'I' for Inactive)
REMARK    1  A    between atoms: N_11  and  N_12
REMARK    2  A    between atoms: N_12  and  C_13
REMARK    3  A    between atoms: C_13  and  N_15
REMARK                            x       y       z     vdW  Elec       q    Type
REMARK                         _______ _______ _______ _____ _____    ______ ____
ROOT
ATOM      1  O   UNL     1       7.529   5.884  17.072  0.00  0.00    +0.000 OA
ATOM      2  C   UNL     1       7.252   5.424  15.981  0.00  0.00    +0.000 C 
ATOM      3  N   UNL     1       7.876   5.610  14.766  0.00  0.00    +0.000 N 
ATOM      4  C   UNL     1       7.247   4.865  13.771  0.00  0.00    +0.000 A 
ATOM      5  C   UNL     1       7.573   4.805  12.429  0.00  0.00    +0.000 A 
ATOM      6  C   UNL     1       6.790   3.981  11.611  0.00  0.00    +0.000 A 
ATOM      7  C   UNL     1       5.720   3.232  12.144  0.00  0.00    +0.000 A 
ATOM      8  C   UNL     1       5.402   3.306  13.503  0.00  0.00    +0.000 A 
ATOM      9  C   UNL     1       6.178   4.139  14.286  0.00  0.00    +0.000 A 
ATOM     10  C   UNL     1       6.087   4.475  15.705  0.00  0.00    +0.000 C 
ATOM     11  N   UNL     1       5.157   4.058  16.497  0.00  0.00    +0.000 NA
ATOM     12  H   UNL     1       8.685   6.198  14.634  0.00  0.00    +0.000 HD
ENDROOT
BRANCH  11  13
ATOM     13  N   UNL     1       5.147   4.459  17.812  0.00  0.00    +0.000 N 
ATOM     14  H   UNL     1       5.938   4.187  18.389  0.00  0.00    +0.000 HD
BRANCH  13  15
ATOM     15  C   UNL     1       4.018   5.098  18.337  0.00  0.00    +0.000 C 
ATOM     16  S   UNL     1       3.595   6.664  17.833  0.00  0.00    +0.000 S 
BRANCH  15  17
ATOM     17  N   UNL     1       3.291   4.367  19.313  0.00  0.00    +0.000 N 
ATOM     18  C   UNL     1       3.609   2.948  19.586  0.00  0.00    +0.000 C 
ATOM     19  C   UNL     1       2.742   1.994  18.761  0.00  0.00    +0.000 C 
ATOM     20  C   UNL     1       1.323   1.812  19.293  0.00  0.00    +0.000 C 
ATOM     21  C   UNL     1       0.540   3.111  19.484  0.00  0.00    +0.000 C 
ATOM     22  C   UNL     1       1.114   3.988  20.596  0.00  0.00    +0.000 C 
ATOM     23  C   UNL     1       2.212   4.949  20.123  0.00  0.00    +0.000 C 
ENDBRANCH  15  17
ENDBRANCH  13  15
ENDBRANCH  11  13
TORSDOF 3
ENDMDL
MODEL 3
REMARK VINA RESULT:      -7.8      1.053      1.390
REMARK  Name = 
REMARK  3 active torsions:
REMARK  status: ('A' for Active; 'I' for Inactive)
REMARK    1  A    between atoms: N_11  and  N_12
REMARK    2  A    between atoms: N_12  and  C_13
REMARK    3  A    between atoms: C_13  and  N_15
REMARK                            x       y       z     vdW  Elec       q    Type
REMARK                         _______ _______ _______ _____ _____    ______ ____
ROOT
ATOM      1  O   UNL     1       7.374   6.240  16.915  0.00  0.00    +0.000 OA
ATOM      2  C   UNL     1       7.087   5.679  15.875  0.00  0.00    +0.000 C 
ATOM      3  N   UNL     1       7.828   5.534  14.722  0.00  0.00    +0.000 N 
ATOM      4  C   UNL     1       7.128   4.788  13.777  0.00  0.00    +0.000 A 
ATOM      5  C   UNL     1       7.534   4.448  12.501  0.00  0.00    +0.000 A 
ATOM      6  C   UNL     1       6.653   3.685  11.724  0.00  0.00    +0.000 A 
ATOM      7  C   UNL     1       5.405   3.271  12.235  0.00  0.00    +0.000 A 
ATOM      8  C   UNL     1       5.008   3.626  13.527  0.00  0.00    +0.000 A 
ATOM      9  C   UNL     1       5.887   4.393  14.267  0.00  0.00    +0.000 A 
ATOM     10  C   UNL     1       5.764   4.963  15.607  0.00  0.00    +0.000 C 
ATOM     11  N   UNL     1       4.706   4.880  16.343  0.00  0.00    +0.000 NA
ATOM     12  H   UNL     1       8.756   5.912  14.599  0.00  0.00    +0.000 HD
ENDROOT
BRANCH  11  13
ATOM     13  N   UNL     1       4.685   5.479  17.580  0.00  0.00    +0.000 N 
ATOM     14  H   UNL     1       5.554   5.882  17.918  0.00  0.00    +0.000 HD
BRANCH  13  15
ATOM     15  C   UNL     1       3.533   5.402  18.372  0.00  0.00    +0.000 C 
ATOM     16  S   UNL     1       2.637   6.798  18.737  0.00  0.00    +0.000 S 
BRANCH  15  17
ATOM     17  N   UNL     1       3.199   4.108  18.851  0.00  0.00    +0.000 N 
ATOM     18  C   UNL     1       1.835   3.564  18.671  0.00  0.00    +0.000 C 
ATOM     19  C   UNL     1       0.939   3.840  19.880  0.00  0.00    +0.000 C 
ATOM     20  C   UNL     1       1.185   2.917  21.071  0.00  0.00    +0.000 C 
ATOM     21  C   UNL     1       2.632   2.875  21.559  0.00  0.00    +0.000 C 
ATOM     22  C   UNL     1       3.579   2.234  20.546  0.00  0.00    +0.000 C 
ATOM     23  C   UNL     1       4.158   3.223  19.527  0.00  0.00    +0.000 C 
ENDBRANCH  15  17
ENDBRANCH  13  15
ENDBRANCH  11  13
TORSDOF 3
ENDMDL
MODEL 4
REMARK VINA RESULT:      -7.7      1.585      2.090
REMARK  Name = 
REMARK  3 active torsions:
REMARK  status: ('A' for Active; 'I' for Inactive)
REMARK    1  A    between atoms: N_11  and  N_12
REMARK    2  A    between atoms: N_12  and  C_13
REMARK    3  A    between atoms: C_13  and  N_15
REMARK                            x       y       z     vdW  Elec       q    Type
REMARK                         _______ _______ _______ _____ _____    ______ ____
ROOT
ATOM      1  O   UNL     1       6.969   5.398  17.501  0.00  0.00    +0.000 OA
ATOM      2  C   UNL     1       6.908   5.121  16.319  0.00  0.00    +0.000 C 
ATOM      3  N   UNL     1       7.648   5.609  15.263  0.00  0.00    +0.000 N 
ATOM      4  C   UNL     1       7.272   4.993  14.072  0.00  0.00    +0.000 A 
ATOM      5  C   UNL     1       7.772   5.227  12.806  0.00  0.00    +0.000 A 
ATOM      6  C   UNL     1       7.234   4.481  11.750  0.00  0.00    +0.000 A 
ATOM      7  C   UNL     1       6.229   3.518  11.978  0.00  0.00    +0.000 A 
ATOM      8  C   UNL     1       5.731   3.294  13.265  0.00  0.00    +0.000 A 
ATOM      9  C   UNL     1       6.266   4.055  14.287  0.00  0.00    +0.000 A 
ATOM     10  C   UNL     1       5.944   4.104  15.711  0.00  0.00    +0.000 C 
ATOM     11  N   UNL     1       4.993   3.431  16.269  0.00  0.00    +0.000 NA
ATOM     12  H   UNL     1       8.370   6.308  15.359  0.00  0.00    +0.000 HD
ENDROOT
BRANCH  11  13
ATOM     13  N   UNL     1       4.754   3.573  17.615  0.00  0.00    +0.000 N 
ATOM     14  H   UNL     1       5.432   4.102  18.157  0.00  0.00    +0.000 HD
BRANCH  13  15
ATOM     15  C   UNL     1       3.684   2.892  18.209  0.00  0.00    +0.000 C 
ATOM     16  S   UNL     1       3.744   1.209  18.428  0.00  0.00    +0.000 S 
BRANCH  15  17
ATOM     17  N   UNL     1       2.570   3.691  18.577  0.00  0.00    +0.000 N 
ATOM     18  C   UNL     1       2.325   4.994  17.921  0.00  0.00    +0.000 C 
ATOM     19  C   UNL     1       2.947   6.156  18.698  0.00  0.00    +0.000 C 
ATOM     20  C   UNL     1       2.153   6.589  19.928  0.00  0.00    +0.000 C 
ATOM     21  C   UNL     1       1.852   5.469  20.922  0.00  0.00    +0.000 C 
ATOM     22  C   UNL     1       0.892   4.422  20.360  0.00  0.00    +0.000 C 
ATOM     23  C   UNL     1       1.587   3.290  19.594  0.00  0.00    +0.000 C 
ENDBRANCH  15  17
ENDBRANCH  13  15
ENDBRANCH  11  13
TORSDOF 3
ENDMDL
MODEL 5
REMARK VINA RESULT:      -7.6      1.229      1.399
REMARK  Name = 
REMARK  3 active torsions:
REMARK  status: ('A' for Active; 'I' for Inactive)
REMARK    1  A    between atoms: N_11  and  N_12
REMARK    2  A    between atoms: N_12  and  C_13
REMARK    3  A    between atoms: C_13  and  N_15
REMARK                            x       y       z     vdW  Elec       q    Type
REMARK                         _______ _______ _______ _____ _____    ______ ____
ROOT
ATOM      1  O   UNL     1       7.371   6.437  16.748  0.00  0.00    +0.000 OA
ATOM      2  C   UNL     1       7.086   5.814  15.744  0.00  0.00    +0.000 C 
ATOM      3  N   UNL     1       7.848   5.556  14.624  0.00  0.00    +0.000 N 
ATOM      4  C   UNL     1       7.140   4.771  13.716  0.00  0.00    +0.000 A 
ATOM      5  C   UNL     1       7.562   4.323  12.480  0.00  0.00    +0.000 A 
ATOM      6  C   UNL     1       6.669   3.542  11.736  0.00  0.00    +0.000 A 
ATOM      7  C   UNL     1       5.392   3.217  12.241  0.00  0.00    +0.000 A 
ATOM      8  C   UNL     1       4.979   3.681  13.494  0.00  0.00    +0.000 A 
ATOM      9  C   UNL     1       5.872   4.463  14.200  0.00  0.00    +0.000 A 
ATOM     10  C   UNL     1       5.741   5.134  15.492  0.00  0.00    +0.000 C 
ATOM     11  N   UNL     1       4.663   5.148  16.202  0.00  0.00    +0.000 NA
ATOM     12  H   UNL     1       8.794   5.886  14.500  0.00  0.00    +0.000 HD
ENDROOT
BRANCH  11  13
ATOM     13  N   UNL     1       4.637   5.836  17.392  0.00  0.00    +0.000 N 
ATOM     14  H   UNL     1       5.530   6.094  17.802  0.00  0.00    +0.000 HD
BRANCH  13  15
ATOM     15  C   UNL     1       3.419   6.040  18.053  0.00  0.00    +0.000 C 
ATOM     16  S   UNL     1       2.744   7.595  18.166  0.00  0.00    +0.000 S 
BRANCH  15  17
ATOM     17  N   UNL     1       2.826   4.884  18.625  0.00  0.00    +0.000 N 
ATOM     18  C   UNL     1       3.435   4.224  19.800  0.00  0.00    +0.000 C 
ATOM     19  C   UNL     1       4.378   3.088  19.398  0.00  0.00    +0.000 C 
ATOM     20  C   UNL     1       3.674   1.795  18.995  0.00  0.00    +0.000 C 
ATOM     21  C   UNL     1       2.631   1.952  17.890  0.00  0.00    +0.000 C 
ATOM     22  C   UNL     1       1.419   2.771  18.333  0.00  0.00    +0.000 C 
ATOM     23  C   UNL     1       1.582   4.282  18.124  0.00  0.00    +0.000 C 
ENDBRANCH  15  17
ENDBRANCH  13  15
ENDBRANCH  11  13
TORSDOF 3
ENDMDL
MODEL 6
REMARK VINA RESULT:      -7.6      3.032      6.680
REMARK  Name = 
REMARK  3 active torsions:
REMARK  status: ('A' for Active; 'I' for Inactive)
REMARK    1  A    between atoms: N_11  and  N_12
REMARK    2  A    between atoms: N_12  and  C_13
REMARK    3  A    between atoms: C_13  and  N_15
REMARK                            x       y       z     vdW  Elec       q    Type
REMARK                         _______ _______ _______ _____ _____    ______ ____
ROOT
ATOM      1  O   UNL     1       2.079   4.820  21.142  0.00  0.00    +0.000 OA
ATOM      2  C   UNL     1       1.958   5.890  20.577  0.00  0.00    +0.000 C 
ATOM      3  N   UNL     1       1.542   7.105  21.076  0.00  0.00    +0.000 N 
ATOM      4  C   UNL     1       1.581   8.084  20.086  0.00  0.00    +0.000 A 
ATOM      5  C   UNL     1       1.226   9.415  20.200  0.00  0.00    +0.000 A 
ATOM      6  C   UNL     1       1.349  10.216  19.058  0.00  0.00    +0.000 A 
ATOM      7  C   UNL     1       1.831   9.684  17.844  0.00  0.00    +0.000 A 
ATOM      8  C   UNL     1       2.184   8.335  17.744  0.00  0.00    +0.000 A 
ATOM      9  C   UNL     1       2.037   7.561  18.880  0.00  0.00    +0.000 A 
ATOM     10  C   UNL     1       2.266   6.135  19.101  0.00  0.00    +0.000 C 
ATOM     11  N   UNL     1       2.613   5.299  18.180  0.00  0.00    +0.000 NA
ATOM     12  H   UNL     1       1.263   7.253  22.035  0.00  0.00    +0.000 HD
ENDROOT
BRANCH  11  13
ATOM     13  N   UNL     1       2.773   3.969  18.489  0.00  0.00    +0.000 N 
ATOM     14  H   UNL     1       1.935   3.435  18.704  0.00  0.00    +0.000 HD
BRANCH  13  15
ATOM     15  C   UNL     1       4.060   3.435  18.624  0.00  0.00    +0.000 C 
ATOM     16  S   UNL     1       4.395   2.272  19.816  0.00  0.00    +0.000 S 
BRANCH  15  17
ATOM     17  N   UNL     1       5.039   3.946  17.731  0.00  0.00    +0.000 N 
ATOM     18  C   UNL     1       6.240   4.641  18.243  0.00  0.00    +0.000 C 
ATOM     19  C   UNL     1       6.045   6.157  18.312  0.00  0.00    +0.000 C 
ATOM     20  C   UNL     1       6.165   6.870  16.967  0.00  0.00    +0.000 C 
ATOM     21  C   UNL     1       5.249   6.328  15.872  0.00  0.00    +0.000 C 
ATOM     22  C   UNL     1       5.621   4.911  15.438  0.00  0.00    +0.000 C 
ATOM     23  C   UNL     1       4.950   3.811  16.270  0.00  0.00    +0.000 C 
ENDBRANCH  15  17
ENDBRANCH  13  15
ENDBRANCH  11  13
TORSDOF 3
ENDMDL
MODEL 7
REMARK VINA RESULT:      -7.5      1.564      2.066
REMARK  Name = 
REMARK  3 active torsions:
REMARK  status: ('A' for Active; 'I' for Inactive)
REMARK    1  A    between atoms: N_11  and  N_12
REMARK    2  A    between atoms: N_12  and  C_13
REMARK    3  A    between atoms: C_13  and  N_15
REMARK                            x       y       z     vdW  Elec       q    Type
REMARK                         _______ _______ _______ _____ _____    ______ ____
ROOT
ATOM      1  O   UNL     1       7.622   6.487  16.435  0.00  0.00    +0.000 OA
ATOM      2  C   UNL     1       7.242   5.821  15.492  0.00  0.00    +0.000 C 
ATOM      3  N   UNL     1       7.887   5.522  14.310  0.00  0.00    +0.000 N 
ATOM      4  C   UNL     1       7.098   4.696  13.514  0.00  0.00    +0.000 A 
ATOM      5  C   UNL     1       7.394   4.200  12.259  0.00  0.00    +0.000 A 
ATOM      6  C   UNL     1       6.437   3.383  11.644  0.00  0.00    +0.000 A 
ATOM      7  C   UNL     1       5.224   3.069  12.292  0.00  0.00    +0.000 A 
ATOM      8  C   UNL     1       4.938   3.581  13.561  0.00  0.00    +0.000 A 
ATOM      9  C   UNL     1       5.890   4.399  14.139  0.00  0.00    +0.000 A 
ATOM     10  C   UNL     1       5.886   5.122  15.409  0.00  0.00    +0.000 C 
ATOM     11  N   UNL     1       4.888   5.157  16.227  0.00  0.00    +0.000 NA
ATOM     12  H   UNL     1       8.810   5.854  14.075  0.00  0.00    +0.000 HD
ENDROOT
BRANCH  11  13
ATOM     13  N   UNL     1       4.977   5.894  17.384  0.00  0.00    +0.000 N 
ATOM     14  H   UNL     1       4.957   6.906  17.296  0.00  0.00    +0.000 HD
BRANCH  13  15
ATOM     15  C   UNL     1       5.220   5.250  18.603  0.00  0.00    +0.000 C 
ATOM     16  S   UNL     1       6.749   5.332  19.338  0.00  0.00    +0.000 S 
BRANCH  15  17
ATOM     17  N   UNL     1       4.128   4.523  19.146  0.00  0.00    +0.000 N 
ATOM     18  C   UNL     1       4.204   3.055  19.313  0.00  0.00    +0.000 C 
ATOM     19  C   UNL     1       3.624   2.308  18.110  0.00  0.00    +0.000 C 
ATOM     20  C   UNL     1       2.099   2.257  18.073  0.00  0.00    +0.000 C 
ATOM     21  C   UNL     1       1.412   3.619  18.155  0.00  0.00    +0.000 C 
ATOM     22  C   UNL     1       1.608   4.300  19.509  0.00  0.00    +0.000 C 
ATOM     23  C   UNL     1       2.878   5.155  19.594  0.00  0.00    +0.000 C 
ENDBRANCH  15  17
ENDBRANCH  13  15
ENDBRANCH  11  13
TORSDOF 3
ENDMDL
MODEL 8
REMARK VINA RESULT:      -7.5      1.251      1.312
REMARK  Name = 
REMARK  3 active torsions:
REMARK  status: ('A' for Active; 'I' for Inactive)
REMARK    1  A    between atoms: N_11  and  N_12
REMARK    2  A    between atoms: N_12  and  C_13
REMARK    3  A    between atoms: C_13  and  N_15
REMARK                            x       y       z     vdW  Elec       q    Type
REMARK                         _______ _______ _______ _____ _____    ______ ____
ROOT
ATOM      1  O   UNL     1       7.343   6.335  16.501  0.00  0.00    +0.000 OA
ATOM      2  C   UNL     1       7.079   5.713  15.490  0.00  0.00    +0.000 C 
ATOM      3  N   UNL     1       7.857   5.474  14.378  0.00  0.00    +0.000 N 
ATOM      4  C   UNL     1       7.172   4.683  13.458  0.00  0.00    +0.000 A 
ATOM      5  C   UNL     1       7.615   4.248  12.224  0.00  0.00    +0.000 A 
ATOM      6  C   UNL     1       6.742   3.457  11.466  0.00  0.00    +0.000 A 
ATOM      7  C   UNL     1       5.466   3.108  11.956  0.00  0.00    +0.000 A 
ATOM      8  C   UNL     1       5.032   3.558  13.206  0.00  0.00    +0.000 A 
ATOM      9  C   UNL     1       5.904   4.351  13.927  0.00  0.00    +0.000 A 
ATOM     10  C   UNL     1       5.748   5.013  15.220  0.00  0.00    +0.000 C 
ATOM     11  N   UNL     1       4.663   5.005  15.919  0.00  0.00    +0.000 NA
ATOM     12  H   UNL     1       8.799   5.820  14.266  0.00  0.00    +0.000 HD
ENDROOT
BRANCH  11  13
ATOM     13  N   UNL     1       4.612   5.686  17.112  0.00  0.00    +0.000 N 
ATOM     14  H   UNL     1       4.742   6.694  17.080  0.00  0.00    +0.000 HD
BRANCH  13  15
ATOM     15  C   UNL     1       4.519   4.978  18.316  0.00  0.00    +0.000 C 
ATOM     16  S   UNL     1       5.791   5.010  19.442  0.00  0.00    +0.000 S 
BRANCH  15  17
ATOM     17  N   UNL     1       3.326   4.232  18.504  0.00  0.00    +0.000 N 
ATOM     18  C   UNL     1       2.040   4.916  18.766  0.00  0.00    +0.000 C 
ATOM     19  C   UNL     1       1.754   5.050  20.264  0.00  0.00    +0.000 C 
ATOM     20  C   UNL     1       1.247   3.772  20.926  0.00  0.00    +0.000 C 
ATOM     21  C   UNL     1       2.142   2.550  20.726  0.00  0.00    +0.000 C 
ATOM     22  C   UNL     1       2.185   2.079  19.273  0.00  0.00    +0.000 C 
ATOM     23  C   UNL     1       3.268   2.765  18.432  0.00  0.00    +0.000 C 
ENDBRANCH  15  17
ENDBRANCH  13  15
ENDBRANCH  11  13
TORSDOF 3
ENDMDL
MODEL 9
REMARK VINA RESULT:      -7.5      3.702      6.126
REMARK  Name = 
REMARK  3 active torsions:
REMARK  status: ('A' for Active; 'I' for Inactive)
REMARK    1  A    between atoms: N_11  and  N_12
REMARK    2  A    between atoms: N_12  and  C_13
REMARK    3  A    between atoms: C_13  and  N_15
REMARK                            x       y       z     vdW  Elec       q    Type
REMARK                         _______ _______ _______ _____ _____    ______ ____
ROOT
ATOM      1  O   UNL     1       4.037   7.220  16.841  0.00  0.00    +0.000 OA
ATOM      2  C   UNL     1       3.269   7.611  17.699  0.00  0.00    +0.000 C 
ATOM      3  N   UNL     1       2.415   8.693  17.685  0.00  0.00    +0.000 N 
ATOM      4  C   UNL     1       1.687   8.760  18.871  0.00  0.00    +0.000 A 
ATOM      5  C   UNL     1       0.748   9.708  19.233  0.00  0.00    +0.000 A 
ATOM      6  C   UNL     1       0.140   9.569  20.486  0.00  0.00    +0.000 A 
ATOM      7  C   UNL     1       0.468   8.494  21.339  0.00  0.00    +0.000 A 
ATOM      8  C   UNL     1       1.421   7.545  20.959  0.00  0.00    +0.000 A 
ATOM      9  C   UNL     1       2.019   7.713  19.725  0.00  0.00    +0.000 A 
ATOM     10  C   UNL     1       3.067   6.944  19.058  0.00  0.00    +0.000 C 
ATOM     11  N   UNL     1       3.687   5.942  19.586  0.00  0.00    +0.000 NA
ATOM     12  H   UNL     1       2.331   9.334  16.910  0.00  0.00    +0.000 HD
ENDROOT
BRANCH  11  13
ATOM     13  N   UNL     1       4.682   5.305  18.882  0.00  0.00    +0.000 N 
ATOM     14  H   UNL     1       5.561   5.800  18.765  0.00  0.00    +0.000 HD
BRANCH  13  15
ATOM     15  C   UNL     1       4.416   4.083  18.252  0.00  0.00    +0.000 C 
ATOM     16  S   UNL     1       5.022   3.760  16.698  0.00  0.00    +0.000 S 
BRANCH  15  17
ATOM     17  N   UNL     1       3.603   3.176  18.980  0.00  0.00    +0.000 N 
ATOM     18  C   UNL     1       2.312   2.709  18.430  0.00  0.00    +0.000 C 
ATOM     19  C   UNL     1       1.138   3.567  18.907  0.00  0.00    +0.000 C 
ATOM     20  C   UNL     1       0.676   3.269  20.332  0.00  0.00    +0.000 C 
ATOM     21  C   UNL     1       1.776   3.348  21.389  0.00  0.00    +0.000 C 
ATOM     22  C   UNL     1       2.827   2.251  21.232  0.00  0.00    +0.000 C 
ATOM     23  C   UNL     1       3.978   2.626  20.290  0.00  0.00    +0.000 C 
ENDBRANCH  15  17
ENDBRANCH  13  15
ENDBRANCH  11  13
TORSDOF 3
ENDMDL
