MODEL 1
REMARK VINA RESULT:      -8.4      0.000      0.000
REMARK  Name = 
REMARK  5 active torsions:
REMARK  status: ('A' for Active; 'I' for Inactive)
REMARK    1  A    between atoms: C_2  and  C_3
REMARK    2  A    between atoms: C_2  and  C_18
REMARK    3  A    between atoms: C_4  and  C_5
REMARK    4  A    between atoms: C_9  and  C_10
REMARK    5  A    between atoms: C_21  and  O_22
REMARK                            x       y       z     vdW  Elec       q    Type
REMARK                         _______ _______ _______ _____ _____    ______ ____
ROOT
ATOM      1  C   UNL     1       2.128   6.743  19.907  0.00  0.00    +0.000 A 
ATOM      2  C   UNL     1       1.768   5.634  20.674  0.00  0.00    +0.000 A 
ATOM      3  C   UNL     1       2.201   4.361  20.308  0.00  0.00    +0.000 A 
ATOM      4  C   UNL     1       3.008   4.187  19.178  0.00  0.00    +0.000 A 
ATOM      5  C   UNL     1       3.413   5.279  18.396  0.00  0.00    +0.000 A 
ATOM      6  C   UNL     1       2.957   6.552  18.787  0.00  0.00    +0.000 A 
ENDROOT
BRANCH   5   7
ATOM      7  C   UNL     1       4.317   5.120  17.233  0.00  0.00    +0.000 A 
ATOM      8  C   UNL     1       4.780   6.233  16.500  0.00  0.00    +0.000 A 
ATOM      9  C   UNL     1       5.675   6.085  15.434  0.00  0.00    +0.000 A 
ATOM     10  C   UNL     1       6.105   4.817  15.076  0.00  0.00    +0.000 A 
ATOM     11  F   UNL     1       6.961   4.673  14.056  0.00  0.00    +0.000 F 
ATOM     12  C   UNL     1       5.664   3.698  15.764  0.00  0.00    +0.000 A 
ATOM     13  C   UNL     1       4.781   3.851  16.837  0.00  0.00    +0.000 A 
ENDBRANCH   5   7
BRANCH   1  15
ATOM     14  C   UNL     1       1.086   8.330  21.480  0.00  0.00    +0.000 C 
ATOM     15  C   UNL     1       1.717   8.091  20.321  0.00  0.00    +0.000 C 
BRANCH  14  17
ATOM     16  O   UNL     1       0.598  10.123  22.966  0.00  0.00    +0.000 OA
ATOM     17  C   UNL     1       0.602   9.693  21.819  0.00  0.00    +0.000 C 
BRANCH  17  18
ATOM     18  C   UNL     1       0.191  10.556  20.681  0.00  0.00    +0.000 A 
ATOM     19  C   UNL     1      -0.903  10.168  19.897  0.00  0.00    +0.000 A 
ATOM     20  C   UNL     1      -1.314  10.965  18.826  0.00  0.00    +0.000 A 
ATOM     21  C   UNL     1      -0.621  12.140  18.542  0.00  0.00    +0.000 A 
ATOM     22  C   UNL     1       0.478  12.524  19.302  0.00  0.00    +0.000 A 
ATOM     23  C   UNL     1       0.890  11.730  20.373  0.00  0.00    +0.000 A 
BRANCH  21  24
ATOM     24  O   UNL     1      -0.987  12.953  17.510  0.00  0.00    +0.000 OA
ATOM     25  H   UNL     1      -1.216  13.827  17.867  0.00  0.00    +0.000 HD
ENDBRANCH  21  24
ENDBRANCH  17  18
ENDBRANCH  14  17
ENDBRANCH   1  15
TORSDOF 5
ENDMDL
MODEL 2
REMARK VINA RESULT:      -8.2      1.081      1.395
REMARK  Name = 
REMARK  5 active torsions:
REMARK  status: ('A' for Active; 'I' for Inactive)
REMARK    1  A    between atoms: C_2  and  C_3
REMARK    2  A    between atoms: C_2  and  C_18
REMARK    3  A    between atoms: C_4  and  C_5
REMARK    4  A    between atoms: C_9  and  C_10
REMARK    5  A    between atoms: C_21  and  O_22
REMARK                            x       y       z     vdW  Elec       q    Type
REMARK                         _______ _______ _______ _____ _____    ______ ____
ROOT
ATOM      1  C   UNL     1       1.631   5.627  20.262  0.00  0.00    +0.000 A 
ATOM      2  C   UNL     1       1.222   4.347  20.640  0.00  0.00    +0.000 A 
ATOM      3  C   UNL     1       1.692   3.233  19.947  0.00  0.00    +0.000 A 
ATOM      4  C   UNL     1       2.582   3.387  18.878  0.00  0.00    +0.000 A 
ATOM      5  C   UNL     1       3.037   4.655  18.486  0.00  0.00    +0.000 A 
ATOM      6  C   UNL     1       2.543   5.763  19.201  0.00  0.00    +0.000 A 
ENDROOT
BRANCH   5   7
ATOM      7  C   UNL     1       4.026   4.832  17.398  0.00  0.00    +0.000 A 
ATOM      8  C   UNL     1       4.411   6.114  16.952  0.00  0.00    +0.000 A 
ATOM      9  C   UNL     1       5.384   6.281  15.960  0.00  0.00    +0.000 A 
ATOM     10  C   UNL     1       5.973   5.164  15.387  0.00  0.00    +0.000 A 
ATOM     11  F   UNL     1       6.904   5.320  14.438  0.00  0.00    +0.000 F 
ATOM     12  C   UNL     1       5.613   3.888  15.791  0.00  0.00    +0.000 A 
ATOM     13  C   UNL     1       4.651   3.726  16.792  0.00  0.00    +0.000 A 
ENDBRANCH   5   7
BRANCH   1  15
ATOM     14  C   UNL     1       1.548   8.050  20.712  0.00  0.00    +0.000 C 
ATOM     15  C   UNL     1       1.180   6.799  21.025  0.00  0.00    +0.000 C 
BRANCH  14  17
ATOM     16  O   UNL     1       1.654   9.413  22.660  0.00  0.00    +0.000 OA
ATOM     17  C   UNL     1       1.148   9.200  21.565  0.00  0.00    +0.000 C 
BRANCH  17  18
ATOM     18  C   UNL     1       0.151  10.140  20.990  0.00  0.00    +0.000 A 
ATOM     19  C   UNL     1      -0.427  11.106  21.822  0.00  0.00    +0.000 A 
ATOM     20  C   UNL     1      -1.361  12.007  21.305  0.00  0.00    +0.000 A 
ATOM     21  C   UNL     1      -1.716  11.928  19.960  0.00  0.00    +0.000 A 
ATOM     22  C   UNL     1      -1.161  10.961  19.129  0.00  0.00    +0.000 A 
ATOM     23  C   UNL     1      -0.228  10.060  19.643  0.00  0.00    +0.000 A 
BRANCH  21  24
ATOM     24  O   UNL     1      -2.620  12.787  19.408  0.00  0.00    +0.000 OA
ATOM     25  H   UNL     1      -3.329  12.951  20.053  0.00  0.00    +0.000 HD
ENDBRANCH  21  24
ENDBRANCH  17  18
ENDBRANCH  14  17
ENDBRANCH   1  15
TORSDOF 5
ENDMDL
MODEL 3
REMARK VINA RESULT:      -8.2      0.473      1.092
REMARK  Name = 
REMARK  5 active torsions:
REMARK  status: ('A' for Active; 'I' for Inactive)
REMARK    1  A    between atoms: C_2  and  C_3
REMARK    2  A    between atoms: C_2  and  C_18
REMARK    3  A    between atoms: C_4  and  C_5
REMARK    4  A    between atoms: C_9  and  C_10
REMARK    5  A    between atoms: C_21  and  O_22
REMARK                            x       y       z     vdW  Elec       q    Type
REMARK                         _______ _______ _______ _____ _____    ______ ____
ROOT
ATOM      1  C   UNL     1       2.178   6.672  19.990  0.00  0.00    +0.000 A 
ATOM      2  C   UNL     1       1.645   5.537  20.602  0.00  0.00    +0.000 A 
ATOM      3  C   UNL     1       2.031   4.268  20.176  0.00  0.00    +0.000 A 
ATOM      4  C   UNL     1       2.962   4.122  19.142  0.00  0.00    +0.000 A 
ATOM      5  C   UNL     1       3.541   5.238  18.519  0.00  0.00    +0.000 A 
ATOM      6  C   UNL     1       3.129   6.507  18.967  0.00  0.00    +0.000 A 
ENDROOT
BRANCH   5   7
ATOM      7  C   UNL     1       4.574   5.102  17.466  0.00  0.00    +0.000 A 
ATOM      8  C   UNL     1       5.620   6.039  17.333  0.00  0.00    +0.000 A 
ATOM      9  C   UNL     1       6.624   5.882  16.371  0.00  0.00    +0.000 A 
ATOM     10  C   UNL     1       6.584   4.791  15.515  0.00  0.00    +0.000 A 
ATOM     11  F   UNL     1       7.543   4.638  14.594  0.00  0.00    +0.000 F 
ATOM     12  C   UNL     1       5.566   3.856  15.607  0.00  0.00    +0.000 A 
ATOM     13  C   UNL     1       4.573   4.010  16.579  0.00  0.00    +0.000 A 
ENDBRANCH   5   7
BRANCH   1  15
ATOM     14  C   UNL     1       0.796   8.220  21.321  0.00  0.00    +0.000 C 
ATOM     15  C   UNL     1       1.813   8.011  20.473  0.00  0.00    +0.000 C 
BRANCH  14  17
ATOM     16  O   UNL     1       0.423   9.985  22.874  0.00  0.00    +0.000 OA
ATOM     17  C   UNL     1       0.398   9.598  21.712  0.00  0.00    +0.000 C 
BRANCH  17  18
ATOM     18  C   UNL     1       0.041  10.525  20.607  0.00  0.00    +0.000 A 
ATOM     19  C   UNL     1       0.725  11.742  20.496  0.00  0.00    +0.000 A 
ATOM     20  C   UNL     1       0.413  12.628  19.462  0.00  0.00    +0.000 A 
ATOM     21  C   UNL     1      -0.587  12.294  18.552  0.00  0.00    +0.000 A 
ATOM     22  C   UNL     1      -1.284  11.096  18.664  0.00  0.00    +0.000 A 
ATOM     23  C   UNL     1      -0.975  10.209  19.696  0.00  0.00    +0.000 A 
BRANCH  21  24
ATOM     24  O   UNL     1      -0.924  13.123  17.524  0.00  0.00    +0.000 OA
ATOM     25  H   UNL     1      -1.855  13.385  17.626  0.00  0.00    +0.000 HD
ENDBRANCH  21  24
ENDBRANCH  17  18
ENDBRANCH  14  17
ENDBRANCH   1  15
TORSDOF 5
ENDMDL
MODEL 4
REMARK VINA RESULT:      -8.2      1.199      1.540
REMARK  Name = 
REMARK  5 active torsions:
REMARK  status: ('A' for Active; 'I' for Inactive)
REMARK    1  A    between atoms: C_2  and  C_3
REMARK    2  A    between atoms: C_2  and  C_18
REMARK    3  A    between atoms: C_4  and  C_5
REMARK    4  A    between atoms: C_9  and  C_10
REMARK    5  A    between atoms: C_21  and  O_22
REMARK                            x       y       z     vdW  Elec       q    Type
REMARK                         _______ _______ _______ _____ _____    ______ ____
ROOT
ATOM      1  C   UNL     1       2.013   5.477  20.461  0.00  0.00    +0.000 A 
ATOM      2  C   UNL     1       1.732   4.255  21.073  0.00  0.00    +0.000 A 
ATOM      3  C   UNL     1       2.385   3.098  20.653  0.00  0.00    +0.000 A 
ATOM      4  C   UNL     1       3.334   3.154  19.625  0.00  0.00    +0.000 A 
ATOM      5  C   UNL     1       3.664   4.368  19.004  0.00  0.00    +0.000 A 
ATOM      6  C   UNL     1       2.985   5.520  19.446  0.00  0.00    +0.000 A 
ENDROOT
BRANCH   5   7
ATOM      7  C   UNL     1       4.709   4.457  17.959  0.00  0.00    +0.000 A 
ATOM      8  C   UNL     1       6.059   4.708  18.284  0.00  0.00    +0.000 A 
ATOM      9  C   UNL     1       7.054   4.739  17.300  0.00  0.00    +0.000 A 
ATOM     10  C   UNL     1       6.708   4.537  15.973  0.00  0.00    +0.000 A 
ATOM     11  F   UNL     1       7.658   4.567  15.030  0.00  0.00    +0.000 F 
ATOM     12  C   UNL     1       5.391   4.299  15.612  0.00  0.00    +0.000 A 
ATOM     13  C   UNL     1       4.402   4.255  16.600  0.00  0.00    +0.000 A 
ENDBRANCH   5   7
BRANCH   1  15
ATOM     14  C   UNL     1       1.726   7.926  20.513  0.00  0.00    +0.000 C 
ATOM     15  C   UNL     1       1.365   6.706  20.939  0.00  0.00    +0.000 C 
BRANCH  14  17
ATOM     16  O   UNL     1       1.364   9.538  22.225  0.00  0.00    +0.000 OA
ATOM     17  C   UNL     1       1.112   9.149  21.091  0.00  0.00    +0.000 C 
BRANCH  17  18
ATOM     18  C   UNL     1       0.226   9.936  20.195  0.00  0.00    +0.000 A 
ATOM     19  C   UNL     1      -0.585  10.933  20.749  0.00  0.00    +0.000 A 
ATOM     20  C   UNL     1      -1.421  11.694  19.927  0.00  0.00    +0.000 A 
ATOM     21  C   UNL     1      -1.444  11.443  18.557  0.00  0.00    +0.000 A 
ATOM     22  C   UNL     1      -0.656  10.443  17.998  0.00  0.00    +0.000 A 
ATOM     23  C   UNL     1       0.180   9.683  18.817  0.00  0.00    +0.000 A 
BRANCH  21  24
ATOM     24  O   UNL     1      -2.240  12.161  17.713  0.00  0.00    +0.000 OA
ATOM     25  H   UNL     1      -2.373  13.048  18.089  0.00  0.00    +0.000 HD
ENDBRANCH  21  24
ENDBRANCH  17  18
ENDBRANCH  14  17
ENDBRANCH   1  15
TORSDOF 5
ENDMDL
MODEL 5
REMARK VINA RESULT:      -8.1      1.272      1.639
REMARK  Name = 
REMARK  5 active torsions:
REMARK  status: ('A' for Active; 'I' for Inactive)
REMARK    1  A    between atoms: C_2  and  C_3
REMARK    2  A    between atoms: C_2  and  C_18
REMARK    3  A    between atoms: C_4  and  C_5
REMARK    4  A    between atoms: C_9  and  C_10
REMARK    5  A    between atoms: C_21  and  O_22
REMARK                            x       y       z     vdW  Elec       q    Type
REMARK                         _______ _______ _______ _____ _____    ______ ____
ROOT
ATOM      1  C   UNL     1       1.793   5.372  20.375  0.00  0.00    +0.000 A 
ATOM      2  C   UNL     1       1.234   4.140  20.716  0.00  0.00    +0.000 A 
ATOM      3  C   UNL     1       1.717   2.970  20.134  0.00  0.00    +0.000 A 
ATOM      4  C   UNL     1       2.771   3.019  19.215  0.00  0.00    +0.000 A 
ATOM      5  C   UNL     1       3.378   4.235  18.867  0.00  0.00    +0.000 A 
ATOM      6  C   UNL     1       2.867   5.401  19.466  0.00  0.00    +0.000 A 
ENDROOT
BRANCH   5   7
ATOM      7  C   UNL     1       4.534   4.299  17.944  0.00  0.00    +0.000 A 
ATOM      8  C   UNL     1       4.388   4.064  16.560  0.00  0.00    +0.000 A 
ATOM      9  C   UNL     1       5.472   4.176  15.681  0.00  0.00    +0.000 A 
ATOM     10  C   UNL     1       6.723   4.508  16.180  0.00  0.00    +0.000 A 
ATOM     11  F   UNL     1       7.761   4.615  15.342  0.00  0.00    +0.000 F 
ATOM     12  C   UNL     1       6.908   4.735  17.534  0.00  0.00    +0.000 A 
ATOM     13  C   UNL     1       5.820   4.636  18.406  0.00  0.00    +0.000 A 
ENDBRANCH   5   7
BRANCH   1  15
ATOM     14  C   UNL     1       1.641   7.825  20.579  0.00  0.00    +0.000 C 
ATOM     15  C   UNL     1       1.322   6.602  21.027  0.00  0.00    +0.000 C 
BRANCH  14  17
ATOM     16  O   UNL     1       1.657   9.314  22.435  0.00  0.00    +0.000 OA
ATOM     17  C   UNL     1       1.223   9.042  21.322  0.00  0.00    +0.000 C 
BRANCH  17  18
ATOM     18  C   UNL     1       0.305   9.971  20.614  0.00  0.00    +0.000 A 
ATOM     19  C   UNL     1      -0.441  10.888  21.364  0.00  0.00    +0.000 A 
ATOM     20  C   UNL     1      -1.306  11.779  20.723  0.00  0.00    +0.000 A 
ATOM     21  C   UNL     1      -1.424  11.737  19.336  0.00  0.00    +0.000 A 
ATOM     22  C   UNL     1      -0.702  10.818  18.583  0.00  0.00    +0.000 A 
ATOM     23  C   UNL     1       0.163   9.929  19.221  0.00  0.00    +0.000 A 
BRANCH  21  24
ATOM     24  O   UNL     1      -2.252  12.588  18.664  0.00  0.00    +0.000 OA
ATOM     25  H   UNL     1      -1.710  13.193  18.129  0.00  0.00    +0.000 HD
ENDBRANCH  21  24
ENDBRANCH  17  18
ENDBRANCH  14  17
ENDBRANCH   1  15
TORSDOF 5
ENDMDL
MODEL 6
REMARK VINA RESULT:      -8.1      0.646      1.585
REMARK  Name = 
REMARK  5 active torsions:
REMARK  status: ('A' for Active; 'I' for Inactive)
REMARK    1  A    between atoms: C_2  and  C_3
REMARK    2  A    between atoms: C_2  and  C_18
REMARK    3  A    between atoms: C_4  and  C_5
REMARK    4  A    between atoms: C_9  and  C_10
REMARK    5  A    between atoms: C_21  and  O_22
REMARK                            x       y       z     vdW  Elec       q    Type
REMARK                         _______ _______ _______ _____ _____    ______ ____
ROOT
ATOM      1  C   UNL     1       2.015   5.605  20.326  0.00  0.00    +0.000 A 
ATOM      2  C   UNL     1       2.003   4.399  21.028  0.00  0.00    +0.000 A 
ATOM      3  C   UNL     1       2.733   3.310  20.556  0.00  0.00    +0.000 A 
ATOM      4  C   UNL     1       3.489   3.419  19.384  0.00  0.00    +0.000 A 
ATOM      5  C   UNL     1       3.548   4.622  18.664  0.00  0.00    +0.000 A 
ATOM      6  C   UNL     1       2.798   5.704  19.162  0.00  0.00    +0.000 A 
ENDROOT
BRANCH   5   7
ATOM      7  C   UNL     1       4.392   4.774  17.456  0.00  0.00    +0.000 A 
ATOM      8  C   UNL     1       4.990   3.661  16.830  0.00  0.00    +0.000 A 
ATOM      9  C   UNL     1       5.745   3.799  15.659  0.00  0.00    +0.000 A 
ATOM     10  C   UNL     1       5.926   5.059  15.109  0.00  0.00    +0.000 A 
ATOM     11  F   UNL     1       6.648   5.195  13.989  0.00  0.00    +0.000 F 
ATOM     12  C   UNL     1       5.364   6.178  15.702  0.00  0.00    +0.000 A 
ATOM     13  C   UNL     1       4.599   6.034  16.863  0.00  0.00    +0.000 A 
ENDBRANCH   5   7
BRANCH   1  15
ATOM     14  C   UNL     1       1.619   8.030  20.529  0.00  0.00    +0.000 C 
ATOM     15  C   UNL     1       1.290   6.771  20.850  0.00  0.00    +0.000 C 
BRANCH  14  17
ATOM     16  O   UNL     1       0.826   9.314  22.370  0.00  0.00    +0.000 OA
ATOM     17  C   UNL     1       0.922   9.184  21.155  0.00  0.00    +0.000 C 
BRANCH  17  18
ATOM     18  C   UNL     1       0.409  10.231  20.234  0.00  0.00    +0.000 A 
ATOM     19  C   UNL     1       1.075  11.461  20.168  0.00  0.00    +0.000 A 
ATOM     20  C   UNL     1       0.618  12.460  19.305  0.00  0.00    +0.000 A 
ATOM     21  C   UNL     1      -0.508  12.222  18.520  0.00  0.00    +0.000 A 
ATOM     22  C   UNL     1      -1.188  11.011  18.591  0.00  0.00    +0.000 A 
ATOM     23  C   UNL     1      -0.733  10.013  19.452  0.00  0.00    +0.000 A 
BRANCH  21  24
ATOM     24  O   UNL     1      -0.990  13.164  17.659  0.00  0.00    +0.000 OA
ATOM     25  H   UNL     1      -1.636  12.744  17.067  0.00  0.00    +0.000 HD
ENDBRANCH  21  24
ENDBRANCH  17  18
ENDBRANCH  14  17
ENDBRANCH   1  15
TORSDOF 5
ENDMDL
MODEL 7
REMARK VINA RESULT:      -8.0      1.156      1.515
REMARK  Name = 
REMARK  5 active torsions:
REMARK  status: ('A' for Active; 'I' for Inactive)
REMARK    1  A    between atoms: C_2  and  C_3
REMARK    2  A    between atoms: C_2  and  C_18
REMARK    3  A    between atoms: C_4  and  C_5
REMARK    4  A    between atoms: C_9  and  C_10
REMARK    5  A    between atoms: C_21  and  O_22
REMARK                            x       y       z     vdW  Elec       q    Type
REMARK                         _______ _______ _______ _____ _____    ______ ____
ROOT
ATOM      1  C   UNL     1       2.025   6.375  20.094  0.00  0.00    +0.000 A 
ATOM      2  C   UNL     1       1.975   5.250  20.919  0.00  0.00    +0.000 A 
ATOM      3  C   UNL     1       2.656   4.089  20.558  0.00  0.00    +0.000 A 
ATOM      4  C   UNL     1       3.402   4.046  19.375  0.00  0.00    +0.000 A 
ATOM      5  C   UNL     1       3.499   5.164  18.533  0.00  0.00    +0.000 A 
ATOM      6  C   UNL     1       2.798   6.321  18.920  0.00  0.00    +0.000 A 
ENDROOT
BRANCH   5   7
ATOM      7  C   UNL     1       4.334   5.155  17.310  0.00  0.00    +0.000 A 
ATOM      8  C   UNL     1       4.660   6.348  16.631  0.00  0.00    +0.000 A 
ATOM      9  C   UNL     1       5.492   6.344  15.505  0.00  0.00    +0.000 A 
ATOM     10  C   UNL     1       5.995   5.141  15.032  0.00  0.00    +0.000 A 
ATOM     11  F   UNL     1       6.791   5.134  13.956  0.00  0.00    +0.000 F 
ATOM     12  C   UNL     1       5.688   3.947  15.665  0.00  0.00    +0.000 A 
ATOM     13  C   UNL     1       4.868   3.957  16.798  0.00  0.00    +0.000 A 
ENDBRANCH   5   7
BRANCH   1  15
ATOM     14  C   UNL     1       1.298   8.699  19.711  0.00  0.00    +0.000 C 
ATOM     15  C   UNL     1       1.352   7.616  20.499  0.00  0.00    +0.000 C 
BRANCH  14  17
ATOM     16  O   UNL     1       1.151  10.597  21.139  0.00  0.00    +0.000 OA
ATOM     17  C   UNL     1       0.691   9.967  20.195  0.00  0.00    +0.000 C 
BRANCH  17  18
ATOM     18  C   UNL     1      -0.467  10.487  19.423  0.00  0.00    +0.000 A 
ATOM     19  C   UNL     1      -1.274  11.476  19.998  0.00  0.00    +0.000 A 
ATOM     20  C   UNL     1      -2.364  11.988  19.290  0.00  0.00    +0.000 A 
ATOM     21  C   UNL     1      -2.644  11.500  18.016  0.00  0.00    +0.000 A 
ATOM     22  C   UNL     1      -1.859  10.505  17.443  0.00  0.00    +0.000 A 
ATOM     23  C   UNL     1      -0.769   9.992  18.148  0.00  0.00    +0.000 A 
BRANCH  21  24
ATOM     24  O   UNL     1      -3.694  11.971  17.285  0.00  0.00    +0.000 OA
ATOM     25  H   UNL     1      -4.181  12.619  17.820  0.00  0.00    +0.000 HD
ENDBRANCH  21  24
ENDBRANCH  17  18
ENDBRANCH  14  17
ENDBRANCH   1  15
TORSDOF 5
ENDMDL
MODEL 8
REMARK VINA RESULT:      -8.0      4.560      8.920
REMARK  Name = 
REMARK  5 active torsions:
REMARK  status: ('A' for Active; 'I' for Inactive)
REMARK    1  A    between atoms: C_2  and  C_3
REMARK    2  A    between atoms: C_2  and  C_18
REMARK    3  A    between atoms: C_4  and  C_5
REMARK    4  A    between atoms: C_9  and  C_10
REMARK    5  A    between atoms: C_21  and  O_22
REMARK                            x       y       z     vdW  Elec       q    Type
REMARK                         _______ _______ _______ _____ _____    ______ ____
ROOT
ATOM      1  C   UNL     1       0.759   9.916  18.238  0.00  0.00    +0.000 A 
ATOM      2  C   UNL     1       1.545  11.017  18.584  0.00  0.00    +0.000 A 
ATOM      3  C   UNL     1       0.964  12.276  18.716  0.00  0.00    +0.000 A 
ATOM      4  C   UNL     1      -0.411  12.445  18.516  0.00  0.00    +0.000 A 
ATOM      5  C   UNL     1      -1.240  11.360  18.194  0.00  0.00    +0.000 A 
ATOM      6  C   UNL     1      -0.625  10.100  18.063  0.00  0.00    +0.000 A 
ENDROOT
BRANCH   5   7
ATOM      7  C   UNL     1      -2.705  11.509  18.039  0.00  0.00    +0.000 A 
ATOM      8  C   UNL     1      -3.351  11.228  16.817  0.00  0.00    +0.000 A 
ATOM      9  C   UNL     1      -4.742  11.320  16.687  0.00  0.00    +0.000 A 
ATOM     10  C   UNL     1      -5.504  11.713  17.776  0.00  0.00    +0.000 A 
ATOM     11  F   UNL     1      -6.834  11.802  17.655  0.00  0.00    +0.000 F 
ATOM     12  C   UNL     1      -4.905  12.010  18.990  0.00  0.00    +0.000 A 
ATOM     13  C   UNL     1      -3.517  11.903  19.120  0.00  0.00    +0.000 A 
ENDBRANCH   5   7
BRANCH   1  15
ATOM     14  C   UNL     1       2.682   8.387  18.042  0.00  0.00    +0.000 C 
ATOM     15  C   UNL     1       1.360   8.579  18.151  0.00  0.00    +0.000 C 
BRANCH  14  17
ATOM     16  O   UNL     1       4.268   6.813  17.222  0.00  0.00    +0.000 OA
ATOM     17  C   UNL     1       3.243   7.023  17.860  0.00  0.00    +0.000 C 
BRANCH  17  18
ATOM     18  C   UNL     1       2.543   5.916  18.561  0.00  0.00    +0.000 A 
ATOM     19  C   UNL     1       2.484   5.930  19.960  0.00  0.00    +0.000 A 
ATOM     20  C   UNL     1       1.824   4.906  20.643  0.00  0.00    +0.000 A 
ATOM     21  C   UNL     1       1.237   3.870  19.921  0.00  0.00    +0.000 A 
ATOM     22  C   UNL     1       1.305   3.837  18.533  0.00  0.00    +0.000 A 
ATOM     23  C   UNL     1       1.962   4.859  17.848  0.00  0.00    +0.000 A 
BRANCH  21  24
ATOM     24  O   UNL     1       0.578   2.850  20.543  0.00  0.00    +0.000 OA
ATOM     25  H   UNL     1       0.368   2.166  19.884  0.00  0.00    +0.000 HD
ENDBRANCH  21  24
ENDBRANCH  17  18
ENDBRANCH  14  17
ENDBRANCH   1  15
TORSDOF 5
ENDMDL
MODEL 9
REMARK VINA RESULT:      -8.0      1.271      1.863
REMARK  Name = 
REMARK  5 active torsions:
REMARK  status: ('A' for Active; 'I' for Inactive)
REMARK    1  A    between atoms: C_2  and  C_3
REMARK    2  A    between atoms: C_2  and  C_18
REMARK    3  A    between atoms: C_4  and  C_5
REMARK    4  A    between atoms: C_9  and  C_10
REMARK    5  A    between atoms: C_21  and  O_22
REMARK                            x       y       z     vdW  Elec       q    Type
REMARK                         _______ _______ _______ _____ _____    ______ ____
ROOT
ATOM      1  C   UNL     1       2.086   6.473  20.127  0.00  0.00    +0.000 A 
ATOM      2  C   UNL     1       1.815   5.332  20.883  0.00  0.00    +0.000 A 
ATOM      3  C   UNL     1       2.448   4.128  20.581  0.00  0.00    +0.000 A 
ATOM      4  C   UNL     1       3.365   4.056  19.527  0.00  0.00    +0.000 A 
ATOM      5  C   UNL     1       3.684   5.187  18.760  0.00  0.00    +0.000 A 
ATOM      6  C   UNL     1       3.027   6.388  19.085  0.00  0.00    +0.000 A 
ENDROOT
BRANCH   5   7
ATOM      7  C   UNL     1       4.699   5.143  17.681  0.00  0.00    +0.000 A 
ATOM      8  C   UNL     1       4.624   4.199  16.636  0.00  0.00    +0.000 A 
ATOM      9  C   UNL     1       5.554   4.192  15.589  0.00  0.00    +0.000 A 
ATOM     10  C   UNL     1       6.583   5.122  15.585  0.00  0.00    +0.000 A 
ATOM     11  F   UNL     1       7.474   5.117  14.586  0.00  0.00    +0.000 F 
ATOM     12  C   UNL     1       6.696   6.058  16.601  0.00  0.00    +0.000 A 
ATOM     13  C   UNL     1       5.758   6.070  17.637  0.00  0.00    +0.000 A 
ENDBRANCH   5   7
BRANCH   1  15
ATOM     14  C   UNL     1       1.269   8.735  19.582  0.00  0.00    +0.000 C 
ATOM     15  C   UNL     1       1.461   7.755  20.477  0.00  0.00    +0.000 C 
BRANCH  14  17
ATOM     16  O   UNL     1       1.247  10.739  20.864  0.00  0.00    +0.000 OA
ATOM     17  C   UNL     1       0.721  10.052  19.997  0.00  0.00    +0.000 C 
BRANCH  17  18
ATOM     18  C   UNL     1      -0.464  10.545  19.249  0.00  0.00    +0.000 A 
ATOM     19  C   UNL     1      -1.246  11.561  19.812  0.00  0.00    +0.000 A 
ATOM     20  C   UNL     1      -2.361  12.048  19.126  0.00  0.00    +0.000 A 
ATOM     21  C   UNL     1      -2.691  11.508  17.885  0.00  0.00    +0.000 A 
ATOM     22  C   UNL     1      -1.931  10.487  17.325  0.00  0.00    +0.000 A 
ATOM     23  C   UNL     1      -0.817   9.999  18.008  0.00  0.00    +0.000 A 
BRANCH  21  24
ATOM     24  O   UNL     1      -3.767  11.953  17.175  0.00  0.00    +0.000 OA
ATOM     25  H   UNL     1      -4.530  12.019  17.774  0.00  0.00    +0.000 HD
ENDBRANCH  21  24
ENDBRANCH  17  18
ENDBRANCH  14  17
ENDBRANCH   1  15
TORSDOF 5
ENDMDL
