MODEL 1
REMARK VINA RESULT:      -7.7      0.000      0.000
REMARK  Name = 
REMARK  8 active torsions:
REMARK  status: ('A' for Active; 'I' for Inactive)
REMARK    1  A    between atoms: C_1  and  C_2
REMARK    2  A    between atoms: C_2  and  C_3
REMARK    3  A    between atoms: C_2  and  C_4
REMARK    4  A    between atoms: C_2  and  O_5
REMARK    5  A    between atoms: O_5  and  C_6
REMARK    6  A    between atoms: C_11  and  C_12
REMARK    7  A    between atoms: C_12  and  N_13
REMARK    8  A    between atoms: C_14  and  C_16
REMARK                            x       y       z     vdW  Elec       q    Type
REMARK                         _______ _______ _______ _____ _____    ______ ____
ROOT
ATOM      1  C   UNL     1       4.417   3.574  18.352  0.00  0.00    +0.000 C 
ATOM      2  O   UNL     1       4.230   2.823  17.397  0.00  0.00    +0.000 OA
ATOM      3  N   UNL     1       5.080   4.780  18.218  0.00  0.00    +0.000 N 
ATOM      4  C   UNL     1       5.495   5.197  16.886  0.00  0.00    +0.000 C 
ATOM      5  C   UNL     1       7.017   5.204  16.796  0.00  0.00    +0.000 C 
ATOM      6  C   UNL     1       7.637   6.105  17.879  0.00  0.00    +0.000 C 
ATOM      7  C   UNL     1       7.111   5.675  19.267  0.00  0.00    +0.000 C 
ATOM      8  C   UNL     1       5.579   5.585  19.327  0.00  0.00    +0.000 C 
ENDROOT
BRANCH   1   9
ATOM      9  O   UNL     1       3.989   3.306  19.620  0.00  0.00    +0.000 OA
BRANCH   9  11
ATOM     10  C   UNL     1       1.913   2.070  19.189  0.00  0.00    +0.000 C 
ATOM     11  C   UNL     1       2.557   3.282  19.877  0.00  0.00    +0.000 C 
ATOM     12  C   UNL     1       1.892   4.611  19.479  0.00  0.00    +0.000 C 
ATOM     13  C   UNL     1       2.363   3.107  21.395  0.00  0.00    +0.000 C 
ENDBRANCH   9  11
ENDBRANCH   1   9
BRANCH   6  14
ATOM     14  C   UNL     1       7.369   7.599  17.625  0.00  0.00    +0.000 C 
BRANCH  14  15
ATOM     15  N   UNL     1       8.390   8.443  18.213  0.00  0.00    +0.000 N 
ATOM     16  C   UNL     1       8.381   9.812  18.028  0.00  0.00    +0.000 C 
ATOM     17  O   UNL     1       7.557  10.401  17.339  0.00  0.00    +0.000 OA
ATOM     18  H   UNL     1       8.904   8.080  19.007  0.00  0.00    +0.000 HD
BRANCH  16  19
ATOM     19  C   UNL     1       9.434  10.571  18.756  0.00  0.00    +0.000 A 
ATOM     20  C   UNL     1       9.347  10.798  20.137  0.00  0.00    +0.000 A 
ATOM     21  C   UNL     1      10.344  11.523  20.790  0.00  0.00    +0.000 A 
ATOM     22  C   UNL     1      11.435  12.014  20.072  0.00  0.00    +0.000 A 
ATOM     23  C   UNL     1      11.536  11.771  18.701  0.00  0.00    +0.000 A 
ATOM     24  C   UNL     1      10.543  11.045  18.044  0.00  0.00    +0.000 A 
ENDBRANCH  16  19
ENDBRANCH  14  15
ENDBRANCH   6  14
TORSDOF 5
ENDMDL
MODEL 2
REMARK VINA RESULT:      -7.7      0.440      1.100
REMARK  Name = 
REMARK  8 active torsions:
REMARK  status: ('A' for Active; 'I' for Inactive)
REMARK    1  A    between atoms: C_1  and  C_2
REMARK    2  A    between atoms: C_2  and  C_3
REMARK    3  A    between atoms: C_2  and  C_4
REMARK    4  A    between atoms: C_2  and  O_5
REMARK    5  A    between atoms: O_5  and  C_6
REMARK    6  A    between atoms: C_11  and  C_12
REMARK    7  A    between atoms: C_12  and  N_13
REMARK    8  A    between atoms: C_14  and  C_16
REMARK                            x       y       z     vdW  Elec       q    Type
REMARK                         _______ _______ _______ _____ _____    ______ ____
ROOT
ATOM      1  C   UNL     1       4.549   3.826  17.957  0.00  0.00    +0.000 C 
ATOM      2  O   UNL     1       4.289   3.249  16.904  0.00  0.00    +0.000 OA
ATOM      3  N   UNL     1       5.172   5.059  17.984  0.00  0.00    +0.000 N 
ATOM      4  C   UNL     1       5.453   5.720  16.716  0.00  0.00    +0.000 C 
ATOM      5  C   UNL     1       6.959   5.799  16.494  0.00  0.00    +0.000 C 
ATOM      6  C   UNL     1       7.659   6.516  17.662  0.00  0.00    +0.000 C 
ATOM      7  C   UNL     1       7.274   5.829  18.992  0.00  0.00    +0.000 C 
ATOM      8  C   UNL     1       5.757   5.674  19.170  0.00  0.00    +0.000 C 
ENDROOT
BRANCH   1   9
ATOM      9  O   UNL     1       4.247   3.323  19.190  0.00  0.00    +0.000 OA
BRANCH   9  11
ATOM     10  C   UNL     1       2.222   1.988  18.819  0.00  0.00    +0.000 C 
ATOM     11  C   UNL     1       2.846   3.181  19.555  0.00  0.00    +0.000 C 
ATOM     12  C   UNL     1       2.070   4.489  19.326  0.00  0.00    +0.000 C 
ATOM     13  C   UNL     1       2.792   2.871  21.063  0.00  0.00    +0.000 C 
ENDBRANCH   9  11
ENDBRANCH   1   9
BRANCH   6  14
ATOM     14  C   UNL     1       7.339   8.021  17.704  0.00  0.00    +0.000 C 
BRANCH  14  15
ATOM     15  N   UNL     1       8.439   8.797  18.242  0.00  0.00    +0.000 N 
ATOM     16  C   UNL     1       8.514  10.163  18.047  0.00  0.00    +0.000 C 
ATOM     17  O   UNL     1       7.703  10.802  17.388  0.00  0.00    +0.000 OA
ATOM     18  H   UNL     1       8.961   8.404  19.015  0.00  0.00    +0.000 HD
BRANCH  16  19
ATOM     19  C   UNL     1       9.646  10.852  18.722  0.00  0.00    +0.000 A 
ATOM     20  C   UNL     1      10.800  11.223  18.017  0.00  0.00    +0.000 A 
ATOM     21  C   UNL     1      11.851  11.858  18.680  0.00  0.00    +0.000 A 
ATOM     22  C   UNL     1      11.750  12.136  20.043  0.00  0.00    +0.000 A 
ATOM     23  C   UNL     1      10.593  11.790  20.744  0.00  0.00    +0.000 A 
ATOM     24  C   UNL     1       9.539  11.156  20.085  0.00  0.00    +0.000 A 
ENDBRANCH  16  19
ENDBRANCH  14  15
ENDBRANCH   6  14
TORSDOF 5
ENDMDL
MODEL 3
REMARK VINA RESULT:      -7.4      0.812      1.603
REMARK  Name = 
REMARK  8 active torsions:
REMARK  status: ('A' for Active; 'I' for Inactive)
REMARK    1  A    between atoms: C_1  and  C_2
REMARK    2  A    between atoms: C_2  and  C_3
REMARK    3  A    between atoms: C_2  and  C_4
REMARK    4  A    between atoms: C_2  and  O_5
REMARK    5  A    between atoms: O_5  and  C_6
REMARK    6  A    between atoms: C_11  and  C_12
REMARK    7  A    between atoms: C_12  and  N_13
REMARK    8  A    between atoms: C_14  and  C_16
REMARK                            x       y       z     vdW  Elec       q    Type
REMARK                         _______ _______ _______ _____ _____    ______ ____
ROOT
ATOM      1  C   UNL     1       4.667   4.013  17.429  0.00  0.00    +0.000 C 
ATOM      2  O   UNL     1       4.454   3.572  16.302  0.00  0.00    +0.000 OA
ATOM      3  N   UNL     1       5.267   5.241  17.635  0.00  0.00    +0.000 N 
ATOM      4  C   UNL     1       5.581   6.061  16.472  0.00  0.00    +0.000 C 
ATOM      5  C   UNL     1       7.092   6.186  16.318  0.00  0.00    +0.000 C 
ATOM      6  C   UNL     1       7.738   6.758  17.593  0.00  0.00    +0.000 C 
ATOM      7  C   UNL     1       7.319   5.903  18.810  0.00  0.00    +0.000 C 
ATOM      8  C   UNL     1       5.799   5.707  18.910  0.00  0.00    +0.000 C 
ENDROOT
BRANCH   1   9
ATOM      9  O   UNL     1       4.331   3.353  18.576  0.00  0.00    +0.000 OA
BRANCH   9  11
ATOM     10  C   UNL     1       2.782   3.337  20.478  0.00  0.00    +0.000 C 
ATOM     11  C   UNL     1       2.926   3.289  18.951  0.00  0.00    +0.000 C 
ATOM     12  C   UNL     1       2.234   2.064  18.330  0.00  0.00    +0.000 C 
ATOM     13  C   UNL     1       2.239   4.544  18.383  0.00  0.00    +0.000 C 
ENDBRANCH   9  11
ENDBRANCH   1   9
BRANCH   6  14
ATOM     14  C   UNL     1       7.391   8.241  17.813  0.00  0.00    +0.000 C 
BRANCH  14  15
ATOM     15  N   UNL     1       8.521   8.997  18.315  0.00  0.00    +0.000 N 
ATOM     16  C   UNL     1       8.643  10.351  18.069  0.00  0.00    +0.000 C 
ATOM     17  O   UNL     1       7.850  10.994  17.393  0.00  0.00    +0.000 OA
ATOM     18  H   UNL     1       9.034   8.614  19.099  0.00  0.00    +0.000 HD
BRANCH  16  19
ATOM     19  C   UNL     1       9.804  11.024  18.712  0.00  0.00    +0.000 A 
ATOM     20  C   UNL     1      10.935  11.394  17.971  0.00  0.00    +0.000 A 
ATOM     21  C   UNL     1      12.014  12.014  18.604  0.00  0.00    +0.000 A 
ATOM     22  C   UNL     1      11.962  12.276  19.973  0.00  0.00    +0.000 A 
ATOM     23  C   UNL     1      10.828  11.931  20.710  0.00  0.00    +0.000 A 
ATOM     24  C   UNL     1       9.747  11.313  20.081  0.00  0.00    +0.000 A 
ENDBRANCH  16  19
ENDBRANCH  14  15
ENDBRANCH   6  14
TORSDOF 5
ENDMDL
MODEL 4
REMARK VINA RESULT:      -7.0      4.524      6.870
REMARK  Name = 
REMARK  8 active torsions:
REMARK  status: ('A' for Active; 'I' for Inactive)
REMARK    1  A    between atoms: C_1  and  C_2
REMARK    2  A    between atoms: C_2  and  C_3
REMARK    3  A    between atoms: C_2  and  C_4
REMARK    4  A    between atoms: C_2  and  O_5
REMARK    5  A    between atoms: O_5  and  C_6
REMARK    6  A    between atoms: C_11  and  C_12
REMARK    7  A    between atoms: C_12  and  N_13
REMARK    8  A    between atoms: C_14  and  C_16
REMARK                            x       y       z     vdW  Elec       q    Type
REMARK                         _______ _______ _______ _____ _____    ______ ____
ROOT
ATOM      1  C   UNL     1       3.799   2.974  19.277  0.00  0.00    +0.000 C 
ATOM      2  O   UNL     1       4.123   1.790  19.218  0.00  0.00    +0.000 OA
ATOM      3  N   UNL     1       4.079   3.863  18.257  0.00  0.00    +0.000 N 
ATOM      4  C   UNL     1       4.708   3.351  17.046  0.00  0.00    +0.000 C 
ATOM      5  C   UNL     1       6.118   3.915  16.916  0.00  0.00    +0.000 C 
ATOM      6  C   UNL     1       6.108   5.455  16.930  0.00  0.00    +0.000 C 
ATOM      7  C   UNL     1       5.367   5.953  18.191  0.00  0.00    +0.000 C 
ATOM      8  C   UNL     1       3.981   5.314  18.364  0.00  0.00    +0.000 C 
ENDROOT
BRANCH   1   9
ATOM      9  O   UNL     1       3.132   3.524  20.334  0.00  0.00    +0.000 OA
BRANCH   9  11
ATOM     10  C   UNL     1       1.378   2.567  21.758  0.00  0.00    +0.000 C 
ATOM     11  C   UNL     1       1.700   3.293  20.445  0.00  0.00    +0.000 C 
ATOM     12  C   UNL     1       1.152   2.555  19.211  0.00  0.00    +0.000 C 
ATOM     13  C   UNL     1       1.014   4.671  20.500  0.00  0.00    +0.000 C 
ENDBRANCH   9  11
ENDBRANCH   1   9
BRANCH   6  14
ATOM     14  C   UNL     1       5.488   6.049  15.653  0.00  0.00    +0.000 C 
BRANCH  14  15
ATOM     15  N   UNL     1       5.440   5.085  14.571  0.00  0.00    +0.000 N 
ATOM     16  C   UNL     1       6.548   4.838  13.783  0.00  0.00    +0.000 C 
ATOM     17  O   UNL     1       7.615   5.426  13.906  0.00  0.00    +0.000 OA
ATOM     18  H   UNL     1       4.718   4.376  14.602  0.00  0.00    +0.000 HD
BRANCH  16  19
ATOM     19  C   UNL     1       6.392   3.765  12.764  0.00  0.00    +0.000 A 
ATOM     20  C   UNL     1       5.125   3.303  12.381  0.00  0.00    +0.000 A 
ATOM     21  C   UNL     1       5.010   2.287  11.430  0.00  0.00    +0.000 A 
ATOM     22  C   UNL     1       6.155   1.738  10.853  0.00  0.00    +0.000 A 
ATOM     23  C   UNL     1       7.417   2.212  11.215  0.00  0.00    +0.000 A 
ATOM     24  C   UNL     1       7.537   3.228  12.164  0.00  0.00    +0.000 A 
ENDBRANCH  16  19
ENDBRANCH  14  15
ENDBRANCH   6  14
TORSDOF 5
ENDMDL
MODEL 5
REMARK VINA RESULT:      -7.0      1.725      2.482
REMARK  Name = 
REMARK  8 active torsions:
REMARK  status: ('A' for Active; 'I' for Inactive)
REMARK    1  A    between atoms: C_1  and  C_2
REMARK    2  A    between atoms: C_2  and  C_3
REMARK    3  A    between atoms: C_2  and  C_4
REMARK    4  A    between atoms: C_2  and  O_5
REMARK    5  A    between atoms: O_5  and  C_6
REMARK    6  A    between atoms: C_11  and  C_12
REMARK    7  A    between atoms: C_12  and  N_13
REMARK    8  A    between atoms: C_14  and  C_16
REMARK                            x       y       z     vdW  Elec       q    Type
REMARK                         _______ _______ _______ _____ _____    ______ ____
ROOT
ATOM      1  C   UNL     1       3.170   5.127  19.529  0.00  0.00    +0.000 C 
ATOM      2  O   UNL     1       2.443   6.050  19.890  0.00  0.00    +0.000 OA
ATOM      3  N   UNL     1       4.356   5.349  18.855  0.00  0.00    +0.000 N 
ATOM      4  C   UNL     1       4.785   6.726  18.644  0.00  0.00    +0.000 C 
ATOM      5  C   UNL     1       4.746   7.058  17.156  0.00  0.00    +0.000 C 
ATOM      6  C   UNL     1       5.607   6.076  16.341  0.00  0.00    +0.000 C 
ATOM      7  C   UNL     1       5.168   4.628  16.653  0.00  0.00    +0.000 C 
ATOM      8  C   UNL     1       5.125   4.325  18.158  0.00  0.00    +0.000 C 
ENDROOT
BRANCH   1   9
ATOM      9  O   UNL     1       2.892   3.811  19.757  0.00  0.00    +0.000 OA
BRANCH   9  11
ATOM     10  C   UNL     1       2.384   1.781  18.476  0.00  0.00    +0.000 C 
ATOM     11  C   UNL     1       1.888   3.161  18.928  0.00  0.00    +0.000 C 
ATOM     12  C   UNL     1       1.469   4.055  17.749  0.00  0.00    +0.000 C 
ATOM     13  C   UNL     1       0.641   2.938  19.804  0.00  0.00    +0.000 C 
ENDBRANCH   9  11
ENDBRANCH   1   9
BRANCH   6  14
ATOM     14  C   UNL     1       7.113   6.265  16.595  0.00  0.00    +0.000 C 
BRANCH  14  15
ATOM     15  N   UNL     1       7.442   7.639  16.922  0.00  0.00    +0.000 N 
ATOM     16  C   UNL     1       8.120   7.956  18.083  0.00  0.00    +0.000 C 
ATOM     17  O   UNL     1       8.453   7.130  18.924  0.00  0.00    +0.000 OA
ATOM     18  H   UNL     1       7.466   8.312  16.165  0.00  0.00    +0.000 HD
BRANCH  16  19
ATOM     19  C   UNL     1       8.471   9.391  18.257  0.00  0.00    +0.000 A 
ATOM     20  C   UNL     1       7.937  10.379  17.416  0.00  0.00    +0.000 A 
ATOM     21  C   UNL     1       8.294  11.717  17.597  0.00  0.00    +0.000 A 
ATOM     22  C   UNL     1       9.173  12.073  18.620  0.00  0.00    +0.000 A 
ATOM     23  C   UNL     1       9.687  11.096  19.472  0.00  0.00    +0.000 A 
ATOM     24  C   UNL     1       9.332   9.758  19.297  0.00  0.00    +0.000 A 
ENDBRANCH  16  19
ENDBRANCH  14  15
ENDBRANCH   6  14
TORSDOF 5
ENDMDL
MODEL 6
REMARK VINA RESULT:      -7.0      1.728      2.525
REMARK  Name = 
REMARK  8 active torsions:
REMARK  status: ('A' for Active; 'I' for Inactive)
REMARK    1  A    between atoms: C_1  and  C_2
REMARK    2  A    between atoms: C_2  and  C_3
REMARK    3  A    between atoms: C_2  and  C_4
REMARK    4  A    between atoms: C_2  and  O_5
REMARK    5  A    between atoms: O_5  and  C_6
REMARK    6  A    between atoms: C_11  and  C_12
REMARK    7  A    between atoms: C_12  and  N_13
REMARK    8  A    between atoms: C_14  and  C_16
REMARK                            x       y       z     vdW  Elec       q    Type
REMARK                         _______ _______ _______ _____ _____    ______ ____
ROOT
ATOM      1  C   UNL     1       3.139   4.927  19.426  0.00  0.00    +0.000 C 
ATOM      2  O   UNL     1       2.423   5.803  19.907  0.00  0.00    +0.000 OA
ATOM      3  N   UNL     1       4.321   5.223  18.775  0.00  0.00    +0.000 N 
ATOM      4  C   UNL     1       4.760   6.612  18.733  0.00  0.00    +0.000 C 
ATOM      5  C   UNL     1       4.711   7.128  17.300  0.00  0.00    +0.000 C 
ATOM      6  C   UNL     1       5.557   6.250  16.360  0.00  0.00    +0.000 C 
ATOM      7  C   UNL     1       5.109   4.777  16.492  0.00  0.00    +0.000 C 
ATOM      8  C   UNL     1       5.075   4.288  17.948  0.00  0.00    +0.000 C 
ENDROOT
BRANCH   1   9
ATOM      9  O   UNL     1       2.851   3.595  19.491  0.00  0.00    +0.000 OA
BRANCH   9  11
ATOM     10  C   UNL     1       1.422   4.118  17.567  0.00  0.00    +0.000 C 
ATOM     11  C   UNL     1       1.825   3.064  18.606  0.00  0.00    +0.000 C 
ATOM     12  C   UNL     1       0.623   2.525  19.400  0.00  0.00    +0.000 C 
ATOM     13  C   UNL     1       2.443   1.877  17.843  0.00  0.00    +0.000 C 
ENDBRANCH   9  11
ENDBRANCH   1   9
BRANCH   6  14
ATOM     14  C   UNL     1       7.067   6.394  16.622  0.00  0.00    +0.000 C 
BRANCH  14  15
ATOM     15  N   UNL     1       7.431   7.753  16.974  0.00  0.00    +0.000 N 
ATOM     16  C   UNL     1       8.141   8.027  18.127  0.00  0.00    +0.000 C 
ATOM     17  O   UNL     1       8.473   7.174  18.941  0.00  0.00    +0.000 OA
ATOM     18  H   UNL     1       7.453   8.443  16.233  0.00  0.00    +0.000 HD
BRANCH  16  19
ATOM     19  C   UNL     1       8.525   9.451  18.328  0.00  0.00    +0.000 A 
ATOM     20  C   UNL     1       9.375   9.836  19.374  0.00  0.00    +0.000 A 
ATOM     21  C   UNL     1       9.708  11.181  19.544  0.00  0.00    +0.000 A 
ATOM     22  C   UNL     1       9.206  12.141  18.666  0.00  0.00    +0.000 A 
ATOM     23  C   UNL     1       8.379  11.758  17.609  0.00  0.00    +0.000 A 
ATOM     24  C   UNL     1       8.044  10.415  17.434  0.00  0.00    +0.000 A 
ENDBRANCH  16  19
ENDBRANCH  14  15
ENDBRANCH   6  14
TORSDOF 5
ENDMDL
MODEL 7
REMARK VINA RESULT:      -6.9      4.132      7.101
REMARK  Name = 
REMARK  8 active torsions:
REMARK  status: ('A' for Active; 'I' for Inactive)
REMARK    1  A    between atoms: C_1  and  C_2
REMARK    2  A    between atoms: C_2  and  C_3
REMARK    3  A    between atoms: C_2  and  C_4
REMARK    4  A    between atoms: C_2  and  O_5
REMARK    5  A    between atoms: O_5  and  C_6
REMARK    6  A    between atoms: C_11  and  C_12
REMARK    7  A    between atoms: C_12  and  N_13
REMARK    8  A    between atoms: C_14  and  C_16
REMARK                            x       y       z     vdW  Elec       q    Type
REMARK                         _______ _______ _______ _____ _____    ______ ____
ROOT
ATOM      1  C   UNL     1       3.540   4.798  19.364  0.00  0.00    +0.000 C 
ATOM      2  O   UNL     1       3.761   5.251  20.485  0.00  0.00    +0.000 OA
ATOM      3  N   UNL     1       4.532   4.692  18.408  0.00  0.00    +0.000 N 
ATOM      4  C   UNL     1       5.893   5.059  18.779  0.00  0.00    +0.000 C 
ATOM      5  C   UNL     1       6.322   6.304  18.010  0.00  0.00    +0.000 C 
ATOM      6  C   UNL     1       6.197   6.093  16.490  0.00  0.00    +0.000 C 
ATOM      7  C   UNL     1       4.761   5.633  16.151  0.00  0.00    +0.000 C 
ATOM      8  C   UNL     1       4.302   4.432  16.992  0.00  0.00    +0.000 C 
ENDROOT
BRANCH   1   9
ATOM      9  O   UNL     1       2.316   4.352  18.956  0.00  0.00    +0.000 OA
BRANCH   9  11
ATOM     10  C   UNL     1       2.985   2.113  19.704  0.00  0.00    +0.000 C 
ATOM     11  C   UNL     1       1.823   3.093  19.495  0.00  0.00    +0.000 C 
ATOM     12  C   UNL     1       0.705   2.506  18.617  0.00  0.00    +0.000 C 
ATOM     13  C   UNL     1       1.215   3.390  20.878  0.00  0.00    +0.000 C 
ENDBRANCH   9  11
ENDBRANCH   1   9
BRANCH   6  14
ATOM     14  C   UNL     1       7.239   5.098  15.948  0.00  0.00    +0.000 C 
BRANCH  14  15
ATOM     15  N   UNL     1       6.702   4.275  14.882  0.00  0.00    +0.000 N 
ATOM     16  C   UNL     1       7.011   4.527  13.559  0.00  0.00    +0.000 C 
ATOM     17  O   UNL     1       7.709   5.463  13.189  0.00  0.00    +0.000 OA
ATOM     18  H   UNL     1       6.379   3.345  15.120  0.00  0.00    +0.000 HD
BRANCH  16  19
ATOM     19  C   UNL     1       6.465   3.557  12.571  0.00  0.00    +0.000 A 
ATOM     20  C   UNL     1       5.096   3.512  12.274  0.00  0.00    +0.000 A 
ATOM     21  C   UNL     1       4.612   2.583  11.350  0.00  0.00    +0.000 A 
ATOM     22  C   UNL     1       5.491   1.707  10.714  0.00  0.00    +0.000 A 
ATOM     23  C   UNL     1       6.858   1.766  10.990  0.00  0.00    +0.000 A 
ATOM     24  C   UNL     1       7.347   2.693  11.911  0.00  0.00    +0.000 A 
ENDBRANCH  16  19
ENDBRANCH  14  15
ENDBRANCH   6  14
TORSDOF 5
ENDMDL
MODEL 8
REMARK VINA RESULT:      -6.9      4.047      6.834
REMARK  Name = 
REMARK  8 active torsions:
REMARK  status: ('A' for Active; 'I' for Inactive)
REMARK    1  A    between atoms: C_1  and  C_2
REMARK    2  A    between atoms: C_2  and  C_3
REMARK    3  A    between atoms: C_2  and  C_4
REMARK    4  A    between atoms: C_2  and  O_5
REMARK    5  A    between atoms: O_5  and  C_6
REMARK    6  A    between atoms: C_11  and  C_12
REMARK    7  A    between atoms: C_12  and  N_13
REMARK    8  A    between atoms: C_14  and  C_16
REMARK                            x       y       z     vdW  Elec       q    Type
REMARK                         _______ _______ _______ _____ _____    ______ ____
ROOT
ATOM      1  C   UNL     1       4.411   3.390  19.036  0.00  0.00    +0.000 C 
ATOM      2  O   UNL     1       4.834   3.203  20.174  0.00  0.00    +0.000 OA
ATOM      3  N   UNL     1       5.176   4.002  18.061  0.00  0.00    +0.000 N 
ATOM      4  C   UNL     1       6.552   4.360  18.384  0.00  0.00    +0.000 C 
ATOM      5  C   UNL     1       6.703   5.877  18.398  0.00  0.00    +0.000 C 
ATOM      6  C   UNL     1       6.267   6.495  17.057  0.00  0.00    +0.000 C 
ATOM      7  C   UNL     1       4.833   6.029  16.718  0.00  0.00    +0.000 C 
ATOM      8  C   UNL     1       4.665   4.504  16.791  0.00  0.00    +0.000 C 
ENDROOT
BRANCH   1   9
ATOM      9  O   UNL     1       3.167   3.013  18.619  0.00  0.00    +0.000 OA
BRANCH   9  11
ATOM     10  C   UNL     1       2.497   5.096  19.727  0.00  0.00    +0.000 C 
ATOM     11  C   UNL     1       2.024   3.807  19.043  0.00  0.00    +0.000 C 
ATOM     12  C   UNL     1       1.066   2.986  19.924  0.00  0.00    +0.000 C 
ATOM     13  C   UNL     1       1.249   4.214  17.775  0.00  0.00    +0.000 C 
ENDBRANCH   9  11
ENDBRANCH   1   9
BRANCH   6  14
ATOM     14  C   UNL     1       7.242   6.162  15.913  0.00  0.00    +0.000 C 
BRANCH  14  15
ATOM     15  N   UNL     1       6.648   5.275  14.933  0.00  0.00    +0.000 N 
ATOM     16  C   UNL     1       7.239   5.073  13.700  0.00  0.00    +0.000 C 
ATOM     17  O   UNL     1       8.260   5.641  13.333  0.00  0.00    +0.000 OA
ATOM     18  H   UNL     1       5.999   4.571  15.264  0.00  0.00    +0.000 HD
BRANCH  16  19
ATOM     19  C   UNL     1       6.575   4.073  12.820  0.00  0.00    +0.000 A 
ATOM     20  C   UNL     1       7.321   3.143  12.082  0.00  0.00    +0.000 A 
ATOM     21  C   UNL     1       6.671   2.224  11.256  0.00  0.00    +0.000 A 
ATOM     22  C   UNL     1       5.278   2.224  11.172  0.00  0.00    +0.000 A 
ATOM     23  C   UNL     1       4.532   3.133  11.924  0.00  0.00    +0.000 A 
ATOM     24  C   UNL     1       5.177   4.052  12.752  0.00  0.00    +0.000 A 
ENDBRANCH  16  19
ENDBRANCH  14  15
ENDBRANCH   6  14
TORSDOF 5
ENDMDL
MODEL 9
REMARK VINA RESULT:      -6.9      1.778      2.532
REMARK  Name = 
REMARK  8 active torsions:
REMARK  status: ('A' for Active; 'I' for Inactive)
REMARK    1  A    between atoms: C_1  and  C_2
REMARK    2  A    between atoms: C_2  and  C_3
REMARK    3  A    between atoms: C_2  and  C_4
REMARK    4  A    between atoms: C_2  and  O_5
REMARK    5  A    between atoms: O_5  and  C_6
REMARK    6  A    between atoms: C_11  and  C_12
REMARK    7  A    between atoms: C_12  and  N_13
REMARK    8  A    between atoms: C_14  and  C_16
REMARK                            x       y       z     vdW  Elec       q    Type
REMARK                         _______ _______ _______ _____ _____    ______ ____
ROOT
ATOM      1  C   UNL     1       2.493   4.884  17.781  0.00  0.00    +0.000 C 
ATOM      2  O   UNL     1       1.699   5.799  17.988  0.00  0.00    +0.000 OA
ATOM      3  N   UNL     1       3.840   5.116  17.572  0.00  0.00    +0.000 N 
ATOM      4  C   UNL     1       4.331   6.484  17.681  0.00  0.00    +0.000 C 
ATOM      5  C   UNL     1       4.798   6.977  16.316  0.00  0.00    +0.000 C 
ATOM      6  C   UNL     1       5.871   6.046  15.722  0.00  0.00    +0.000 C 
ATOM      7  C   UNL     1       5.335   4.596  15.695  0.00  0.00    +0.000 C 
ATOM      8  C   UNL     1       4.785   4.135  17.053  0.00  0.00    +0.000 C 
ENDROOT
BRANCH   1   9
ATOM      9  O   UNL     1       2.138   3.567  17.746  0.00  0.00    +0.000 OA
BRANCH   9  11
ATOM     10  C   UNL     1       0.534   2.156  18.952  0.00  0.00    +0.000 C 
ATOM     11  C   UNL     1       1.883   2.884  19.006  0.00  0.00    +0.000 C 
ATOM     12  C   UNL     1       1.988   3.850  20.199  0.00  0.00    +0.000 C 
ATOM     13  C   UNL     1       2.978   1.815  19.181  0.00  0.00    +0.000 C 
ENDBRANCH   9  11
ENDBRANCH   1   9
BRANCH   6  14
ATOM     14  C   UNL     1       7.206   6.128  16.483  0.00  0.00    +0.000 C 
BRANCH  14  15
ATOM     15  N   UNL     1       7.551   7.492  16.831  0.00  0.00    +0.000 N 
ATOM     16  C   UNL     1       8.063   7.806  18.075  0.00  0.00    +0.000 C 
ATOM     17  O   UNL     1       8.222   6.987  18.972  0.00  0.00    +0.000 OA
ATOM     18  H   UNL     1       7.724   8.143  16.075  0.00  0.00    +0.000 HD
BRANCH  16  19
ATOM     19  C   UNL     1       8.456   9.227  18.275  0.00  0.00    +0.000 A 
ATOM     20  C   UNL     1       9.365   9.598  19.276  0.00  0.00    +0.000 A 
ATOM     21  C   UNL     1       9.706  10.941  19.446  0.00  0.00    +0.000 A 
ATOM     22  C   UNL     1       9.151  11.913  18.614  0.00  0.00    +0.000 A 
ATOM     23  C   UNL     1       8.264  11.545  17.602  0.00  0.00    +0.000 A 
ATOM     24  C   UNL     1       7.921  10.204  17.426  0.00  0.00    +0.000 A 
ENDBRANCH  16  19
ENDBRANCH  14  15
ENDBRANCH   6  14
TORSDOF 5
ENDMDL
