MODEL 1
REMARK VINA RESULT:      -6.5      0.000      0.000
REMARK  Name = 
REMARK  10 active torsions:
REMARK  status: ('A' for Active; 'I' for Inactive)
REMARK    1  A    between atoms: C_1  and  C_2
REMARK    2  A    between atoms: C_2  and  C_3
REMARK    3  A    between atoms: C_3  and  C_4
REMARK    4  A    between atoms: C_4  and  C_5
REMARK    5  A    between atoms: C_5  and  C_6
REMARK    6  A    between atoms: C_6  and  C_7
REMARK    7  A    between atoms: C_7  and  O_8
REMARK    8  A    between atoms: C_11  and  O_12
REMARK    9  A    between atoms: C_13  and  O_14
REMARK   10  A    between atoms: C_15  and  O_16
REMARK                            x       y       z     vdW  Elec       q    Type
REMARK                         _______ _______ _______ _____ _____    ______ ____
ROOT
ATOM      1  C   UNL     1       4.244   5.109  18.144  0.00  0.00    +0.000 C 
ATOM      2  N   UNL     1       4.314   6.319  17.282  0.00  0.00    +0.000 NA
ATOM      3  C   UNL     1       5.244   6.228  16.161  0.00  0.00    +0.000 C 
ATOM      4  C   UNL     1       6.660   5.784  16.544  0.00  0.00    +0.000 C 
ATOM      5  C   UNL     1       6.609   4.476  17.347  0.00  0.00    +0.000 C 
ATOM      6  C   UNL     1       5.672   4.627  18.552  0.00  0.00    +0.000 C 
ATOM      7  H   UNL     1       4.554   7.114  17.884  0.00  0.00    +0.000 HD
ENDROOT
BRANCH   4   8
ATOM      8  O   UNL     1       7.466   5.618  15.375  0.00  0.00    +0.000 OA
ATOM      9  H   UNL     1       6.898   5.738  14.593  0.00  0.00    +0.000 HD
ENDBRANCH   4   8
BRANCH   5  10
ATOM     10  O   UNL     1       7.914   4.092  17.816  0.00  0.00    +0.000 OA
ATOM     11  H   UNL     1       8.369   3.630  17.082  0.00  0.00    +0.000 HD
ENDBRANCH   5  10
BRANCH   6  12
ATOM     12  O   UNL     1       5.592   3.388  19.274  0.00  0.00    +0.000 OA
ATOM     13  H   UNL     1       5.292   2.708  18.637  0.00  0.00    +0.000 HD
ENDBRANCH   6  12
BRANCH   1  14
ATOM     14  C   UNL     1       3.440   3.964  17.443  0.00  0.00    +0.000 C 
BRANCH  14  15
ATOM     15  C   UNL     1       1.939   3.967  17.762  0.00  0.00    +0.000 C 
BRANCH  15  16
ATOM     16  C   UNL     1       1.453   2.710  18.489  0.00  0.00    +0.000 C 
BRANCH  16  18
ATOM     17  C   UNL     1       1.498   2.715  21.036  0.00  0.00    +0.000 C 
ATOM     18  C   UNL     1       0.747   3.129  19.783  0.00  0.00    +0.000 C 
ENDBRANCH  16  18
ENDBRANCH  15  16
ENDBRANCH  14  15
ENDBRANCH   1  14
BRANCH   1  19
ATOM     19  C   UNL     1       3.504   5.536  19.456  0.00  0.00    +0.000 C 
BRANCH  19  20
ATOM     20  O   UNL     1       2.898   6.821  19.292  0.00  0.00    +0.000 OA
ATOM     21  H   UNL     1       1.950   6.706  19.474  0.00  0.00    +0.000 HD
ENDBRANCH  19  20
ENDBRANCH   1  19
TORSDOF 9
ENDMDL
MODEL 2
REMARK VINA RESULT:      -6.2      2.192      5.434
REMARK  Name = 
REMARK  10 active torsions:
REMARK  status: ('A' for Active; 'I' for Inactive)
REMARK    1  A    between atoms: C_1  and  C_2
REMARK    2  A    between atoms: C_2  and  C_3
REMARK    3  A    between atoms: C_3  and  C_4
REMARK    4  A    between atoms: C_4  and  C_5
REMARK    5  A    between atoms: C_5  and  C_6
REMARK    6  A    between atoms: C_6  and  C_7
REMARK    7  A    between atoms: C_7  and  O_8
REMARK    8  A    between atoms: C_11  and  O_12
REMARK    9  A    between atoms: C_13  and  O_14
REMARK   10  A    between atoms: C_15  and  O_16
REMARK                            x       y       z     vdW  Elec       q    Type
REMARK                         _______ _______ _______ _____ _____    ______ ____
ROOT
ATOM      1  C   UNL     1       4.067   4.045  17.770  0.00  0.00    +0.000 C 
ATOM      2  N   UNL     1       3.159   5.213  17.918  0.00  0.00    +0.000 NA
ATOM      3  C   UNL     1       2.215   5.128  19.027  0.00  0.00    +0.000 C 
ATOM      4  C   UNL     1       1.399   3.831  19.069  0.00  0.00    +0.000 C 
ATOM      5  C   UNL     1       2.333   2.612  19.022  0.00  0.00    +0.000 C 
ATOM      6  C   UNL     1       3.268   2.704  17.810  0.00  0.00    +0.000 C 
ATOM      7  H   UNL     1       2.660   5.331  17.030  0.00  0.00    +0.000 HD
ENDROOT
BRANCH   4   8
ATOM      8  O   UNL     1       0.585   3.789  20.244  0.00  0.00    +0.000 OA
ATOM      9  H   UNL     1       0.467   2.857  20.500  0.00  0.00    +0.000 HD
ENDBRANCH   4   8
BRANCH   5  10
ATOM     10  O   UNL     1       1.592   1.381  18.949  0.00  0.00    +0.000 OA
ATOM     11  H   UNL     1       1.070   1.299  19.773  0.00  0.00    +0.000 HD
ENDBRANCH   5  10
BRANCH   6  12
ATOM     12  O   UNL     1       4.169   1.587  17.796  0.00  0.00    +0.000 OA
ATOM     13  H   UNL     1       5.075   1.951  17.865  0.00  0.00    +0.000 HD
ENDBRANCH   6  12
BRANCH   1  14
ATOM     14  C   UNL     1       5.192   4.065  18.857  0.00  0.00    +0.000 C 
BRANCH  14  15
ATOM     15  C   UNL     1       5.787   5.455  19.118  0.00  0.00    +0.000 C 
BRANCH  15  16
ATOM     16  C   UNL     1       7.247   5.601  18.679  0.00  0.00    +0.000 C 
BRANCH  16  18
ATOM     17  C   UNL     1       7.815   7.901  17.743  0.00  0.00    +0.000 C 
ATOM     18  C   UNL     1       7.304   6.504  17.442  0.00  0.00    +0.000 C 
ENDBRANCH  16  18
ENDBRANCH  15  16
ENDBRANCH  14  15
ENDBRANCH   1  14
BRANCH   1  19
ATOM     19  C   UNL     1       4.715   4.158  16.349  0.00  0.00    +0.000 C 
BRANCH  19  20
ATOM     20  O   UNL     1       5.871   3.322  16.260  0.00  0.00    +0.000 OA
ATOM     21  H   UNL     1       6.607   3.825  16.645  0.00  0.00    +0.000 HD
ENDBRANCH  19  20
ENDBRANCH   1  19
TORSDOF 9
ENDMDL
MODEL 3
REMARK VINA RESULT:      -6.2      1.337      1.614
REMARK  Name = 
REMARK  10 active torsions:
REMARK  status: ('A' for Active; 'I' for Inactive)
REMARK    1  A    between atoms: C_1  and  C_2
REMARK    2  A    between atoms: C_2  and  C_3
REMARK    3  A    between atoms: C_3  and  C_4
REMARK    4  A    between atoms: C_4  and  C_5
REMARK    5  A    between atoms: C_5  and  C_6
REMARK    6  A    between atoms: C_6  and  C_7
REMARK    7  A    between atoms: C_7  and  O_8
REMARK    8  A    between atoms: C_11  and  O_12
REMARK    9  A    between atoms: C_13  and  O_14
REMARK   10  A    between atoms: C_15  and  O_16
REMARK                            x       y       z     vdW  Elec       q    Type
REMARK                         _______ _______ _______ _____ _____    ______ ____
ROOT
ATOM      1  C   UNL     1       3.998   5.149  17.693  0.00  0.00    +0.000 C 
ATOM      2  N   UNL     1       4.746   5.158  16.408  0.00  0.00    +0.000 NA
ATOM      3  C   UNL     1       6.028   4.461  16.432  0.00  0.00    +0.000 C 
ATOM      4  C   UNL     1       6.959   4.882  17.575  0.00  0.00    +0.000 C 
ATOM      5  C   UNL     1       6.229   4.777  18.923  0.00  0.00    +0.000 C 
ATOM      6  C   UNL     1       4.918   5.572  18.881  0.00  0.00    +0.000 C 
ATOM      7  H   UNL     1       4.875   6.138  16.132  0.00  0.00    +0.000 HD
ENDROOT
BRANCH   4   8
ATOM      8  O   UNL     1       8.138   4.073  17.583  0.00  0.00    +0.000 OA
ATOM      9  H   UNL     1       8.663   4.290  16.793  0.00  0.00    +0.000 HD
ENDBRANCH   4   8
BRANCH   5  10
ATOM     10  O   UNL     1       7.041   5.269  20.003  0.00  0.00    +0.000 OA
ATOM     11  H   UNL     1       6.774   6.194  20.178  0.00  0.00    +0.000 HD
ENDBRANCH   5  10
BRANCH   6  12
ATOM     12  O   UNL     1       4.218   5.433  20.127  0.00  0.00    +0.000 OA
ATOM     13  H   UNL     1       3.457   6.047  20.096  0.00  0.00    +0.000 HD
ENDBRANCH   6  12
BRANCH   1  14
ATOM     14  C   UNL     1       3.344   3.751  17.954  0.00  0.00    +0.000 C 
BRANCH  14  15
ATOM     15  C   UNL     1       1.810   3.767  17.946  0.00  0.00    +0.000 C 
BRANCH  15  16
ATOM     16  C   UNL     1       1.171   2.799  18.945  0.00  0.00    +0.000 C 
BRANCH  16  18
ATOM     17  C   UNL     1       1.606   2.831  21.454  0.00  0.00    +0.000 C 
ATOM     18  C   UNL     1       0.956   3.530  20.275  0.00  0.00    +0.000 C 
ENDBRANCH  16  18
ENDBRANCH  15  16
ENDBRANCH  14  15
ENDBRANCH   1  14
BRANCH   1  19
ATOM     19  C   UNL     1       2.875   6.233  17.565  0.00  0.00    +0.000 C 
BRANCH  19  20
ATOM     20  O   UNL     1       3.289   7.454  18.183  0.00  0.00    +0.000 OA
ATOM     21  H   UNL     1       2.487   7.989  18.305  0.00  0.00    +0.000 HD
ENDBRANCH  19  20
ENDBRANCH   1  19
TORSDOF 9
ENDMDL
MODEL 4
REMARK VINA RESULT:      -6.1      2.172      5.285
REMARK  Name = 
REMARK  10 active torsions:
REMARK  status: ('A' for Active; 'I' for Inactive)
REMARK    1  A    between atoms: C_1  and  C_2
REMARK    2  A    between atoms: C_2  and  C_3
REMARK    3  A    between atoms: C_3  and  C_4
REMARK    4  A    between atoms: C_4  and  C_5
REMARK    5  A    between atoms: C_5  and  C_6
REMARK    6  A    between atoms: C_6  and  C_7
REMARK    7  A    between atoms: C_7  and  O_8
REMARK    8  A    between atoms: C_11  and  O_12
REMARK    9  A    between atoms: C_13  and  O_14
REMARK   10  A    between atoms: C_15  and  O_16
REMARK                            x       y       z     vdW  Elec       q    Type
REMARK                         _______ _______ _______ _____ _____    ______ ____
ROOT
ATOM      1  C   UNL     1       4.000   4.486  18.645  0.00  0.00    +0.000 C 
ATOM      2  N   UNL     1       4.139   3.148  18.014  0.00  0.00    +0.000 NA
ATOM      3  C   UNL     1       2.882   2.490  17.673  0.00  0.00    +0.000 C 
ATOM      4  C   UNL     1       1.871   2.415  18.823  0.00  0.00    +0.000 C 
ATOM      5  C   UNL     1       1.638   3.812  19.418  0.00  0.00    +0.000 C 
ATOM      6  C   UNL     1       2.974   4.448  19.822  0.00  0.00    +0.000 C 
ATOM      7  H   UNL     1       4.691   2.562  18.650  0.00  0.00    +0.000 HD
ENDROOT
BRANCH   4   8
ATOM      8  O   UNL     1       0.636   1.856  18.368  0.00  0.00    +0.000 OA
ATOM      9  H   UNL     1       0.781   1.474  17.484  0.00  0.00    +0.000 HD
ENDBRANCH   4   8
BRANCH   5  10
ATOM     10  O   UNL     1       0.778   3.759  20.570  0.00  0.00    +0.000 OA
ATOM     11  H   UNL     1      -0.147   3.731  20.250  0.00  0.00    +0.000 HD
ENDBRANCH   5  10
BRANCH   6  12
ATOM     12  O   UNL     1       2.755   5.771  20.335  0.00  0.00    +0.000 OA
ATOM     13  H   UNL     1       3.582   6.042  20.784  0.00  0.00    +0.000 HD
ENDBRANCH   6  12
BRANCH   1  14
ATOM     14  C   UNL     1       3.606   5.570  17.588  0.00  0.00    +0.000 C 
BRANCH  14  15
ATOM     15  C   UNL     1       4.765   6.481  17.163  0.00  0.00    +0.000 C 
BRANCH  15  16
ATOM     16  C   UNL     1       5.160   6.344  15.691  0.00  0.00    +0.000 C 
BRANCH  16  18
ATOM     17  C   UNL     1       5.888   4.175  14.572  0.00  0.00    +0.000 C 
ATOM     18  C   UNL     1       6.241   5.265  15.567  0.00  0.00    +0.000 C 
ENDBRANCH  16  18
ENDBRANCH  15  16
ENDBRANCH  14  15
ENDBRANCH   1  14
BRANCH   1  19
ATOM     19  C   UNL     1       5.397   4.840  19.258  0.00  0.00    +0.000 C 
BRANCH  19  20
ATOM     20  O   UNL     1       6.401   3.957  18.752  0.00  0.00    +0.000 OA
ATOM     21  H   UNL     1       6.165   3.769  17.829  0.00  0.00    +0.000 HD
ENDBRANCH  19  20
ENDBRANCH   1  19
TORSDOF 9
ENDMDL
MODEL 5
REMARK VINA RESULT:      -6.1      2.210      5.368
REMARK  Name = 
REMARK  10 active torsions:
REMARK  status: ('A' for Active; 'I' for Inactive)
REMARK    1  A    between atoms: C_1  and  C_2
REMARK    2  A    between atoms: C_2  and  C_3
REMARK    3  A    between atoms: C_3  and  C_4
REMARK    4  A    between atoms: C_4  and  C_5
REMARK    5  A    between atoms: C_5  and  C_6
REMARK    6  A    between atoms: C_6  and  C_7
REMARK    7  A    between atoms: C_7  and  O_8
REMARK    8  A    between atoms: C_11  and  O_12
REMARK    9  A    between atoms: C_13  and  O_14
REMARK   10  A    between atoms: C_15  and  O_16
REMARK                            x       y       z     vdW  Elec       q    Type
REMARK                         _______ _______ _______ _____ _____    ______ ____
ROOT
ATOM      1  C   UNL     1       3.716   4.466  18.791  0.00  0.00    +0.000 C 
ATOM      2  N   UNL     1       3.818   3.230  17.972  0.00  0.00    +0.000 NA
ATOM      3  C   UNL     1       2.543   2.622  17.604  0.00  0.00    +0.000 C 
ATOM      4  C   UNL     1       1.589   2.386  18.779  0.00  0.00    +0.000 C 
ATOM      5  C   UNL     1       1.390   3.685  19.574  0.00  0.00    +0.000 C 
ATOM      6  C   UNL     1       2.747   4.261  19.998  0.00  0.00    +0.000 C 
ATOM      7  H   UNL     1       4.397   2.561  18.493  0.00  0.00    +0.000 HD
ENDROOT
BRANCH   4   8
ATOM      8  O   UNL     1       0.331   1.893  18.311  0.00  0.00    +0.000 OA
ATOM      9  H   UNL     1      -0.083   2.583  17.763  0.00  0.00    +0.000 HD
ENDBRANCH   4   8
BRANCH   5  10
ATOM     10  O   UNL     1       0.587   3.469  20.748  0.00  0.00    +0.000 OA
ATOM     11  H   UNL     1       0.360   4.347  21.118  0.00  0.00    +0.000 HD
ENDBRANCH   5  10
BRANCH   6  12
ATOM     12  O   UNL     1       2.559   5.499  20.701  0.00  0.00    +0.000 OA
ATOM     13  H   UNL     1       2.881   6.212  20.113  0.00  0.00    +0.000 HD
ENDBRANCH   6  12
BRANCH   1  14
ATOM     14  C   UNL     1       3.276   5.686  17.915  0.00  0.00    +0.000 C 
BRANCH  14  15
ATOM     15  C   UNL     1       4.428   6.618  17.516  0.00  0.00    +0.000 C 
BRANCH  15  16
ATOM     16  C   UNL     1       5.061   6.283  16.162  0.00  0.00    +0.000 C 
BRANCH  16  18
ATOM     17  C   UNL     1       7.224   7.009  17.293  0.00  0.00    +0.000 C 
ATOM     18  C   UNL     1       6.555   6.009  16.369  0.00  0.00    +0.000 C 
ENDBRANCH  16  18
ENDBRANCH  15  16
ENDBRANCH  14  15
ENDBRANCH   1  14
BRANCH   1  19
ATOM     19  C   UNL     1       5.142   4.735  19.378  0.00  0.00    +0.000 C 
BRANCH  19  20
ATOM     20  O   UNL     1       6.062   3.736  18.930  0.00  0.00    +0.000 OA
ATOM     21  H   UNL     1       5.960   2.977  19.529  0.00  0.00    +0.000 HD
ENDBRANCH  19  20
ENDBRANCH   1  19
TORSDOF 9
ENDMDL
MODEL 6
REMARK VINA RESULT:      -6.1      1.893      2.615
REMARK  Name = 
REMARK  10 active torsions:
REMARK  status: ('A' for Active; 'I' for Inactive)
REMARK    1  A    between atoms: C_1  and  C_2
REMARK    2  A    between atoms: C_2  and  C_3
REMARK    3  A    between atoms: C_3  and  C_4
REMARK    4  A    between atoms: C_4  and  C_5
REMARK    5  A    between atoms: C_5  and  C_6
REMARK    6  A    between atoms: C_6  and  C_7
REMARK    7  A    between atoms: C_7  and  O_8
REMARK    8  A    between atoms: C_11  and  O_12
REMARK    9  A    between atoms: C_13  and  O_14
REMARK   10  A    between atoms: C_15  and  O_16
REMARK                            x       y       z     vdW  Elec       q    Type
REMARK                         _______ _______ _______ _____ _____    ______ ____
ROOT
ATOM      1  C   UNL     1       4.956   4.223  18.904  0.00  0.00    +0.000 C 
ATOM      2  N   UNL     1       6.349   4.539  19.317  0.00  0.00    +0.000 NA
ATOM      3  C   UNL     1       6.999   5.595  18.548  0.00  0.00    +0.000 C 
ATOM      4  C   UNL     1       6.942   5.403  17.029  0.00  0.00    +0.000 C 
ATOM      5  C   UNL     1       5.492   5.179  16.574  0.00  0.00    +0.000 C 
ATOM      6  C   UNL     1       4.861   4.022  17.358  0.00  0.00    +0.000 C 
ATOM      7  H   UNL     1       6.892   3.670  19.264  0.00  0.00    +0.000 HD
ENDROOT
BRANCH   4   8
ATOM      8  O   UNL     1       7.505   6.534  16.359  0.00  0.00    +0.000 OA
ATOM      9  H   UNL     1       7.193   7.340  16.808  0.00  0.00    +0.000 HD
ENDBRANCH   4   8
BRANCH   5  10
ATOM     10  O   UNL     1       5.418   4.886  15.167  0.00  0.00    +0.000 OA
ATOM     11  H   UNL     1       4.524   4.534  14.984  0.00  0.00    +0.000 HD
ENDBRANCH   5  10
BRANCH   6  12
ATOM     12  O   UNL     1       3.492   3.847  16.962  0.00  0.00    +0.000 OA
ATOM     13  H   UNL     1       3.447   3.013  16.453  0.00  0.00    +0.000 HD
ENDBRANCH   6  12
BRANCH   1  14
ATOM     14  C   UNL     1       3.960   5.327  19.392  0.00  0.00    +0.000 C 
BRANCH  14  15
ATOM     15  C   UNL     1       2.896   4.819  20.374  0.00  0.00    +0.000 C 
BRANCH  15  16
ATOM     16  C   UNL     1       1.505   4.652  19.756  0.00  0.00    +0.000 C 
BRANCH  16  18
ATOM     17  C   UNL     1       1.557   2.835  21.540  0.00  0.00    +0.000 C 
ATOM     18  C   UNL     1       0.879   3.358  20.288  0.00  0.00    +0.000 C 
ENDBRANCH  16  18
ENDBRANCH  15  16
ENDBRANCH  14  15
ENDBRANCH   1  14
BRANCH   1  19
ATOM     19  C   UNL     1       4.589   2.857  19.574  0.00  0.00    +0.000 C 
BRANCH  19  20
ATOM     20  O   UNL     1       4.361   1.857  18.577  0.00  0.00    +0.000 OA
ATOM     21  H   UNL     1       4.828   1.059  18.873  0.00  0.00    +0.000 HD
ENDBRANCH  19  20
ENDBRANCH   1  19
TORSDOF 9
ENDMDL
MODEL 7
REMARK VINA RESULT:      -6.1      1.956      2.646
REMARK  Name = 
REMARK  10 active torsions:
REMARK  status: ('A' for Active; 'I' for Inactive)
REMARK    1  A    between atoms: C_1  and  C_2
REMARK    2  A    between atoms: C_2  and  C_3
REMARK    3  A    between atoms: C_3  and  C_4
REMARK    4  A    between atoms: C_4  and  C_5
REMARK    5  A    between atoms: C_5  and  C_6
REMARK    6  A    between atoms: C_6  and  C_7
REMARK    7  A    between atoms: C_7  and  O_8
REMARK    8  A    between atoms: C_11  and  O_12
REMARK    9  A    between atoms: C_13  and  O_14
REMARK   10  A    between atoms: C_15  and  O_16
REMARK                            x       y       z     vdW  Elec       q    Type
REMARK                         _______ _______ _______ _____ _____    ______ ____
ROOT
ATOM      1  C   UNL     1       4.651   4.172  17.911  0.00  0.00    +0.000 C 
ATOM      2  N   UNL     1       5.373   4.218  19.209  0.00  0.00    +0.000 NA
ATOM      3  C   UNL     1       6.273   5.355  19.378  0.00  0.00    +0.000 C 
ATOM      4  C   UNL     1       7.265   5.556  18.228  0.00  0.00    +0.000 C 
ATOM      5  C   UNL     1       6.521   5.616  16.886  0.00  0.00    +0.000 C 
ATOM      6  C   UNL     1       5.634   4.376  16.714  0.00  0.00    +0.000 C 
ATOM      7  H   UNL     1       5.887   3.335  19.309  0.00  0.00    +0.000 HD
ENDROOT
BRANCH   4   8
ATOM      8  O   UNL     1       8.027   6.750  18.428  0.00  0.00    +0.000 OA
ATOM      9  H   UNL     1       7.887   7.051  19.344  0.00  0.00    +0.000 HD
ENDBRANCH   4   8
BRANCH   5  10
ATOM     10  O   UNL     1       7.435   5.694  15.778  0.00  0.00    +0.000 OA
ATOM     11  H   UNL     1       7.615   4.781  15.476  0.00  0.00    +0.000 HD
ENDBRANCH   5  10
BRANCH   6  12
ATOM     12  O   UNL     1       4.905   4.459  15.480  0.00  0.00    +0.000 OA
ATOM     13  H   UNL     1       5.406   5.063  14.894  0.00  0.00    +0.000 HD
ENDBRANCH   6  12
BRANCH   1  14
ATOM     14  C   UNL     1       3.490   5.221  17.874  0.00  0.00    +0.000 C 
BRANCH  14  15
ATOM     15  C   UNL     1       2.135   4.672  18.338  0.00  0.00    +0.000 C 
BRANCH  15  16
ATOM     16  C   UNL     1       1.850   4.891  19.826  0.00  0.00    +0.000 C 
BRANCH  16  18
ATOM     17  C   UNL     1       1.854   2.992  21.524  0.00  0.00    +0.000 C 
ATOM     18  C   UNL     1       1.120   3.660  20.376  0.00  0.00    +0.000 C 
ENDBRANCH  16  18
ENDBRANCH  15  16
ENDBRANCH  14  15
ENDBRANCH   1  14
BRANCH   1  19
ATOM     19  C   UNL     1       4.054   2.731  17.780  0.00  0.00    +0.000 C 
BRANCH  19  20
ATOM     20  O   UNL     1       4.355   1.959  18.946  0.00  0.00    +0.000 OA
ATOM     21  H   UNL     1       4.192   1.030  18.713  0.00  0.00    +0.000 HD
ENDBRANCH  19  20
ENDBRANCH   1  19
TORSDOF 9
ENDMDL
MODEL 8
REMARK VINA RESULT:      -6.0      2.511      5.404
REMARK  Name = 
REMARK  10 active torsions:
REMARK  status: ('A' for Active; 'I' for Inactive)
REMARK    1  A    between atoms: C_1  and  C_2
REMARK    2  A    between atoms: C_2  and  C_3
REMARK    3  A    between atoms: C_3  and  C_4
REMARK    4  A    between atoms: C_4  and  C_5
REMARK    5  A    between atoms: C_5  and  C_6
REMARK    6  A    between atoms: C_6  and  C_7
REMARK    7  A    between atoms: C_7  and  O_8
REMARK    8  A    between atoms: C_11  and  O_12
REMARK    9  A    between atoms: C_13  and  O_14
REMARK   10  A    between atoms: C_15  and  O_16
REMARK                            x       y       z     vdW  Elec       q    Type
REMARK                         _______ _______ _______ _____ _____    ______ ____
ROOT
ATOM      1  C   UNL     1       5.657   4.670  17.513  0.00  0.00    +0.000 C 
ATOM      2  N   UNL     1       5.621   3.850  18.752  0.00  0.00    +0.000 NA
ATOM      3  C   UNL     1       4.306   3.724  19.374  0.00  0.00    +0.000 C 
ATOM      4  C   UNL     1       3.586   5.055  19.615  0.00  0.00    +0.000 C 
ATOM      5  C   UNL     1       3.524   5.870  18.314  0.00  0.00    +0.000 C 
ATOM      6  C   UNL     1       4.929   6.036  17.722  0.00  0.00    +0.000 C 
ATOM      7  H   UNL     1       6.292   4.257  19.412  0.00  0.00    +0.000 HD
ENDROOT
BRANCH   4   8
ATOM      8  O   UNL     1       2.269   4.827  20.123  0.00  0.00    +0.000 OA
ATOM      9  H   UNL     1       2.046   5.556  20.728  0.00  0.00    +0.000 HD
ENDBRANCH   4   8
BRANCH   5  10
ATOM     10  O   UNL     1       2.951   7.172  18.533  0.00  0.00    +0.000 OA
ATOM     11  H   UNL     1       3.072   7.691  17.712  0.00  0.00    +0.000 HD
ENDBRANCH   5  10
BRANCH   6  12
ATOM     12  O   UNL     1       4.860   6.758  16.483  0.00  0.00    +0.000 OA
ATOM     13  H   UNL     1       5.227   6.171  15.791  0.00  0.00    +0.000 HD
ENDBRANCH   6  12
BRANCH   1  14
ATOM     14  C   UNL     1       5.051   3.887  16.301  0.00  0.00    +0.000 C 
BRANCH  14  15
ATOM     15  C   UNL     1       6.031   3.673  15.141  0.00  0.00    +0.000 C 
BRANCH  15  16
ATOM     16  C   UNL     1       5.620   4.369  13.840  0.00  0.00    +0.000 C 
BRANCH  16  18
ATOM     17  C   UNL     1       4.747   3.224  11.740  0.00  0.00    +0.000 C 
ATOM     18  C   UNL     1       5.933   3.441  12.662  0.00  0.00    +0.000 C 
ENDBRANCH  16  18
ENDBRANCH  15  16
ENDBRANCH  14  15
ENDBRANCH   1  14
BRANCH   1  19
ATOM     19  C   UNL     1       7.164   4.985  17.228  0.00  0.00    +0.000 C 
BRANCH  19  20
ATOM     20  O   UNL     1       8.008   4.152  18.027  0.00  0.00    +0.000 OA
ATOM     21  H   UNL     1       8.661   3.760  17.424  0.00  0.00    +0.000 HD
ENDBRANCH  19  20
ENDBRANCH   1  19
TORSDOF 9
ENDMDL
MODEL 9
REMARK VINA RESULT:      -6.0      2.407      3.491
REMARK  Name = 
REMARK  10 active torsions:
REMARK  status: ('A' for Active; 'I' for Inactive)
REMARK    1  A    between atoms: C_1  and  C_2
REMARK    2  A    between atoms: C_2  and  C_3
REMARK    3  A    between atoms: C_3  and  C_4
REMARK    4  A    between atoms: C_4  and  C_5
REMARK    5  A    between atoms: C_5  and  C_6
REMARK    6  A    between atoms: C_6  and  C_7
REMARK    7  A    between atoms: C_7  and  O_8
REMARK    8  A    between atoms: C_11  and  O_12
REMARK    9  A    between atoms: C_13  and  O_14
REMARK   10  A    between atoms: C_15  and  O_16
REMARK                            x       y       z     vdW  Elec       q    Type
REMARK                         _______ _______ _______ _____ _____    ______ ____
ROOT
ATOM      1  C   UNL     1       5.174   4.226  18.402  0.00  0.00    +0.000 C 
ATOM      2  N   UNL     1       6.652   4.189  18.560  0.00  0.00    +0.000 NA
ATOM      3  C   UNL     1       7.404   4.896  17.529  0.00  0.00    +0.000 C 
ATOM      4  C   UNL     1       7.029   4.512  16.093  0.00  0.00    +0.000 C 
ATOM      5  C   UNL     1       5.513   4.647  15.884  0.00  0.00    +0.000 C 
ATOM      6  C   UNL     1       4.756   3.842  16.948  0.00  0.00    +0.000 C 
ATOM      7  H   UNL     1       6.934   3.204  18.599  0.00  0.00    +0.000 HD
ENDROOT
BRANCH   4   8
ATOM      8  O   UNL     1       7.735   5.329  15.156  0.00  0.00    +0.000 OA
ATOM      9  H   UNL     1       7.742   6.243  15.492  0.00  0.00    +0.000 HD
ENDBRANCH   4   8
BRANCH   5  10
ATOM     10  O   UNL     1       5.116   4.188  14.580  0.00  0.00    +0.000 OA
ATOM     11  H   UNL     1       5.088   3.210  14.604  0.00  0.00    +0.000 HD
ENDBRANCH   5  10
BRANCH   6  12
ATOM     12  O   UNL     1       3.340   4.008  16.777  0.00  0.00    +0.000 OA
ATOM     13  H   UNL     1       2.908   3.581  17.544  0.00  0.00    +0.000 HD
ENDBRANCH   6  12
BRANCH   1  14
ATOM     14  C   UNL     1       4.600   5.626  18.804  0.00  0.00    +0.000 C 
BRANCH  14  15
ATOM     15  C   UNL     1       3.382   5.559  19.734  0.00  0.00    +0.000 C 
BRANCH  15  16
ATOM     16  C   UNL     1       2.409   6.730  19.574  0.00  0.00    +0.000 C 
BRANCH  16  18
ATOM     17  C   UNL     1       2.196   8.703  17.978  0.00  0.00    +0.000 C 
ATOM     18  C   UNL     1       2.453   7.215  18.121  0.00  0.00    +0.000 C 
ENDBRANCH  16  18
ENDBRANCH  15  16
ENDBRANCH  14  15
ENDBRANCH   1  14
BRANCH   1  19
ATOM     19  C   UNL     1       4.593   3.131  19.359  0.00  0.00    +0.000 C 
BRANCH  19  20
ATOM     20  O   UNL     1       4.261   1.951  18.622  0.00  0.00    +0.000 OA
ATOM     21  H   UNL     1       3.417   1.630  18.980  0.00  0.00    +0.000 HD
ENDBRANCH  19  20
ENDBRANCH   1  19
TORSDOF 9
ENDMDL
