MODEL 1
REMARK VINA RESULT:      -7.9      0.000      0.000
REMARK  Name = 
REMARK  5 active torsions:
REMARK  status: ('A' for Active; 'I' for Inactive)
REMARK    1  A    between atoms: C_1  and  C_2
REMARK    2  A    between atoms: C_2  and  C_3
REMARK    3  A    between atoms: C_2  and  C_4
REMARK    4  A    between atoms: C_7  and  N_8
REMARK    5  A    between atoms: N_9  and  C_10
REMARK                            x       y       z     vdW  Elec       q    Type
REMARK                         _______ _______ _______ _____ _____    ______ ____
ROOT
ATOM      1  C   UNL     1       2.306   7.118  20.061  0.00  0.00    +0.000 C 
ATOM      2  C   UNL     1       1.536   8.117  20.506  0.00  0.00    +0.000 C 
ATOM      3  N   UNL     1       1.147   8.276  21.831  0.00  0.00    +0.000 N 
ATOM      4  C   UNL     1       0.293   9.365  21.942  0.00  0.00    +0.000 A 
ATOM      5  C   UNL     1      -0.250   9.880  23.101  0.00  0.00    +0.000 A 
ATOM      6  C   UNL     1      -1.039  11.030  23.002  0.00  0.00    +0.000 A 
ATOM      7  C   UNL     1      -1.259  11.639  21.751  0.00  0.00    +0.000 A 
ATOM      8 BR   UNL     1      -2.390  13.155  21.667  0.00  0.00    +0.000 Br
ATOM      9  C   UNL     1      -0.663  11.150  20.585  0.00  0.00    +0.000 A 
ATOM     10  C   UNL     1       0.132  10.026  20.718  0.00  0.00    +0.000 A 
ATOM     11  C   UNL     1       0.936   9.270  19.719  0.00  0.00    +0.000 C 
ATOM     12  O   UNL     1       1.037   9.534  18.538  0.00  0.00    +0.000 OA
ATOM     13  H   UNL     1       1.077   7.472  22.440  0.00  0.00    +0.000 HD
ENDROOT
BRANCH   1  15
ATOM     14  N   UNL     1       2.914   5.727  18.511  0.00  0.00    +0.000 NA
ATOM     15  N   UNL     1       2.865   6.940  18.821  0.00  0.00    +0.000 NA
BRANCH  14  19
ATOM     16  C   UNL     1       5.572   4.601  15.398  0.00  0.00    +0.000 A 
ATOM     17  C   UNL     1       4.838   3.653  16.121  0.00  0.00    +0.000 A 
ATOM     18  C   UNL     1       3.963   4.062  17.136  0.00  0.00    +0.000 A 
ATOM     19  C   UNL     1       3.800   5.417  17.460  0.00  0.00    +0.000 A 
ATOM     20  C   UNL     1       4.513   6.361  16.720  0.00  0.00    +0.000 A 
ATOM     21  C   UNL     1       5.393   5.959  15.707  0.00  0.00    +0.000 A 
BRANCH  16  23
ATOM     22  C   UNL     1       5.782   3.635  13.078  0.00  0.00    +0.000 C 
ATOM     23  C   UNL     1       6.531   4.152  14.308  0.00  0.00    +0.000 C 
ATOM     24  C   UNL     1       7.503   5.269  13.917  0.00  0.00    +0.000 C 
ENDBRANCH  16  23
ENDBRANCH  14  19
ENDBRANCH   1  15
TORSDOF 3
ENDMDL
MODEL 2
REMARK VINA RESULT:      -7.9      1.374      1.642
REMARK  Name = 
REMARK  5 active torsions:
REMARK  status: ('A' for Active; 'I' for Inactive)
REMARK    1  A    between atoms: C_1  and  C_2
REMARK    2  A    between atoms: C_2  and  C_3
REMARK    3  A    between atoms: C_2  and  C_4
REMARK    4  A    between atoms: C_7  and  N_8
REMARK    5  A    between atoms: N_9  and  C_10
REMARK                            x       y       z     vdW  Elec       q    Type
REMARK                         _______ _______ _______ _____ _____    ______ ____
ROOT
ATOM      1  C   UNL     1       2.552   6.035  19.838  0.00  0.00    +0.000 C 
ATOM      2  C   UNL     1       2.065   7.280  19.855  0.00  0.00    +0.000 C 
ATOM      3  N   UNL     1       1.644   7.942  21.003  0.00  0.00    +0.000 N 
ATOM      4  C   UNL     1       1.127   9.185  20.666  0.00  0.00    +0.000 A 
ATOM      5  C   UNL     1       0.670  10.158  21.531  0.00  0.00    +0.000 A 
ATOM      6  C   UNL     1       0.246  11.375  20.987  0.00  0.00    +0.000 A 
ATOM      7  C   UNL     1       0.297  11.590  19.596  0.00  0.00    +0.000 A 
ATOM      8 BR   UNL     1      -0.351  13.232  18.910  0.00  0.00    +0.000 Br
ATOM      9  C   UNL     1       0.812  10.627  18.725  0.00  0.00    +0.000 A 
ATOM     10  C   UNL     1       1.247   9.442  19.295  0.00  0.00    +0.000 A 
ATOM     11  C   UNL     1       1.873   8.236  18.690  0.00  0.00    +0.000 C 
ATOM     12  O   UNL     1       2.129   8.079  17.513  0.00  0.00    +0.000 OA
ATOM     13  H   UNL     1       1.307   7.416  21.798  0.00  0.00    +0.000 HD
ENDROOT
BRANCH   1  15
ATOM     14  N   UNL     1       4.290   5.745  18.572  0.00  0.00    +0.000 NA
ATOM     15  N   UNL     1       3.125   5.342  18.803  0.00  0.00    +0.000 NA
BRANCH  14  19
ATOM     16  C   UNL     1       5.892   4.462  14.856  0.00  0.00    +0.000 A 
ATOM     17  C   UNL     1       5.634   3.563  15.898  0.00  0.00    +0.000 A 
ATOM     18  C   UNL     1       5.096   4.021  17.109  0.00  0.00    +0.000 A 
ATOM     19  C   UNL     1       4.807   5.378  17.314  0.00  0.00    +0.000 A 
ATOM     20  C   UNL     1       5.040   6.267  16.263  0.00  0.00    +0.000 A 
ATOM     21  C   UNL     1       5.582   5.817  15.053  0.00  0.00    +0.000 A 
BRANCH  16  23
ATOM     22  C   UNL     1       5.400   3.579  12.545  0.00  0.00    +0.000 C 
ATOM     23  C   UNL     1       6.489   3.963  13.550  0.00  0.00    +0.000 C 
ATOM     24  C   UNL     1       7.448   4.988  12.940  0.00  0.00    +0.000 C 
ENDBRANCH  16  23
ENDBRANCH  14  19
ENDBRANCH   1  15
TORSDOF 3
ENDMDL
MODEL 3
REMARK VINA RESULT:      -7.9      1.711      2.232
REMARK  Name = 
REMARK  5 active torsions:
REMARK  status: ('A' for Active; 'I' for Inactive)
REMARK    1  A    between atoms: C_1  and  C_2
REMARK    2  A    between atoms: C_2  and  C_3
REMARK    3  A    between atoms: C_2  and  C_4
REMARK    4  A    between atoms: C_7  and  N_8
REMARK    5  A    between atoms: N_9  and  C_10
REMARK                            x       y       z     vdW  Elec       q    Type
REMARK                         _______ _______ _______ _____ _____    ______ ____
ROOT
ATOM      1  C   UNL     1       3.083   5.167  19.611  0.00  0.00    +0.000 C 
ATOM      2  C   UNL     1       2.543   6.385  19.727  0.00  0.00    +0.000 C 
ATOM      3  N   UNL     1       2.021   6.901  20.908  0.00  0.00    +0.000 N 
ATOM      4  C   UNL     1       1.474   8.155  20.670  0.00  0.00    +0.000 A 
ATOM      5  C   UNL     1       0.921   9.010  21.601  0.00  0.00    +0.000 A 
ATOM      6  C   UNL     1       0.482  10.263  21.162  0.00  0.00    +0.000 A 
ATOM      7  C   UNL     1       0.612  10.631  19.808  0.00  0.00    +0.000 A 
ATOM      8 BR   UNL     1      -0.061  12.313  19.258  0.00  0.00    +0.000 Br
ATOM      9  C   UNL     1       1.222   9.787  18.877  0.00  0.00    +0.000 A 
ATOM     10  C   UNL     1       1.670   8.564  19.346  0.00  0.00    +0.000 A 
ATOM     11  C   UNL     1       2.385   7.454  18.660  0.00  0.00    +0.000 C 
ATOM     12  O   UNL     1       2.722   7.436  17.493  0.00  0.00    +0.000 OA
ATOM     13  H   UNL     1       1.656   6.280  21.617  0.00  0.00    +0.000 HD
ENDROOT
BRANCH   1  15
ATOM     14  N   UNL     1       4.910   5.074  18.446  0.00  0.00    +0.000 NA
ATOM     15  N   UNL     1       3.750   4.612  18.549  0.00  0.00    +0.000 NA
BRANCH  14  19
ATOM     16  C   UNL     1       6.588   4.371  14.610  0.00  0.00    +0.000 A 
ATOM     17  C   UNL     1       5.212   4.263  14.844  0.00  0.00    +0.000 A 
ATOM     18  C   UNL     1       4.692   4.512  16.123  0.00  0.00    +0.000 A 
ATOM     19  C   UNL     1       5.524   4.867  17.194  0.00  0.00    +0.000 A 
ATOM     20  C   UNL     1       6.892   4.999  16.951  0.00  0.00    +0.000 A 
ATOM     21  C   UNL     1       7.418   4.748  15.677  0.00  0.00    +0.000 A 
BRANCH  16  23
ATOM     22  C   UNL     1       6.098   3.451  12.313  0.00  0.00    +0.000 C 
ATOM     23  C   UNL     1       7.149   4.087  13.226  0.00  0.00    +0.000 C 
ATOM     24  C   UNL     1       7.729   5.349  12.582  0.00  0.00    +0.000 C 
ENDBRANCH  16  23
ENDBRANCH  14  19
ENDBRANCH   1  15
TORSDOF 3
ENDMDL
MODEL 4
REMARK VINA RESULT:      -7.8      3.308      9.575
REMARK  Name = 
REMARK  5 active torsions:
REMARK  status: ('A' for Active; 'I' for Inactive)
REMARK    1  A    between atoms: C_1  and  C_2
REMARK    2  A    between atoms: C_2  and  C_3
REMARK    3  A    between atoms: C_2  and  C_4
REMARK    4  A    between atoms: C_7  and  N_8
REMARK    5  A    between atoms: N_9  and  C_10
REMARK                            x       y       z     vdW  Elec       q    Type
REMARK                         _______ _______ _______ _____ _____    ______ ____
ROOT
ATOM      1  C   UNL     1       1.879   6.937  20.319  0.00  0.00    +0.000 C 
ATOM      2  C   UNL     1       2.640   6.398  19.360  0.00  0.00    +0.000 C 
ATOM      3  N   UNL     1       2.987   5.054  19.297  0.00  0.00    +0.000 N 
ATOM      4  C   UNL     1       3.841   4.839  18.224  0.00  0.00    +0.000 A 
ATOM      5  C   UNL     1       4.350   3.630  17.796  0.00  0.00    +0.000 A 
ATOM      6  C   UNL     1       5.147   3.622  16.647  0.00  0.00    +0.000 A 
ATOM      7  C   UNL     1       5.409   4.820  15.953  0.00  0.00    +0.000 A 
ATOM      8 BR   UNL     1       6.549   4.760  14.442  0.00  0.00    +0.000 Br
ATOM      9  C   UNL     1       4.849   6.035  16.354  0.00  0.00    +0.000 A 
ATOM     10  C   UNL     1       4.044   6.007  17.480  0.00  0.00    +0.000 A 
ATOM     11  C   UNL     1       3.269   7.082  18.158  0.00  0.00    +0.000 C 
ATOM     12  O   UNL     1       3.207   8.244  17.810  0.00  0.00    +0.000 OA
ATOM     13  H   UNL     1       3.034   4.501  20.142  0.00  0.00    +0.000 HD
ENDROOT
BRANCH   1  15
ATOM     14  N   UNL     1       1.460   8.661  21.567  0.00  0.00    +0.000 NA
ATOM     15  N   UNL     1       1.359   8.203  20.405  0.00  0.00    +0.000 NA
BRANCH  14  19
ATOM     16  C   UNL     1      -1.152  11.868  22.525  0.00  0.00    +0.000 A 
ATOM     17  C   UNL     1      -1.173  10.662  23.236  0.00  0.00    +0.000 A 
ATOM     18  C   UNL     1      -0.290   9.628  22.897  0.00  0.00    +0.000 A 
ATOM     19  C   UNL     1       0.629   9.764  21.846  0.00  0.00    +0.000 A 
ATOM     20  C   UNL     1       0.665  10.978  21.157  0.00  0.00    +0.000 A 
ATOM     21  C   UNL     1      -0.218  12.014  21.487  0.00  0.00    +0.000 A 
BRANCH  16  23
ATOM     22  C   UNL     1      -3.331  12.446  23.657  0.00  0.00    +0.000 C 
ATOM     23  C   UNL     1      -2.122  12.981  22.886  0.00  0.00    +0.000 C 
ATOM     24  C   UNL     1      -1.431  14.097  23.675  0.00  0.00    +0.000 C 
ENDBRANCH  16  23
ENDBRANCH  14  19
ENDBRANCH   1  15
TORSDOF 3
ENDMDL
MODEL 5
REMARK VINA RESULT:      -7.7      0.333      1.056
REMARK  Name = 
REMARK  5 active torsions:
REMARK  status: ('A' for Active; 'I' for Inactive)
REMARK    1  A    between atoms: C_1  and  C_2
REMARK    2  A    between atoms: C_2  and  C_3
REMARK    3  A    between atoms: C_2  and  C_4
REMARK    4  A    between atoms: C_7  and  N_8
REMARK    5  A    between atoms: N_9  and  C_10
REMARK                            x       y       z     vdW  Elec       q    Type
REMARK                         _______ _______ _______ _____ _____    ______ ____
ROOT
ATOM      1  C   UNL     1       2.486   6.914  19.945  0.00  0.00    +0.000 C 
ATOM      2  C   UNL     1       1.729   7.944  20.339  0.00  0.00    +0.000 C 
ATOM      3  N   UNL     1       1.310   8.154  21.648  0.00  0.00    +0.000 N 
ATOM      4  C   UNL     1       0.482   9.267  21.703  0.00  0.00    +0.000 A 
ATOM      5  C   UNL     1      -0.079   9.831  22.830  0.00  0.00    +0.000 A 
ATOM      6  C   UNL     1      -0.836  10.996  22.675  0.00  0.00    +0.000 A 
ATOM      7  C   UNL     1      -1.007  11.571  21.400  0.00  0.00    +0.000 A 
ATOM      8 BR   UNL     1      -2.097  13.111  21.240  0.00  0.00    +0.000 Br
ATOM      9  C   UNL     1      -0.394  11.032  20.267  0.00  0.00    +0.000 A 
ATOM     10  C   UNL     1       0.370   9.893  20.455  0.00  0.00    +0.000 A 
ATOM     11  C   UNL     1       1.180   9.086  19.502  0.00  0.00    +0.000 C 
ATOM     12  O   UNL     1       1.319   9.312  18.316  0.00  0.00    +0.000 OA
ATOM     13  H   UNL     1       1.204   7.372  22.279  0.00  0.00    +0.000 HD
ENDROOT
BRANCH   1  15
ATOM     14  N   UNL     1       2.996   5.476  18.404  0.00  0.00    +0.000 NA
ATOM     15  N   UNL     1       3.072   6.684  18.728  0.00  0.00    +0.000 NA
BRANCH  14  19
ATOM     16  C   UNL     1       5.684   4.461  15.278  0.00  0.00    +0.000 A 
ATOM     17  C   UNL     1       5.457   5.791  15.654  0.00  0.00    +0.000 A 
ATOM     18  C   UNL     1       4.569   6.088  16.697  0.00  0.00    +0.000 A 
ATOM     19  C   UNL     1       3.885   5.076  17.386  0.00  0.00    +0.000 A 
ATOM     20  C   UNL     1       4.134   3.750  17.027  0.00  0.00    +0.000 A 
ATOM     21  C   UNL     1       5.017   3.447  15.982  0.00  0.00    +0.000 A 
BRANCH  16  23
ATOM     22  C   UNL     1       5.886   3.650  12.898  0.00  0.00    +0.000 C 
ATOM     23  C   UNL     1       6.637   4.144  14.137  0.00  0.00    +0.000 C 
ATOM     24  C   UNL     1       7.519   5.346  13.788  0.00  0.00    +0.000 C 
ENDBRANCH  16  23
ENDBRANCH  14  19
ENDBRANCH   1  15
TORSDOF 3
ENDMDL
MODEL 6
REMARK VINA RESULT:      -7.7      0.987      1.694
REMARK  Name = 
REMARK  5 active torsions:
REMARK  status: ('A' for Active; 'I' for Inactive)
REMARK    1  A    between atoms: C_1  and  C_2
REMARK    2  A    between atoms: C_2  and  C_3
REMARK    3  A    between atoms: C_2  and  C_4
REMARK    4  A    between atoms: C_7  and  N_8
REMARK    5  A    between atoms: N_9  and  C_10
REMARK                            x       y       z     vdW  Elec       q    Type
REMARK                         _______ _______ _______ _____ _____    ______ ____
ROOT
ATOM      1  C   UNL     1       1.632   7.914  20.522  0.00  0.00    +0.000 C 
ATOM      2  C   UNL     1       0.815   8.924  20.839  0.00  0.00    +0.000 C 
ATOM      3  N   UNL     1       0.370   9.197  22.128  0.00  0.00    +0.000 N 
ATOM      4  C   UNL     1      -0.520  10.262  22.102  0.00  0.00    +0.000 A 
ATOM      5  C   UNL     1      -1.123  10.868  23.185  0.00  0.00    +0.000 A 
ATOM      6  C   UNL     1      -1.943  11.974  22.946  0.00  0.00    +0.000 A 
ATOM      7  C   UNL     1      -2.133  12.451  21.634  0.00  0.00    +0.000 A 
ATOM      8 BR   UNL     1      -3.307  13.913  21.362  0.00  0.00    +0.000 Br
ATOM      9  C   UNL     1      -1.478  11.873  20.544  0.00  0.00    +0.000 A 
ATOM     10  C   UNL     1      -0.654  10.795  20.814  0.00  0.00    +0.000 A 
ATOM     11  C   UNL     1       0.211   9.974  19.923  0.00  0.00    +0.000 C 
ATOM     12  O   UNL     1       0.349  10.126  18.726  0.00  0.00    +0.000 OA
ATOM     13  H   UNL     1       0.302   8.454  22.810  0.00  0.00    +0.000 HD
ENDROOT
BRANCH   1  15
ATOM     14  N   UNL     1       2.294   6.403  19.113  0.00  0.00    +0.000 NA
ATOM     15  N   UNL     1       2.244   7.637  19.326  0.00  0.00    +0.000 NA
BRANCH  14  19
ATOM     16  C   UNL     1       5.109   5.398  16.098  0.00  0.00    +0.000 A 
ATOM     17  C   UNL     1       4.885   6.725  16.486  0.00  0.00    +0.000 A 
ATOM     18  C   UNL     1       3.954   7.018  17.492  0.00  0.00    +0.000 A 
ATOM     19  C   UNL     1       3.222   6.006  18.130  0.00  0.00    +0.000 A 
ATOM     20  C   UNL     1       3.467   4.683  17.759  0.00  0.00    +0.000 A 
ATOM     21  C   UNL     1       4.393   4.383  16.752  0.00  0.00    +0.000 A 
BRANCH  16  23
ATOM     22  C   UNL     1       7.454   4.635  15.570  0.00  0.00    +0.000 C 
ATOM     23  C   UNL     1       6.108   5.085  14.997  0.00  0.00    +0.000 C 
ATOM     24  C   UNL     1       5.563   4.040  14.020  0.00  0.00    +0.000 C 
ENDBRANCH  16  23
ENDBRANCH  14  19
ENDBRANCH   1  15
TORSDOF 3
ENDMDL
MODEL 7
REMARK VINA RESULT:      -7.6      3.298      9.535
REMARK  Name = 
REMARK  5 active torsions:
REMARK  status: ('A' for Active; 'I' for Inactive)
REMARK    1  A    between atoms: C_1  and  C_2
REMARK    2  A    between atoms: C_2  and  C_3
REMARK    3  A    between atoms: C_2  and  C_4
REMARK    4  A    between atoms: C_7  and  N_8
REMARK    5  A    between atoms: N_9  and  C_10
REMARK                            x       y       z     vdW  Elec       q    Type
REMARK                         _______ _______ _______ _____ _____    ______ ____
ROOT
ATOM      1  C   UNL     1       1.995   6.669  20.189  0.00  0.00    +0.000 C 
ATOM      2  C   UNL     1       2.767   6.195  19.205  0.00  0.00    +0.000 C 
ATOM      3  N   UNL     1       3.111   4.857  19.054  0.00  0.00    +0.000 N 
ATOM      4  C   UNL     1       3.980   4.714  17.980  0.00  0.00    +0.000 A 
ATOM      5  C   UNL     1       4.491   3.536  17.476  0.00  0.00    +0.000 A 
ATOM      6  C   UNL     1       5.304   3.605  16.340  0.00  0.00    +0.000 A 
ATOM      7  C   UNL     1       5.579   4.847  15.735  0.00  0.00    +0.000 A 
ATOM      8 BR   UNL     1       6.740   4.889  14.240  0.00  0.00    +0.000 Br
ATOM      9  C   UNL     1       5.017   6.034  16.213  0.00  0.00    +0.000 A 
ATOM     10  C   UNL     1       4.196   5.931  17.322  0.00  0.00    +0.000 A 
ATOM     11  C   UNL     1       3.415   6.958  18.063  0.00  0.00    +0.000 C 
ATOM     12  O   UNL     1       3.361   8.142  17.796  0.00  0.00    +0.000 OA
ATOM     13  H   UNL     1       3.144   4.246  19.859  0.00  0.00    +0.000 HD
ENDROOT
BRANCH   1  15
ATOM     14  N   UNL     1       1.448   8.253  21.566  0.00  0.00    +0.000 NA
ATOM     15  N   UNL     1       1.477   7.927  20.356  0.00  0.00    +0.000 NA
BRANCH  14  19
ATOM     16  C   UNL     1      -1.021  11.620  22.338  0.00  0.00    +0.000 A 
ATOM     17  C   UNL     1      -0.213  11.544  21.197  0.00  0.00    +0.000 A 
ATOM     18  C   UNL     1       0.583  10.412  20.971  0.00  0.00    +0.000 A 
ATOM     19  C   UNL     1       0.598   9.336  21.870  0.00  0.00    +0.000 A 
ATOM     20  C   UNL     1      -0.229   9.404  22.992  0.00  0.00    +0.000 A 
ATOM     21  C   UNL     1      -1.023  10.533  23.227  0.00  0.00    +0.000 A 
BRANCH  16  23
ATOM     22  C   UNL     1      -3.122  12.521  23.404  0.00  0.00    +0.000 C 
ATOM     23  C   UNL     1      -1.871  12.855  22.588  0.00  0.00    +0.000 C 
ATOM     24  C   UNL     1      -1.066  13.966  23.267  0.00  0.00    +0.000 C 
ENDBRANCH  16  23
ENDBRANCH  14  19
ENDBRANCH   1  15
TORSDOF 3
ENDMDL
MODEL 8
REMARK VINA RESULT:      -7.6      1.706      2.323
REMARK  Name = 
REMARK  5 active torsions:
REMARK  status: ('A' for Active; 'I' for Inactive)
REMARK    1  A    between atoms: C_1  and  C_2
REMARK    2  A    between atoms: C_2  and  C_3
REMARK    3  A    between atoms: C_2  and  C_4
REMARK    4  A    between atoms: C_7  and  N_8
REMARK    5  A    between atoms: N_9  and  C_10
REMARK                            x       y       z     vdW  Elec       q    Type
REMARK                         _______ _______ _______ _____ _____    ______ ____
ROOT
ATOM      1  C   UNL     1       3.062   5.109  19.656  0.00  0.00    +0.000 C 
ATOM      2  C   UNL     1       2.514   6.324  19.766  0.00  0.00    +0.000 C 
ATOM      3  N   UNL     1       2.017   6.856  20.951  0.00  0.00    +0.000 N 
ATOM      4  C   UNL     1       1.452   8.101  20.707  0.00  0.00    +0.000 A 
ATOM      5  C   UNL     1       0.916   8.967  21.637  0.00  0.00    +0.000 A 
ATOM      6  C   UNL     1       0.454  10.208  21.189  0.00  0.00    +0.000 A 
ATOM      7  C   UNL     1       0.546  10.554  19.826  0.00  0.00    +0.000 A 
ATOM      8 BR   UNL     1      -0.157  12.221  19.265  0.00  0.00    +0.000 Br
ATOM      9  C   UNL     1       1.140   9.700  18.894  0.00  0.00    +0.000 A 
ATOM     10  C   UNL     1       1.611   8.489  19.371  0.00  0.00    +0.000 A 
ATOM     11  C   UNL     1       2.318   7.374  18.685  0.00  0.00    +0.000 C 
ATOM     12  O   UNL     1       2.625   7.339  17.511  0.00  0.00    +0.000 OA
ATOM     13  H   UNL     1       1.677   6.244  21.680  0.00  0.00    +0.000 HD
ENDROOT
BRANCH   1  15
ATOM     14  N   UNL     1       4.836   5.055  18.410  0.00  0.00    +0.000 NA
ATOM     15  N   UNL     1       3.706   4.542  18.587  0.00  0.00    +0.000 NA
BRANCH  14  19
ATOM     16  C   UNL     1       6.698   4.467  14.640  0.00  0.00    +0.000 A 
ATOM     17  C   UNL     1       7.394   5.001  15.731  0.00  0.00    +0.000 A 
ATOM     18  C   UNL     1       6.749   5.173  16.964  0.00  0.00    +0.000 A 
ATOM     19  C   UNL     1       5.402   4.824  17.140  0.00  0.00    +0.000 A 
ATOM     20  C   UNL     1       4.719   4.267  16.058  0.00  0.00    +0.000 A 
ATOM     21  C   UNL     1       5.356   4.097  14.822  0.00  0.00    +0.000 A 
BRANCH  16  23
ATOM     22  C   UNL     1       6.476   3.649  12.265  0.00  0.00    +0.000 C 
ATOM     23  C   UNL     1       7.397   4.297  13.301  0.00  0.00    +0.000 C 
ATOM     24  C   UNL     1       7.945   5.627  12.777  0.00  0.00    +0.000 C 
ENDBRANCH  16  23
ENDBRANCH  14  19
ENDBRANCH   1  15
TORSDOF 3
ENDMDL
MODEL 9
REMARK VINA RESULT:      -7.4      3.308      9.670
REMARK  Name = 
REMARK  5 active torsions:
REMARK  status: ('A' for Active; 'I' for Inactive)
REMARK    1  A    between atoms: C_1  and  C_2
REMARK    2  A    between atoms: C_2  and  C_3
REMARK    3  A    between atoms: C_2  and  C_4
REMARK    4  A    between atoms: C_7  and  N_8
REMARK    5  A    between atoms: N_9  and  C_10
REMARK                            x       y       z     vdW  Elec       q    Type
REMARK                         _______ _______ _______ _____ _____    ______ ____
ROOT
ATOM      1  C   UNL     1       1.509   7.636  20.835  0.00  0.00    +0.000 C 
ATOM      2  C   UNL     1       2.310   7.033  19.949  0.00  0.00    +0.000 C 
ATOM      3  N   UNL     1       2.958   5.824  20.175  0.00  0.00    +0.000 N 
ATOM      4  C   UNL     1       3.767   5.516  19.089  0.00  0.00    +0.000 A 
ATOM      5  C   UNL     1       4.516   4.371  18.910  0.00  0.00    +0.000 A 
ATOM      6  C   UNL     1       5.216   4.225  17.708  0.00  0.00    +0.000 A 
ATOM      7  C   UNL     1       5.143   5.223  16.715  0.00  0.00    +0.000 A 
ATOM      8 BR   UNL     1       6.164   5.003  15.135  0.00  0.00    +0.000 Br
ATOM      9  C   UNL     1       4.341   6.355  16.874  0.00  0.00    +0.000 A 
ATOM     10  C   UNL     1       3.641   6.460  18.063  0.00  0.00    +0.000 A 
ATOM     11  C   UNL     1       2.681   7.489  18.549  0.00  0.00    +0.000 C 
ATOM     12  O   UNL     1       2.325   8.476  17.938  0.00  0.00    +0.000 OA
ATOM     13  H   UNL     1       3.189   5.539  21.117  0.00  0.00    +0.000 HD
ENDROOT
BRANCH   1  15
ATOM     14  N   UNL     1       0.833   9.536  21.634  0.00  0.00    +0.000 NA
ATOM     15  N   UNL     1       0.713   8.740  20.673  0.00  0.00    +0.000 NA
BRANCH  14  19
ATOM     16  C   UNL     1      -2.329  12.318  22.169  0.00  0.00    +0.000 A 
ATOM     17  C   UNL     1      -1.874  11.508  23.217  0.00  0.00    +0.000 A 
ATOM     18  C   UNL     1      -0.821  10.607  23.005  0.00  0.00    +0.000 A 
ATOM     19  C   UNL     1      -0.201  10.486  21.753  0.00  0.00    +0.000 A 
ATOM     20  C   UNL     1      -0.640  11.314  20.718  0.00  0.00    +0.000 A 
ATOM     21  C   UNL     1      -1.695  12.213  20.921  0.00  0.00    +0.000 A 
BRANCH  16  23
ATOM     22  C   UNL     1      -4.766  12.796  21.725  0.00  0.00    +0.000 C 
ATOM     23  C   UNL     1      -3.481  13.283  22.399  0.00  0.00    +0.000 C 
ATOM     24  C   UNL     1      -3.717  13.535  23.890  0.00  0.00    +0.000 C 
ENDBRANCH  16  23
ENDBRANCH  14  19
ENDBRANCH   1  15
TORSDOF 3
ENDMDL
