MODEL 1
REMARK VINA RESULT:      -8.1      0.000      0.000
REMARK  Name = 
REMARK  9 active torsions:
REMARK  status: ('A' for Active; 'I' for Inactive)
REMARK    1  A    between atoms: C_1  and  O_2
REMARK    2  A    between atoms: O_2  and  C_3
REMARK    3  A    between atoms: C_8  and  N_9
REMARK    4  A    between atoms: C_13  and  S_14
REMARK    5  A    between atoms: S_14  and  C_15
REMARK    6  A    between atoms: C_15  and  C_16
REMARK    7  A    between atoms: N_18  and  C_19
REMARK    8  A    between atoms: C_19  and  C_20
REMARK    9  A    between atoms: C_20  and  N_21
REMARK                            x       y       z     vdW  Elec       q    Type
REMARK                         _______ _______ _______ _____ _____    ______ ____
ROOT
ATOM      1  C   UNL     1       2.047   8.572  18.338  0.00  0.00    +0.000 C 
ATOM      2  O   UNL     1       2.272   9.130  17.264  0.00  0.00    +0.000 OA
ATOM      3  N   UNL     1       2.601   7.359  18.680  0.00  0.00    +0.000 N 
ATOM      4  H   UNL     1       2.413   6.922  19.574  0.00  0.00    +0.000 HD
ENDROOT
BRANCH   1   5
ATOM      5  C   UNL     1       1.165   9.190  19.406  0.00  0.00    +0.000 C 
BRANCH   5   6
ATOM      6  S   UNL     1      -0.039  10.329  18.677  0.00  0.00    +0.000 S 
BRANCH   6  11
ATOM      7  N   UNL     1       0.044  12.618  20.328  0.00  0.00    +0.000 N 
ATOM      8  N   UNL     1       0.915  13.672  20.449  0.00  0.00    +0.000 NA
ATOM      9  N   UNL     1       1.807  13.559  19.482  0.00  0.00    +0.000 NA
ATOM     10  N   UNL     1       1.590  12.437  18.750  0.00  0.00    +0.000 NA
ATOM     11  C   UNL     1       0.518  11.859  19.254  0.00  0.00    +0.000 A 
BRANCH   7  17
ATOM     12  C   UNL     1      -1.035  11.793  22.454  0.00  0.00    +0.000 A 
ATOM     13  C   UNL     1      -2.199  11.764  23.248  0.00  0.00    +0.000 A 
ATOM     14  C   UNL     1      -3.348  12.466  22.890  0.00  0.00    +0.000 A 
ATOM     15  C   UNL     1      -3.358  13.211  21.722  0.00  0.00    +0.000 A 
ATOM     16  C   UNL     1      -2.220  13.243  20.918  0.00  0.00    +0.000 A 
ATOM     17  C   UNL     1      -1.038  12.536  21.263  0.00  0.00    +0.000 A 
BRANCH  12  19
ATOM     18  C   UNL     1      -0.286   9.645  23.134  0.00  0.00    +0.000 C 
ATOM     19  O   UNL     1       0.026  10.989  22.756  0.00  0.00    +0.000 OA
ENDBRANCH  12  19
ENDBRANCH   7  17
ENDBRANCH   6  11
ENDBRANCH   5   6
ENDBRANCH   1   5
BRANCH   3  20
ATOM     20  C   UNL     1       3.489   6.642  17.775  0.00  0.00    +0.000 C 
BRANCH  20  21
ATOM     21  C   UNL     1       3.828   5.177  18.256  0.00  0.00    +0.000 C 
ATOM     22  C   UNL     1       4.082   4.301  16.989  0.00  0.00    +0.000 C 
ATOM     23  C   UNL     1       5.301   4.731  16.163  0.00  0.00    +0.000 C 
ATOM     24  C   UNL     1       6.566   4.844  17.004  0.00  0.00    +0.000 C 
ATOM     25  C   UNL     1       6.370   5.703  18.250  0.00  0.00    +0.000 C 
ATOM     26  C   UNL     1       5.167   5.232  19.067  0.00  0.00    +0.000 C 
BRANCH  21  27
ATOM     27  N   UNL     1       2.705   4.637  19.133  0.00  0.00    +0.000 NA
ATOM     28  C   UNL     1       2.002   3.480  18.534  0.00  0.00    +0.000 C 
ATOM     29  C   UNL     1       0.837   2.964  19.390  0.00  0.00    +0.000 C 
ATOM     30  C   UNL     1       1.297   2.604  20.789  0.00  0.00    +0.000 C 
ATOM     31  C   UNL     1       1.992   3.804  21.407  0.00  0.00    +0.000 C 
ATOM     32  C   UNL     1       3.131   4.305  20.514  0.00  0.00    +0.000 C 
ENDBRANCH  21  27
ENDBRANCH  20  21
ENDBRANCH   3  20
TORSDOF 8
ENDMDL
MODEL 2
REMARK VINA RESULT:      -8.1      1.134      3.319
REMARK  Name = 
REMARK  9 active torsions:
REMARK  status: ('A' for Active; 'I' for Inactive)
REMARK    1  A    between atoms: C_1  and  O_2
REMARK    2  A    between atoms: O_2  and  C_3
REMARK    3  A    between atoms: C_8  and  N_9
REMARK    4  A    between atoms: C_13  and  S_14
REMARK    5  A    between atoms: S_14  and  C_15
REMARK    6  A    between atoms: C_15  and  C_16
REMARK    7  A    between atoms: N_18  and  C_19
REMARK    8  A    between atoms: C_19  and  C_20
REMARK    9  A    between atoms: C_20  and  N_21
REMARK                            x       y       z     vdW  Elec       q    Type
REMARK                         _______ _______ _______ _____ _____    ______ ____
ROOT
ATOM      1  C   UNL     1       2.113   8.002  19.225  0.00  0.00    +0.000 C 
ATOM      2  O   UNL     1       1.776   8.090  20.405  0.00  0.00    +0.000 OA
ATOM      3  N   UNL     1       2.717   6.881  18.702  0.00  0.00    +0.000 N 
ATOM      4  H   UNL     1       2.977   6.823  17.724  0.00  0.00    +0.000 HD
ENDROOT
BRANCH   1   5
ATOM      5  C   UNL     1       1.859   9.112  18.221  0.00  0.00    +0.000 C 
BRANCH   5   6
ATOM      6  S   UNL     1       0.326   9.995  18.604  0.00  0.00    +0.000 S 
BRANCH   6  11
ATOM      7  N   UNL     1       0.451  12.334  20.182  0.00  0.00    +0.000 N 
ATOM      8  N   UNL     1       1.350  13.365  20.283  0.00  0.00    +0.000 NA
ATOM      9  N   UNL     1       2.254  13.195  19.336  0.00  0.00    +0.000 NA
ATOM     10  N   UNL     1       2.015  12.057  18.637  0.00  0.00    +0.000 NA
ATOM     11  C   UNL     1       0.919  11.527  19.141  0.00  0.00    +0.000 A 
BRANCH   7  17
ATOM     12  C   UNL     1      -0.686  11.606  22.313  0.00  0.00    +0.000 A 
ATOM     13  C   UNL     1      -1.862  11.637  23.089  0.00  0.00    +0.000 A 
ATOM     14  C   UNL     1      -2.984  12.363  22.692  0.00  0.00    +0.000 A 
ATOM     15  C   UNL     1      -2.952  13.073  21.503  0.00  0.00    +0.000 A 
ATOM     16  C   UNL     1      -1.801  13.045  20.717  0.00  0.00    +0.000 A 
ATOM     17  C   UNL     1      -0.648  12.313  21.101  0.00  0.00    +0.000 A 
BRANCH  12  19
ATOM     18  C   UNL     1      -0.018   9.483  23.140  0.00  0.00    +0.000 C 
ATOM     19  O   UNL     1       0.344  10.780  22.657  0.00  0.00    +0.000 OA
ENDBRANCH  12  19
ENDBRANCH   7  17
ENDBRANCH   6  11
ENDBRANCH   5   6
ENDBRANCH   1   5
BRANCH   3  20
ATOM     20  C   UNL     1       3.013   5.717  19.526  0.00  0.00    +0.000 C 
BRANCH  20  21
ATOM     21  C   UNL     1       3.570   4.489  18.705  0.00  0.00    +0.000 C 
ATOM     22  C   UNL     1       3.972   3.374  19.720  0.00  0.00    +0.000 C 
ATOM     23  C   UNL     1       2.797   2.804  20.524  0.00  0.00    +0.000 C 
ATOM     24  C   UNL     1       1.652   2.336  19.634  0.00  0.00    +0.000 C 
ATOM     25  C   UNL     1       1.214   3.399  18.631  0.00  0.00    +0.000 C 
ATOM     26  C   UNL     1       2.402   3.926  17.825  0.00  0.00    +0.000 C 
BRANCH  21  27
ATOM     27  N   UNL     1       4.728   4.929  17.819  0.00  0.00    +0.000 NA
ATOM     28  C   UNL     1       6.054   4.565  18.370  0.00  0.00    +0.000 C 
ATOM     29  C   UNL     1       7.227   5.051  17.507  0.00  0.00    +0.000 C 
ATOM     30  C   UNL     1       7.115   4.539  16.084  0.00  0.00    +0.000 C 
ATOM     31  C   UNL     1       5.765   4.941  15.517  0.00  0.00    +0.000 C 
ATOM     32  C   UNL     1       4.621   4.460  16.417  0.00  0.00    +0.000 C 
ENDBRANCH  21  27
ENDBRANCH  20  21
ENDBRANCH   3  20
TORSDOF 8
ENDMDL
MODEL 3
REMARK VINA RESULT:      -8.0      2.325      4.365
REMARK  Name = 
REMARK  9 active torsions:
REMARK  status: ('A' for Active; 'I' for Inactive)
REMARK    1  A    between atoms: C_1  and  O_2
REMARK    2  A    between atoms: O_2  and  C_3
REMARK    3  A    between atoms: C_8  and  N_9
REMARK    4  A    between atoms: C_13  and  S_14
REMARK    5  A    between atoms: S_14  and  C_15
REMARK    6  A    between atoms: C_15  and  C_16
REMARK    7  A    between atoms: N_18  and  C_19
REMARK    8  A    between atoms: C_19  and  C_20
REMARK    9  A    between atoms: C_20  and  N_21
REMARK                            x       y       z     vdW  Elec       q    Type
REMARK                         _______ _______ _______ _____ _____    ______ ____
ROOT
ATOM      1  C   UNL     1       1.988   7.124  20.183  0.00  0.00    +0.000 C 
ATOM      2  O   UNL     1       1.404   6.467  21.044  0.00  0.00    +0.000 OA
ATOM      3  N   UNL     1       3.058   6.635  19.468  0.00  0.00    +0.000 N 
ATOM      4  H   UNL     1       3.518   7.187  18.754  0.00  0.00    +0.000 HD
ENDROOT
BRANCH   1   5
ATOM      5  C   UNL     1       1.556   8.526  19.798  0.00  0.00    +0.000 C 
BRANCH   5   6
ATOM      6  S   UNL     1       0.486   9.248  21.068  0.00  0.00    +0.000 S 
BRANCH   6  11
ATOM      7  N   UNL     1      -0.375  11.592  19.748  0.00  0.00    +0.000 N 
ATOM      8  N   UNL     1      -0.046  12.920  19.857  0.00  0.00    +0.000 NA
ATOM      9  N   UNL     1       0.962  13.008  20.706  0.00  0.00    +0.000 NA
ATOM     10  N   UNL     1       1.285  11.787  21.203  0.00  0.00    +0.000 NA
ATOM     11  C   UNL     1       0.480  10.918  20.625  0.00  0.00    +0.000 A 
BRANCH   7  17
ATOM     12  C   UNL     1      -2.759  11.712  18.931  0.00  0.00    +0.000 A 
ATOM     13  C   UNL     1      -3.714  11.230  18.013  0.00  0.00    +0.000 A 
ATOM     14  C   UNL     1      -3.379  10.307  17.024  0.00  0.00    +0.000 A 
ATOM     15  C   UNL     1      -2.078   9.842  16.936  0.00  0.00    +0.000 A 
ATOM     16  C   UNL     1      -1.122  10.299  17.842  0.00  0.00    +0.000 A 
ATOM     17  C   UNL     1      -1.440  11.239  18.857  0.00  0.00    +0.000 A 
BRANCH  12  19
ATOM     18  C   UNL     1      -4.536  12.827  20.043  0.00  0.00    +0.000 C 
ATOM     19  O   UNL     1      -3.143  12.509  19.971  0.00  0.00    +0.000 OA
ENDBRANCH  12  19
ENDBRANCH   7  17
ENDBRANCH   6  11
ENDBRANCH   5   6
ENDBRANCH   1   5
BRANCH   3  20
ATOM     20  C   UNL     1       3.585   5.297  19.700  0.00  0.00    +0.000 C 
BRANCH  20  21
ATOM     21  C   UNL     1       3.680   4.422  18.389  0.00  0.00    +0.000 C 
ATOM     22  C   UNL     1       4.048   2.965  18.808  0.00  0.00    +0.000 C 
ATOM     23  C   UNL     1       2.981   2.270  19.664  0.00  0.00    +0.000 C 
ATOM     24  C   UNL     1       1.599   2.314  19.025  0.00  0.00    +0.000 C 
ATOM     25  C   UNL     1       1.189   3.724  18.608  0.00  0.00    +0.000 C 
ATOM     26  C   UNL     1       2.257   4.379  17.733  0.00  0.00    +0.000 C 
BRANCH  21  27
ATOM     27  N   UNL     1       4.685   5.032  17.420  0.00  0.00    +0.000 NA
ATOM     28  C   UNL     1       6.038   5.184  18.004  0.00  0.00    +0.000 C 
ATOM     29  C   UNL     1       7.043   5.845  17.050  0.00  0.00    +0.000 C 
ATOM     30  C   UNL     1       7.142   5.086  15.741  0.00  0.00    +0.000 C 
ATOM     31  C   UNL     1       5.756   4.959  15.135  0.00  0.00    +0.000 C 
ATOM     32  C   UNL     1       4.776   4.319  16.124  0.00  0.00    +0.000 C 
ENDBRANCH  21  27
ENDBRANCH  20  21
ENDBRANCH   3  20
TORSDOF 8
ENDMDL
MODEL 4
REMARK VINA RESULT:      -8.0      2.460      4.389
REMARK  Name = 
REMARK  9 active torsions:
REMARK  status: ('A' for Active; 'I' for Inactive)
REMARK    1  A    between atoms: C_1  and  O_2
REMARK    2  A    between atoms: O_2  and  C_3
REMARK    3  A    between atoms: C_8  and  N_9
REMARK    4  A    between atoms: C_13  and  S_14
REMARK    5  A    between atoms: S_14  and  C_15
REMARK    6  A    between atoms: C_15  and  C_16
REMARK    7  A    between atoms: N_18  and  C_19
REMARK    8  A    between atoms: C_19  and  C_20
REMARK    9  A    between atoms: C_20  and  N_21
REMARK                            x       y       z     vdW  Elec       q    Type
REMARK                         _______ _______ _______ _____ _____    ______ ____
ROOT
ATOM      1  C   UNL     1       1.851   7.771  19.900  0.00  0.00    +0.000 C 
ATOM      2  O   UNL     1       1.482   7.540  21.051  0.00  0.00    +0.000 OA
ATOM      3  N   UNL     1       2.596   6.880  19.161  0.00  0.00    +0.000 N 
ATOM      4  H   UNL     1       2.880   7.084  18.211  0.00  0.00    +0.000 HD
ENDROOT
BRANCH   1   5
ATOM      5  C   UNL     1       1.484   9.050  19.170  0.00  0.00    +0.000 C 
BRANCH   5   6
ATOM      6  S   UNL     1       0.137   9.916  20.014  0.00  0.00    +0.000 S 
BRANCH   6  11
ATOM      7  N   UNL     1      -1.032  12.080  18.625  0.00  0.00    +0.000 N 
ATOM      8  N   UNL     1      -0.557  13.283  18.165  0.00  0.00    +0.000 NA
ATOM      9  N   UNL     1       0.748  13.295  18.369  0.00  0.00    +0.000 NA
ATOM     10  N   UNL     1       1.152  12.160  18.994  0.00  0.00    +0.000 NA
ATOM     11  C   UNL     1       0.078  11.413  19.151  0.00  0.00    +0.000 A 
BRANCH   7  17
ATOM     12  C   UNL     1      -3.039  11.116  17.439  0.00  0.00    +0.000 A 
ATOM     13  C   UNL     1      -4.442  10.988  17.415  0.00  0.00    +0.000 A 
ATOM     14  C   UNL     1      -5.245  11.531  18.416  0.00  0.00    +0.000 A 
ATOM     15  C   UNL     1      -4.658  12.219  19.465  0.00  0.00    +0.000 A 
ATOM     16  C   UNL     1      -3.271  12.365  19.500  0.00  0.00    +0.000 A 
ATOM     17  C   UNL     1      -2.434  11.821  18.491  0.00  0.00    +0.000 A 
BRANCH  12  19
ATOM     18  C   UNL     1      -2.977  10.564  15.130  0.00  0.00    +0.000 C 
ATOM     19  O   UNL     1      -2.290  10.694  16.378  0.00  0.00    +0.000 OA
ENDBRANCH  12  19
ENDBRANCH   7  17
ENDBRANCH   6  11
ENDBRANCH   5   6
ENDBRANCH   1   5
BRANCH   3  20
ATOM     20  C   UNL     1       3.014   5.596  19.707  0.00  0.00    +0.000 C 
BRANCH  20  21
ATOM     21  C   UNL     1       3.503   4.574  18.608  0.00  0.00    +0.000 C 
ATOM     22  C   UNL     1       4.049   3.306  19.337  0.00  0.00    +0.000 C 
ATOM     23  C   UNL     1       2.989   2.539  20.138  0.00  0.00    +0.000 C 
ATOM     24  C   UNL     1       1.761   2.195  19.305  0.00  0.00    +0.000 C 
ATOM     25  C   UNL     1       1.183   3.408  18.580  0.00  0.00    +0.000 C 
ATOM     26  C   UNL     1       2.256   4.134  17.768  0.00  0.00    +0.000 C 
BRANCH  21  27
ATOM     27  N   UNL     1       4.540   5.228  17.704  0.00  0.00    +0.000 NA
ATOM     28  C   UNL     1       5.859   5.396  18.355  0.00  0.00    +0.000 C 
ATOM     29  C   UNL     1       6.893   6.102  17.467  0.00  0.00    +0.000 C 
ATOM     30  C   UNL     1       7.071   5.378  16.147  0.00  0.00    +0.000 C 
ATOM     31  C   UNL     1       5.719   5.236  15.472  0.00  0.00    +0.000 C 
ATOM     32  C   UNL     1       4.708   4.550  16.397  0.00  0.00    +0.000 C 
ENDBRANCH  21  27
ENDBRANCH  20  21
ENDBRANCH   3  20
TORSDOF 8
ENDMDL
MODEL 5
REMARK VINA RESULT:      -7.9      2.042      2.997
REMARK  Name = 
REMARK  9 active torsions:
REMARK  status: ('A' for Active; 'I' for Inactive)
REMARK    1  A    between atoms: C_1  and  O_2
REMARK    2  A    between atoms: O_2  and  C_3
REMARK    3  A    between atoms: C_8  and  N_9
REMARK    4  A    between atoms: C_13  and  S_14
REMARK    5  A    between atoms: S_14  and  C_15
REMARK    6  A    between atoms: C_15  and  C_16
REMARK    7  A    between atoms: N_18  and  C_19
REMARK    8  A    between atoms: C_19  and  C_20
REMARK    9  A    between atoms: C_20  and  N_21
REMARK                            x       y       z     vdW  Elec       q    Type
REMARK                         _______ _______ _______ _____ _____    ______ ____
ROOT
ATOM      1  C   UNL     1       2.025   8.582  18.230  0.00  0.00    +0.000 C 
ATOM      2  O   UNL     1       2.230   9.103  17.134  0.00  0.00    +0.000 OA
ATOM      3  N   UNL     1       2.640   7.418  18.630  0.00  0.00    +0.000 N 
ATOM      4  H   UNL     1       2.467   7.011  19.542  0.00  0.00    +0.000 HD
ENDROOT
BRANCH   1   5
ATOM      5  C   UNL     1       1.099   9.198  19.262  0.00  0.00    +0.000 C 
BRANCH   5   6
ATOM      6  S   UNL     1       1.399   8.497  20.904  0.00  0.00    +0.000 S 
BRANCH   6  11
ATOM      7  N   UNL     1       0.246  10.962  21.662  0.00  0.00    +0.000 N 
ATOM      8  N   UNL     1      -0.479  11.377  22.750  0.00  0.00    +0.000 NA
ATOM      9  N   UNL     1      -0.501  10.379  23.614  0.00  0.00    +0.000 NA
ATOM     10  N   UNL     1       0.144   9.293  23.117  0.00  0.00    +0.000 NA
ATOM     11  C   UNL     1       0.605   9.638  21.931  0.00  0.00    +0.000 A 
BRANCH   7  17
ATOM     12  C   UNL     1      -0.514  12.186  19.591  0.00  0.00    +0.000 A 
ATOM     13  C   UNL     1      -0.168  13.085  18.562  0.00  0.00    +0.000 A 
ATOM     14  C   UNL     1       1.081  13.701  18.516  0.00  0.00    +0.000 A 
ATOM     15  C   UNL     1       2.016  13.426  19.501  0.00  0.00    +0.000 A 
ATOM     16  C   UNL     1       1.695  12.530  20.520  0.00  0.00    +0.000 A 
ATOM     17  C   UNL     1       0.430  11.891  20.587  0.00  0.00    +0.000 A 
BRANCH  12  19
ATOM     18  C   UNL     1      -2.480  11.684  18.359  0.00  0.00    +0.000 C 
ATOM     19  O   UNL     1      -1.690  11.495  19.536  0.00  0.00    +0.000 OA
ENDBRANCH  12  19
ENDBRANCH   7  17
ENDBRANCH   6  11
ENDBRANCH   5   6
ENDBRANCH   1   5
BRANCH   3  20
ATOM     20  C   UNL     1       3.575   6.710  17.766  0.00  0.00    +0.000 C 
BRANCH  20  21
ATOM     21  C   UNL     1       3.875   5.233  18.238  0.00  0.00    +0.000 C 
ATOM     22  C   UNL     1       4.202   4.381  16.972  0.00  0.00    +0.000 C 
ATOM     23  C   UNL     1       5.473   4.819  16.233  0.00  0.00    +0.000 C 
ATOM     24  C   UNL     1       6.684   4.906  17.153  0.00  0.00    +0.000 C 
ATOM     25  C   UNL     1       6.416   5.742  18.401  0.00  0.00    +0.000 C 
ATOM     26  C   UNL     1       5.162   5.263  19.132  0.00  0.00    +0.000 C 
BRANCH  21  27
ATOM     27  N   UNL     1       2.697   4.685  19.033  0.00  0.00    +0.000 NA
ATOM     28  C   UNL     1       2.067   3.503  18.401  0.00  0.00    +0.000 C 
ATOM     29  C   UNL     1       0.848   2.977  19.171  0.00  0.00    +0.000 C 
ATOM     30  C   UNL     1       1.202   2.651  20.609  0.00  0.00    +0.000 C 
ATOM     31  C   UNL     1       1.820   3.876  21.258  0.00  0.00    +0.000 C 
ATOM     32  C   UNL     1       3.017   4.386  20.449  0.00  0.00    +0.000 C 
ENDBRANCH  21  27
ENDBRANCH  20  21
ENDBRANCH   3  20
TORSDOF 8
ENDMDL
MODEL 6
REMARK VINA RESULT:      -7.9      1.767      3.716
REMARK  Name = 
REMARK  9 active torsions:
REMARK  status: ('A' for Active; 'I' for Inactive)
REMARK    1  A    between atoms: C_1  and  O_2
REMARK    2  A    between atoms: O_2  and  C_3
REMARK    3  A    between atoms: C_8  and  N_9
REMARK    4  A    between atoms: C_13  and  S_14
REMARK    5  A    between atoms: S_14  and  C_15
REMARK    6  A    between atoms: C_15  and  C_16
REMARK    7  A    between atoms: N_18  and  C_19
REMARK    8  A    between atoms: C_19  and  C_20
REMARK    9  A    between atoms: C_20  and  N_21
REMARK                            x       y       z     vdW  Elec       q    Type
REMARK                         _______ _______ _______ _____ _____    ______ ____
ROOT
ATOM      1  C   UNL     1       2.038   8.011  18.997  0.00  0.00    +0.000 C 
ATOM      2  O   UNL     1       1.701   8.136  20.174  0.00  0.00    +0.000 OA
ATOM      3  N   UNL     1       2.683   6.892  18.519  0.00  0.00    +0.000 N 
ATOM      4  H   UNL     1       2.941   6.803  17.543  0.00  0.00    +0.000 HD
ENDROOT
BRANCH   1   5
ATOM      5  C   UNL     1       1.738   9.066  17.948  0.00  0.00    +0.000 C 
BRANCH   5   6
ATOM      6  S   UNL     1       1.245  10.627  18.721  0.00  0.00    +0.000 S 
BRANCH   6  11
ATOM      7  N   UNL     1      -1.459  11.218  19.283  0.00  0.00    +0.000 N 
ATOM      8  N   UNL     1      -2.637  11.015  18.607  0.00  0.00    +0.000 NA
ATOM      9  N   UNL     1      -2.357  10.297  17.534  0.00  0.00    +0.000 NA
ATOM     10  N   UNL     1      -1.025  10.056  17.446  0.00  0.00    +0.000 NA
ATOM     11  C   UNL     1      -0.470  10.609  18.506  0.00  0.00    +0.000 A 
BRANCH   7  17
ATOM     12  C   UNL     1      -1.040  11.518  21.752  0.00  0.00    +0.000 A 
ATOM     13  C   UNL     1      -1.210  12.342  22.882  0.00  0.00    +0.000 A 
ATOM     14  C   UNL     1      -1.819  13.592  22.794  0.00  0.00    +0.000 A 
ATOM     15  C   UNL     1      -2.277  14.044  21.567  0.00  0.00    +0.000 A 
ATOM     16  C   UNL     1      -2.128  13.237  20.439  0.00  0.00    +0.000 A 
ATOM     17  C   UNL     1      -1.511  11.961  20.506  0.00  0.00    +0.000 A 
BRANCH  12  19
ATOM     18  C   UNL     1      -0.378   9.784  23.232  0.00  0.00    +0.000 C 
ATOM     19  O   UNL     1      -0.565  10.246  21.891  0.00  0.00    +0.000 OA
ENDBRANCH  12  19
ENDBRANCH   7  17
ENDBRANCH   6  11
ENDBRANCH   5   6
ENDBRANCH   1   5
BRANCH   3  20
ATOM     20  C   UNL     1       3.026   5.776  19.390  0.00  0.00    +0.000 C 
BRANCH  20  21
ATOM     21  C   UNL     1       3.571   4.515  18.613  0.00  0.00    +0.000 C 
ATOM     22  C   UNL     1       3.987   3.443  19.667  0.00  0.00    +0.000 C 
ATOM     23  C   UNL     1       2.823   2.907  20.510  0.00  0.00    +0.000 C 
ATOM     24  C   UNL     1       1.666   2.404  19.656  0.00  0.00    +0.000 C 
ATOM     25  C   UNL     1       1.215   3.425  18.616  0.00  0.00    +0.000 C 
ATOM     26  C   UNL     1       2.391   3.917  17.773  0.00  0.00    +0.000 C 
BRANCH  21  27
ATOM     27  N   UNL     1       4.718   4.918  17.694  0.00  0.00    +0.000 NA
ATOM     28  C   UNL     1       6.053   4.652  18.276  0.00  0.00    +0.000 C 
ATOM     29  C   UNL     1       7.212   5.102  17.377  0.00  0.00    +0.000 C 
ATOM     30  C   UNL     1       7.125   4.464  16.004  0.00  0.00    +0.000 C 
ATOM     31  C   UNL     1       5.765   4.765  15.402  0.00  0.00    +0.000 C 
ATOM     32  C   UNL     1       4.635   4.324  16.338  0.00  0.00    +0.000 C 
ENDBRANCH  21  27
ENDBRANCH  20  21
ENDBRANCH   3  20
TORSDOF 8
ENDMDL
MODEL 7
REMARK VINA RESULT:      -7.9      1.489      3.716
REMARK  Name = 
REMARK  9 active torsions:
REMARK  status: ('A' for Active; 'I' for Inactive)
REMARK    1  A    between atoms: C_1  and  O_2
REMARK    2  A    between atoms: O_2  and  C_3
REMARK    3  A    between atoms: C_8  and  N_9
REMARK    4  A    between atoms: C_13  and  S_14
REMARK    5  A    between atoms: S_14  and  C_15
REMARK    6  A    between atoms: C_15  and  C_16
REMARK    7  A    between atoms: N_18  and  C_19
REMARK    8  A    between atoms: C_19  and  C_20
REMARK    9  A    between atoms: C_20  and  N_21
REMARK                            x       y       z     vdW  Elec       q    Type
REMARK                         _______ _______ _______ _____ _____    ______ ____
ROOT
ATOM      1  C   UNL     1       2.510   7.558  18.872  0.00  0.00    +0.000 C 
ATOM      2  O   UNL     1       2.026   7.625  20.002  0.00  0.00    +0.000 OA
ATOM      3  N   UNL     1       3.360   6.547  18.483  0.00  0.00    +0.000 N 
ATOM      4  H   UNL     1       3.739   6.503  17.544  0.00  0.00    +0.000 HD
ENDROOT
BRANCH   1   5
ATOM      5  C   UNL     1       2.184   8.566  17.787  0.00  0.00    +0.000 C 
BRANCH   5   6
ATOM      6  S   UNL     1       0.659   9.463  18.169  0.00  0.00    +0.000 S 
BRANCH   6  11
ATOM      7  N   UNL     1       0.915  11.739  19.821  0.00  0.00    +0.000 N 
ATOM      8  N   UNL     1       1.782  12.803  19.847  0.00  0.00    +0.000 NA
ATOM      9  N   UNL     1       2.553  12.709  18.778  0.00  0.00    +0.000 NA
ATOM     10  N   UNL     1       2.261  11.590  18.067  0.00  0.00    +0.000 NA
ATOM     11  C   UNL     1       1.265  10.995  18.691  0.00  0.00    +0.000 A 
BRANCH   7  17
ATOM     12  C   UNL     1      -1.182  12.445  21.032  0.00  0.00    +0.000 A 
ATOM     13  C   UNL     1      -2.009  12.260  22.158  0.00  0.00    +0.000 A 
ATOM     14  C   UNL     1      -1.737  11.284  23.116  0.00  0.00    +0.000 A 
ATOM     15  C   UNL     1      -0.625  10.473  22.967  0.00  0.00    +0.000 A 
ATOM     16  C   UNL     1       0.212  10.649  21.865  0.00  0.00    +0.000 A 
ATOM     17  C   UNL     1      -0.045  11.636  20.878  0.00  0.00    +0.000 A 
BRANCH  12  19
ATOM     18  C   UNL     1      -1.289  14.801  20.758  0.00  0.00    +0.000 C 
ATOM     19  O   UNL     1      -1.395  13.494  20.186  0.00  0.00    +0.000 OA
ENDBRANCH  12  19
ENDBRANCH   7  17
ENDBRANCH   6  11
ENDBRANCH   5   6
ENDBRANCH   1   5
BRANCH   3  20
ATOM     20  C   UNL     1       3.757   5.486  19.398  0.00  0.00    +0.000 C 
BRANCH  20  21
ATOM     21  C   UNL     1       3.790   4.056  18.730  0.00  0.00    +0.000 C 
ATOM     22  C   UNL     1       3.726   2.991  19.868  0.00  0.00    +0.000 C 
ATOM     23  C   UNL     1       2.422   3.013  20.675  0.00  0.00    +0.000 C 
ATOM     24  C   UNL     1       1.185   2.931  19.790  0.00  0.00    +0.000 C 
ATOM     25  C   UNL     1       1.196   3.965  18.667  0.00  0.00    +0.000 C 
ATOM     26  C   UNL     1       2.494   3.898  17.862  0.00  0.00    +0.000 C 
BRANCH  21  27
ATOM     27  N   UNL     1       5.028   3.913  17.853  0.00  0.00    +0.000 NA
ATOM     28  C   UNL     1       4.748   4.114  16.413  0.00  0.00    +0.000 C 
ATOM     29  C   UNL     1       5.981   3.921  15.519  0.00  0.00    +0.000 C 
ATOM     30  C   UNL     1       7.117   4.830  15.943  0.00  0.00    +0.000 C 
ATOM     31  C   UNL     1       7.418   4.598  17.412  0.00  0.00    +0.000 C 
ATOM     32  C   UNL     1       6.159   4.775  18.269  0.00  0.00    +0.000 C 
ENDBRANCH  21  27
ENDBRANCH  20  21
ENDBRANCH   3  20
TORSDOF 8
ENDMDL
MODEL 8
REMARK VINA RESULT:      -7.8      2.378      4.210
REMARK  Name = 
REMARK  9 active torsions:
REMARK  status: ('A' for Active; 'I' for Inactive)
REMARK    1  A    between atoms: C_1  and  O_2
REMARK    2  A    between atoms: O_2  and  C_3
REMARK    3  A    between atoms: C_8  and  N_9
REMARK    4  A    between atoms: C_13  and  S_14
REMARK    5  A    between atoms: S_14  and  C_15
REMARK    6  A    between atoms: C_15  and  C_16
REMARK    7  A    between atoms: N_18  and  C_19
REMARK    8  A    between atoms: C_19  and  C_20
REMARK    9  A    between atoms: C_20  and  N_21
REMARK                            x       y       z     vdW  Elec       q    Type
REMARK                         _______ _______ _______ _____ _____    ______ ____
ROOT
ATOM      1  C   UNL     1       2.032   7.645  19.897  0.00  0.00    +0.000 C 
ATOM      2  O   UNL     1       1.805   7.517  21.100  0.00  0.00    +0.000 OA
ATOM      3  N   UNL     1       2.735   6.714  19.167  0.00  0.00    +0.000 N 
ATOM      4  H   UNL     1       2.901   6.831  18.174  0.00  0.00    +0.000 HD
ENDROOT
BRANCH   1   5
ATOM      5  C   UNL     1       1.521   8.826  19.094  0.00  0.00    +0.000 C 
BRANCH   5   6
ATOM      6  S   UNL     1       0.307   9.779  20.041  0.00  0.00    +0.000 S 
BRANCH   6  11
ATOM      7  N   UNL     1      -0.794  12.033  18.742  0.00  0.00    +0.000 N 
ATOM      8  N   UNL     1      -0.268  13.207  18.266  0.00  0.00    +0.000 NA
ATOM      9  N   UNL     1       1.045  13.131  18.393  0.00  0.00    +0.000 NA
ATOM     10  N   UNL     1       1.408  11.964  18.983  0.00  0.00    +0.000 NA
ATOM     11  C   UNL     1       0.297  11.287  19.197  0.00  0.00    +0.000 A 
BRANCH   7  17
ATOM     12  C   UNL     1      -2.923  11.186  17.686  0.00  0.00    +0.000 A 
ATOM     13  C   UNL     1      -4.331  11.154  17.739  0.00  0.00    +0.000 A 
ATOM     14  C   UNL     1      -5.040  11.770  18.769  0.00  0.00    +0.000 A 
ATOM     15  C   UNL     1      -4.352  12.436  19.770  0.00  0.00    +0.000 A 
ATOM     16  C   UNL     1      -2.959  12.487  19.728  0.00  0.00    +0.000 A 
ATOM     17  C   UNL     1      -2.216  11.868  18.689  0.00  0.00    +0.000 A 
BRANCH  12  19
ATOM     18  C   UNL     1      -2.949  10.789  15.345  0.00  0.00    +0.000 C 
ATOM     19  O   UNL     1      -2.263  10.694  16.597  0.00  0.00    +0.000 OA
ENDBRANCH  12  19
ENDBRANCH   7  17
ENDBRANCH   6  11
ENDBRANCH   5   6
ENDBRANCH   1   5
BRANCH   3  20
ATOM     20  C   UNL     1       3.278   5.510  19.781  0.00  0.00    +0.000 C 
BRANCH  20  21
ATOM     21  C   UNL     1       3.798   4.448  18.736  0.00  0.00    +0.000 C 
ATOM     22  C   UNL     1       3.738   3.041  19.408  0.00  0.00    +0.000 C 
ATOM     23  C   UNL     1       2.321   2.575  19.763  0.00  0.00    +0.000 C 
ATOM     24  C   UNL     1       1.367   2.647  18.578  0.00  0.00    +0.000 C 
ATOM     25  C   UNL     1       1.381   4.011  17.893  0.00  0.00    +0.000 C 
ATOM     26  C   UNL     1       2.803   4.434  17.525  0.00  0.00    +0.000 C 
BRANCH  21  27
ATOM     27  N   UNL     1       5.197   4.819  18.260  0.00  0.00    +0.000 NA
ATOM     28  C   UNL     1       5.193   5.740  17.100  0.00  0.00    +0.000 C 
ATOM     29  C   UNL     1       6.598   6.077  16.584  0.00  0.00    +0.000 C 
ATOM     30  C   UNL     1       7.466   6.656  17.684  0.00  0.00    +0.000 C 
ATOM     31  C   UNL     1       7.489   5.693  18.857  0.00  0.00    +0.000 C 
ATOM     32  C   UNL     1       6.069   5.361  19.329  0.00  0.00    +0.000 C 
ENDBRANCH  21  27
ENDBRANCH  20  21
ENDBRANCH   3  20
TORSDOF 8
ENDMDL
MODEL 9
REMARK VINA RESULT:      -7.8      2.286      4.062
REMARK  Name = 
REMARK  9 active torsions:
REMARK  status: ('A' for Active; 'I' for Inactive)
REMARK    1  A    between atoms: C_1  and  O_2
REMARK    2  A    between atoms: O_2  and  C_3
REMARK    3  A    between atoms: C_8  and  N_9
REMARK    4  A    between atoms: C_13  and  S_14
REMARK    5  A    between atoms: S_14  and  C_15
REMARK    6  A    between atoms: C_15  and  C_16
REMARK    7  A    between atoms: N_18  and  C_19
REMARK    8  A    between atoms: C_19  and  C_20
REMARK    9  A    between atoms: C_20  and  N_21
REMARK                            x       y       z     vdW  Elec       q    Type
REMARK                         _______ _______ _______ _____ _____    ______ ____
ROOT
ATOM      1  C   UNL     1       1.963   7.473  19.939  0.00  0.00    +0.000 C 
ATOM      2  O   UNL     1       1.473   7.137  21.017  0.00  0.00    +0.000 OA
ATOM      3  N   UNL     1       2.891   6.708  19.270  0.00  0.00    +0.000 N 
ATOM      4  H   UNL     1       3.274   6.996  18.377  0.00  0.00    +0.000 HD
ENDROOT
BRANCH   1   5
ATOM      5  C   UNL     1       1.558   8.749  19.225  0.00  0.00    +0.000 C 
BRANCH   5   6
ATOM      6  S   UNL     1       0.835   9.940  20.381  0.00  0.00    +0.000 S 
BRANCH   6  11
ATOM      7  N   UNL     1      -0.321  11.901  18.709  0.00  0.00    +0.000 N 
ATOM      8  N   UNL     1       0.104  13.117  18.236  0.00  0.00    +0.000 NA
ATOM      9  N   UNL     1       1.363  13.266  18.607  0.00  0.00    +0.000 NA
ATOM     10  N   UNL     1       1.777  12.212  19.354  0.00  0.00    +0.000 NA
ATOM     11  C   UNL     1       0.762  11.374  19.420  0.00  0.00    +0.000 A 
BRANCH   7  17
ATOM     12  C   UNL     1      -2.825  12.058  18.966  0.00  0.00    +0.000 A 
ATOM     13  C   UNL     1      -4.080  11.521  18.616  0.00  0.00    +0.000 A 
ATOM     14  C   UNL     1      -4.199  10.458  17.722  0.00  0.00    +0.000 A 
ATOM     15  C   UNL     1      -3.059   9.908  17.159  0.00  0.00    +0.000 A 
ATOM     16  C   UNL     1      -1.808  10.419  17.502  0.00  0.00    +0.000 A 
ATOM     17  C   UNL     1      -1.663  11.500  18.411  0.00  0.00    +0.000 A 
BRANCH  12  19
ATOM     18  C   UNL     1      -2.768  12.527  21.293  0.00  0.00    +0.000 C 
ATOM     19  O   UNL     1      -2.730  13.005  19.945  0.00  0.00    +0.000 OA
ENDBRANCH  12  19
ENDBRANCH   7  17
ENDBRANCH   6  11
ENDBRANCH   5   6
ENDBRANCH   1   5
BRANCH   3  20
ATOM     20  C   UNL     1       3.372   5.443  19.808  0.00  0.00    +0.000 C 
BRANCH  20  21
ATOM     21  C   UNL     1       3.905   4.450  18.703  0.00  0.00    +0.000 C 
ATOM     22  C   UNL     1       3.864   3.006  19.293  0.00  0.00    +0.000 C 
ATOM     23  C   UNL     1       2.453   2.502  19.621  0.00  0.00    +0.000 C 
ATOM     24  C   UNL     1       1.497   2.629  18.441  0.00  0.00    +0.000 C 
ATOM     25  C   UNL     1       1.493   4.031  17.837  0.00  0.00    +0.000 C 
ATOM     26  C   UNL     1       2.909   4.493  17.493  0.00  0.00    +0.000 C 
BRANCH  21  27
ATOM     27  N   UNL     1       5.299   4.865  18.250  0.00  0.00    +0.000 NA
ATOM     28  C   UNL     1       5.282   5.843  17.137  0.00  0.00    +0.000 C 
ATOM     29  C   UNL     1       6.683   6.227  16.642  0.00  0.00    +0.000 C 
ATOM     30  C   UNL     1       7.540   6.764  17.771  0.00  0.00    +0.000 C 
ATOM     31  C   UNL     1       7.575   5.745  18.895  0.00  0.00    +0.000 C 
ATOM     32  C   UNL     1       6.160   5.368  19.346  0.00  0.00    +0.000 C 
ENDBRANCH  21  27
ENDBRANCH  20  21
ENDBRANCH   3  20
TORSDOF 8
ENDMDL
