MODEL 1
REMARK VINA RESULT:      -7.6      0.000      0.000
REMARK  Name = 
REMARK  5 active torsions:
REMARK  status: ('A' for Active; 'I' for Inactive)
REMARK    1  A    between atoms: C_1  and  N_2
REMARK    2  A    between atoms: C_6  and  C_7
REMARK    3  A    between atoms: C_7  and  N_8
REMARK    4  A    between atoms: N_11  and  C_12
REMARK    5  A    between atoms: C_15  and  C_16
REMARK                            x       y       z     vdW  Elec       q    Type
REMARK                         _______ _______ _______ _____ _____    ______ ____
ROOT
ATOM      1  N   UNL     1       4.562   3.138  18.236  0.00  0.00    +0.000 NA
ATOM      2  C   UNL     1       3.941   3.884  17.123  0.00  0.00    +0.000 C 
ATOM      3  C   UNL     1       3.022   5.094  17.447  0.00  0.00    +0.000 C 
ATOM      4  N   UNL     1       3.506   5.959  18.542  0.00  0.00    +0.000 N 
ATOM      5  C   UNL     1       4.196   5.279  19.655  0.00  0.00    +0.000 C 
ATOM      6  C   UNL     1       5.094   4.106  19.209  0.00  0.00    +0.000 C 
ENDROOT
BRANCH   4   7
ATOM      7  C   UNL     1       2.658   7.053  18.870  0.00  0.00    +0.000 A 
ATOM      8  C   UNL     1       2.283   8.044  17.947  0.00  0.00    +0.000 A 
ATOM      9  C   UNL     1       1.472   9.143  18.312  0.00  0.00    +0.000 A 
ATOM     10  C   UNL     1       0.985   9.278  19.609  0.00  0.00    +0.000 A 
ATOM     11  C   UNL     1       1.294   8.269  20.526  0.00  0.00    +0.000 A 
ATOM     12  C   UNL     1       2.110   7.183  20.157  0.00  0.00    +0.000 A 
BRANCH  10  13
ATOM     13  C   UNL     1       0.160  10.466  20.035  0.00  0.00    +0.000 C 
ATOM     14  F   UNL     1      -0.254  10.412  21.332  0.00  0.00    +0.000 F 
ATOM     15  F   UNL     1       0.828  11.648  19.909  0.00  0.00    +0.000 F 
ATOM     16  F   UNL     1      -0.975  10.602  19.291  0.00  0.00    +0.000 F 
ENDBRANCH  10  13
ENDBRANCH   4   7
BRANCH   1  17
ATOM     17  C   UNL     1       3.684   2.084  18.760  0.00  0.00    +0.000 C 
BRANCH  17  23
ATOM     18  C   UNL     1       0.665   2.986  19.019  0.00  0.00    +0.000 C 
ATOM     19  N   UNL     1       1.616   2.844  20.087  0.00  0.00    +0.000 N 
ATOM     20  C   UNL     1       1.374   3.130  21.399  0.00  0.00    +0.000 A 
ATOM     21  N   UNL     1       2.459   2.899  22.100  0.00  0.00    +0.000 NA
ATOM     22  N   UNL     1       3.432   2.451  21.231  0.00  0.00    +0.000 NA
ATOM     23  C   UNL     1       2.920   2.424  20.010  0.00  0.00    +0.000 A 
ENDBRANCH  17  23
ENDBRANCH   1  17
TORSDOF 4
ENDMDL
MODEL 2
REMARK VINA RESULT:      -7.5      0.343      1.286
REMARK  Name = 
REMARK  5 active torsions:
REMARK  status: ('A' for Active; 'I' for Inactive)
REMARK    1  A    between atoms: C_1  and  N_2
REMARK    2  A    between atoms: C_6  and  C_7
REMARK    3  A    between atoms: C_7  and  N_8
REMARK    4  A    between atoms: N_11  and  C_12
REMARK    5  A    between atoms: C_15  and  C_16
REMARK                            x       y       z     vdW  Elec       q    Type
REMARK                         _______ _______ _______ _____ _____    ______ ____
ROOT
ATOM      1  N   UNL     1       4.623   3.381  18.161  0.00  0.00    +0.000 NA
ATOM      2  C   UNL     1       4.112   4.195  17.041  0.00  0.00    +0.000 C 
ATOM      3  C   UNL     1       3.160   5.384  17.345  0.00  0.00    +0.000 C 
ATOM      4  N   UNL     1       3.529   6.179  18.534  0.00  0.00    +0.000 N 
ATOM      5  C   UNL     1       4.109   5.431  19.666  0.00  0.00    +0.000 C 
ATOM      6  C   UNL     1       5.052   4.286  19.240  0.00  0.00    +0.000 C 
ENDROOT
BRANCH   4   7
ATOM      7  C   UNL     1       2.648   7.252  18.844  0.00  0.00    +0.000 A 
ATOM      8  C   UNL     1       2.078   7.441  20.114  0.00  0.00    +0.000 A 
ATOM      9  C   UNL     1       1.171   8.493  20.382  0.00  0.00    +0.000 A 
ATOM     10  C   UNL     1       0.821   9.410  19.395  0.00  0.00    +0.000 A 
ATOM     11  C   UNL     1       1.427   9.276  18.142  0.00  0.00    +0.000 A 
ATOM     12  C   UNL     1       2.321   8.221  17.880  0.00  0.00    +0.000 A 
BRANCH  10  13
ATOM     13  C   UNL     1      -0.180  10.510  19.641  0.00  0.00    +0.000 C 
ATOM     14  F   UNL     1      -1.339  10.367  18.941  0.00  0.00    +0.000 F 
ATOM     15  F   UNL     1      -0.548  10.607  20.951  0.00  0.00    +0.000 F 
ATOM     16  F   UNL     1       0.306  11.738  19.303  0.00  0.00    +0.000 F 
ENDBRANCH  10  13
ENDBRANCH   4   7
BRANCH   1  17
ATOM     17  C   UNL     1       3.702   2.298  18.530  0.00  0.00    +0.000 C 
BRANCH  17  23
ATOM     18  C   UNL     1       0.711   3.196  19.022  0.00  0.00    +0.000 C 
ATOM     19  N   UNL     1       1.693   2.883  20.024  0.00  0.00    +0.000 N 
ATOM     20  C   UNL     1       1.499   2.976  21.372  0.00  0.00    +0.000 A 
ATOM     21  N   UNL     1       2.601   2.628  21.994  0.00  0.00    +0.000 NA
ATOM     22  N   UNL     1       3.537   2.299  21.035  0.00  0.00    +0.000 NA
ATOM     23  C   UNL     1       2.985   2.460  19.842  0.00  0.00    +0.000 A 
ENDBRANCH  17  23
ENDBRANCH   1  17
TORSDOF 4
ENDMDL
MODEL 3
REMARK VINA RESULT:      -7.3      3.003      4.997
REMARK  Name = 
REMARK  5 active torsions:
REMARK  status: ('A' for Active; 'I' for Inactive)
REMARK    1  A    between atoms: C_1  and  N_2
REMARK    2  A    between atoms: C_6  and  C_7
REMARK    3  A    between atoms: C_7  and  N_8
REMARK    4  A    between atoms: N_11  and  C_12
REMARK    5  A    between atoms: C_15  and  C_16
REMARK                            x       y       z     vdW  Elec       q    Type
REMARK                         _______ _______ _______ _____ _____    ______ ____
ROOT
ATOM      1  N   UNL     1       5.540   4.273  16.635  0.00  0.00    +0.000 NA
ATOM      2  C   UNL     1       6.052   5.585  17.078  0.00  0.00    +0.000 C 
ATOM      3  C   UNL     1       5.040   6.697  17.468  0.00  0.00    +0.000 C 
ATOM      4  N   UNL     1       3.874   6.224  18.244  0.00  0.00    +0.000 N 
ATOM      5  C   UNL     1       3.356   4.888  17.893  0.00  0.00    +0.000 C 
ATOM      6  C   UNL     1       4.455   3.863  17.541  0.00  0.00    +0.000 C 
ENDROOT
BRANCH   4   7
ATOM      7  C   UNL     1       2.923   7.226  18.580  0.00  0.00    +0.000 A 
ATOM      8  C   UNL     1       2.300   7.309  19.836  0.00  0.00    +0.000 A 
ATOM      9  C   UNL     1       1.326   8.291  20.130  0.00  0.00    +0.000 A 
ATOM     10  C   UNL     1       0.958   9.244  19.183  0.00  0.00    +0.000 A 
ATOM     11  C   UNL     1       1.613   9.218  17.948  0.00  0.00    +0.000 A 
ATOM     12  C   UNL     1       2.574   8.231  17.662  0.00  0.00    +0.000 A 
BRANCH  10  13
ATOM     13  C   UNL     1      -0.112  10.271  19.455  0.00  0.00    +0.000 C 
ATOM     14  F   UNL     1      -0.556  10.276  20.741  0.00  0.00    +0.000 F 
ATOM     15  F   UNL     1       0.301  11.546  19.200  0.00  0.00    +0.000 F 
ATOM     16  F   UNL     1      -1.219  10.082  18.682  0.00  0.00    +0.000 F 
ENDBRANCH  10  13
ENDBRANCH   4   7
BRANCH   1  17
ATOM     17  C   UNL     1       5.249   4.245  15.196  0.00  0.00    +0.000 C 
BRANCH  17  23
ATOM     18  C   UNL     1       5.855   3.288  12.244  0.00  0.00    +0.000 C 
ATOM     19  N   UNL     1       6.621   4.223  13.021  0.00  0.00    +0.000 N 
ATOM     20  C   UNL     1       7.780   4.818  12.617  0.00  0.00    +0.000 A 
ATOM     21  N   UNL     1       8.221   5.604  13.572  0.00  0.00    +0.000 NA
ATOM     22  N   UNL     1       7.331   5.525  14.623  0.00  0.00    +0.000 NA
ATOM     23  C   UNL     1       6.366   4.682  14.289  0.00  0.00    +0.000 A 
ENDBRANCH  17  23
ENDBRANCH   1  17
TORSDOF 4
ENDMDL
MODEL 4
REMARK VINA RESULT:      -7.3      3.086      5.010
REMARK  Name = 
REMARK  5 active torsions:
REMARK  status: ('A' for Active; 'I' for Inactive)
REMARK    1  A    between atoms: C_1  and  N_2
REMARK    2  A    between atoms: C_6  and  C_7
REMARK    3  A    between atoms: C_7  and  N_8
REMARK    4  A    between atoms: N_11  and  C_12
REMARK    5  A    between atoms: C_15  and  C_16
REMARK                            x       y       z     vdW  Elec       q    Type
REMARK                         _______ _______ _______ _____ _____    ______ ____
ROOT
ATOM      1  N   UNL     1       5.855   4.376  16.659  0.00  0.00    +0.000 NA
ATOM      2  C   UNL     1       6.255   5.768  16.946  0.00  0.00    +0.000 C 
ATOM      3  C   UNL     1       5.159   6.809  17.303  0.00  0.00    +0.000 C 
ATOM      4  N   UNL     1       4.097   6.302  18.197  0.00  0.00    +0.000 N 
ATOM      5  C   UNL     1       3.698   4.895  18.005  0.00  0.00    +0.000 C 
ATOM      6  C   UNL     1       4.874   3.953  17.672  0.00  0.00    +0.000 C 
ENDROOT
BRANCH   4   7
ATOM      7  C   UNL     1       3.069   7.236  18.508  0.00  0.00    +0.000 A 
ATOM      8  C   UNL     1       2.632   8.227  17.614  0.00  0.00    +0.000 A 
ATOM      9  C   UNL     1       1.636   9.169  17.964  0.00  0.00    +0.000 A 
ATOM     10  C   UNL     1       1.025   9.137  19.214  0.00  0.00    +0.000 A 
ATOM     11  C   UNL     1       1.401   8.118  20.095  0.00  0.00    +0.000 A 
ATOM     12  C   UNL     1       2.399   7.191  19.742  0.00  0.00    +0.000 A 
BRANCH  10  13
ATOM     13  C   UNL     1      -0.003  10.159  19.630  0.00  0.00    +0.000 C 
ATOM     14  F   UNL     1       0.493  11.421  19.750  0.00  0.00    +0.000 F 
ATOM     15  F   UNL     1      -1.043  10.251  18.752  0.00  0.00    +0.000 F 
ATOM     16  F   UNL     1      -0.566   9.867  20.837  0.00  0.00    +0.000 F 
ENDBRANCH  10  13
ENDBRANCH   4   7
BRANCH   1  17
ATOM     17  C   UNL     1       5.482   4.181  15.252  0.00  0.00    +0.000 C 
BRANCH  17  23
ATOM     18  C   UNL     1       5.759   3.276  12.236  0.00  0.00    +0.000 C 
ATOM     19  N   UNL     1       6.604   4.202  12.938  0.00  0.00    +0.000 N 
ATOM     20  C   UNL     1       7.710   4.808  12.418  0.00  0.00    +0.000 A 
ATOM     21  N   UNL     1       8.252   5.580  13.331  0.00  0.00    +0.000 NA
ATOM     22  N   UNL     1       7.485   5.480  14.473  0.00  0.00    +0.000 NA
ATOM     23  C   UNL     1       6.490   4.638  14.234  0.00  0.00    +0.000 A 
ENDBRANCH  17  23
ENDBRANCH   1  17
TORSDOF 4
ENDMDL
MODEL 5
REMARK VINA RESULT:      -7.2      1.684      2.585
REMARK  Name = 
REMARK  5 active torsions:
REMARK  status: ('A' for Active; 'I' for Inactive)
REMARK    1  A    between atoms: C_1  and  N_2
REMARK    2  A    between atoms: C_6  and  C_7
REMARK    3  A    between atoms: C_7  and  N_8
REMARK    4  A    between atoms: N_11  and  C_12
REMARK    5  A    between atoms: C_15  and  C_16
REMARK                            x       y       z     vdW  Elec       q    Type
REMARK                         _______ _______ _______ _____ _____    ______ ____
ROOT
ATOM      1  N   UNL     1       4.213   5.405  18.195  0.00  0.00    +0.000 NA
ATOM      2  C   UNL     1       4.376   6.725  17.554  0.00  0.00    +0.000 C 
ATOM      3  C   UNL     1       3.225   7.762  17.659  0.00  0.00    +0.000 C 
ATOM      4  N   UNL     1       2.571   7.824  18.983  0.00  0.00    +0.000 N 
ATOM      5  C   UNL     1       2.438   6.545  19.705  0.00  0.00    +0.000 C 
ATOM      6  C   UNL     1       3.651   5.604  19.540  0.00  0.00    +0.000 C 
ENDROOT
BRANCH   4   7
ATOM      7  C   UNL     1       1.494   8.747  19.085  0.00  0.00    +0.000 A 
ATOM      8  C   UNL     1       0.879   9.341  17.970  0.00  0.00    +0.000 A 
ATOM      9  C   UNL     1      -0.164  10.288  18.102  0.00  0.00    +0.000 A 
ATOM     10  C   UNL     1      -0.646  10.655  19.355  0.00  0.00    +0.000 A 
ATOM     11  C   UNL     1      -0.091  10.027  20.474  0.00  0.00    +0.000 A 
ATOM     12  C   UNL     1       0.952   9.093  20.334  0.00  0.00    +0.000 A 
BRANCH  10  13
ATOM     13  C   UNL     1      -1.723  11.697  19.525  0.00  0.00    +0.000 C 
ATOM     14  F   UNL     1      -2.130  11.862  20.814  0.00  0.00    +0.000 F 
ATOM     15  F   UNL     1      -1.335  12.933  19.098  0.00  0.00    +0.000 F 
ATOM     16  F   UNL     1      -2.849  11.399  18.817  0.00  0.00    +0.000 F 
ENDBRANCH  10  13
ENDBRANCH   4   7
BRANCH   1  17
ATOM     17  C   UNL     1       3.526   4.443  17.324  0.00  0.00    +0.000 C 
BRANCH  17  23
ATOM     18  C   UNL     1       4.082   2.011  19.265  0.00  0.00    +0.000 C 
ATOM     19  N   UNL     1       2.800   2.474  18.809  0.00  0.00    +0.000 N 
ATOM     20  C   UNL     1       1.602   1.893  19.109  0.00  0.00    +0.000 A 
ATOM     21  N   UNL     1       0.637   2.562  18.522  0.00  0.00    +0.000 NA
ATOM     22  N   UNL     1       1.213   3.604  17.824  0.00  0.00    +0.000 NA
ATOM     23  C   UNL     1       2.525   3.544  17.996  0.00  0.00    +0.000 A 
ENDBRANCH  17  23
ENDBRANCH   1  17
TORSDOF 4
ENDMDL
MODEL 6
REMARK VINA RESULT:      -7.2      1.619      2.245
REMARK  Name = 
REMARK  5 active torsions:
REMARK  status: ('A' for Active; 'I' for Inactive)
REMARK    1  A    between atoms: C_1  and  N_2
REMARK    2  A    between atoms: C_6  and  C_7
REMARK    3  A    between atoms: C_7  and  N_8
REMARK    4  A    between atoms: N_11  and  C_12
REMARK    5  A    between atoms: C_15  and  C_16
REMARK                            x       y       z     vdW  Elec       q    Type
REMARK                         _______ _______ _______ _____ _____    ______ ____
ROOT
ATOM      1  N   UNL     1       4.897   4.687  17.598  0.00  0.00    +0.000 NA
ATOM      2  C   UNL     1       4.943   5.994  16.914  0.00  0.00    +0.000 C 
ATOM      3  C   UNL     1       3.821   7.031  17.194  0.00  0.00    +0.000 C 
ATOM      4  N   UNL     1       3.402   7.118  18.609  0.00  0.00    +0.000 N 
ATOM      5  C   UNL     1       3.399   5.852  19.366  0.00  0.00    +0.000 C 
ATOM      6  C   UNL     1       4.571   4.911  19.015  0.00  0.00    +0.000 C 
ENDROOT
BRANCH   4   7
ATOM      7  C   UNL     1       2.353   8.041  18.875  0.00  0.00    +0.000 A 
ATOM      8  C   UNL     1       1.817   8.901  17.903  0.00  0.00    +0.000 A 
ATOM      9  C   UNL     1       0.803   9.839  18.205  0.00  0.00    +0.000 A 
ATOM     10  C   UNL     1       0.270   9.932  19.488  0.00  0.00    +0.000 A 
ATOM     11  C   UNL     1       0.745   9.040  20.455  0.00  0.00    +0.000 A 
ATOM     12  C   UNL     1       1.761   8.117  20.147  0.00  0.00    +0.000 A 
BRANCH  10  13
ATOM     13  C   UNL     1      -0.777  10.956  19.849  0.00  0.00    +0.000 C 
ATOM     14  F   UNL     1      -1.954  10.797  19.183  0.00  0.00    +0.000 F 
ATOM     15  F   UNL     1      -1.097  10.942  21.174  0.00  0.00    +0.000 F 
ATOM     16  F   UNL     1      -0.370  12.229  19.581  0.00  0.00    +0.000 F 
ENDBRANCH  10  13
ENDBRANCH   4   7
BRANCH   1  17
ATOM     17  C   UNL     1       4.076   3.707  16.874  0.00  0.00    +0.000 C 
BRANCH  17  23
ATOM     18  C   UNL     1       3.762   1.214  18.793  0.00  0.00    +0.000 C 
ATOM     19  N   UNL     1       2.727   2.125  18.387  0.00  0.00    +0.000 N 
ATOM     20  C   UNL     1       1.411   2.024  18.733  0.00  0.00    +0.000 A 
ATOM     21  N   UNL     1       0.742   3.011  18.184  0.00  0.00    +0.000 NA
ATOM     22  N   UNL     1       1.637   3.775  17.464  0.00  0.00    +0.000 NA
ATOM     23  C   UNL     1       2.838   3.232  17.585  0.00  0.00    +0.000 A 
ENDBRANCH  17  23
ENDBRANCH   1  17
TORSDOF 4
ENDMDL
MODEL 7
REMARK VINA RESULT:      -7.2      1.855      3.810
REMARK  Name = 
REMARK  5 active torsions:
REMARK  status: ('A' for Active; 'I' for Inactive)
REMARK    1  A    between atoms: C_1  and  N_2
REMARK    2  A    between atoms: C_6  and  C_7
REMARK    3  A    between atoms: C_7  and  N_8
REMARK    4  A    between atoms: N_11  and  C_12
REMARK    5  A    between atoms: C_15  and  C_16
REMARK                            x       y       z     vdW  Elec       q    Type
REMARK                         _______ _______ _______ _____ _____    ______ ____
ROOT
ATOM      1  N   UNL     1       4.317   3.257  18.003  0.00  0.00    +0.000 NA
ATOM      2  C   UNL     1       4.595   3.925  19.290  0.00  0.00    +0.000 C 
ATOM      3  C   UNL     1       4.058   5.363  19.525  0.00  0.00    +0.000 C 
ATOM      4  N   UNL     1       2.690   5.599  19.019  0.00  0.00    +0.000 N 
ATOM      5  C   UNL     1       2.328   4.906  17.769  0.00  0.00    +0.000 C 
ATOM      6  C   UNL     1       2.904   3.479  17.656  0.00  0.00    +0.000 C 
ENDROOT
BRANCH   4   7
ATOM      7  C   UNL     1       2.197   6.922  19.199  0.00  0.00    +0.000 A 
ATOM      8  C   UNL     1       1.715   7.406  20.426  0.00  0.00    +0.000 A 
ATOM      9  C   UNL     1       1.192   8.712  20.567  0.00  0.00    +0.000 A 
ATOM     10  C   UNL     1       1.156   9.591  19.488  0.00  0.00    +0.000 A 
ATOM     11  C   UNL     1       1.690   9.150  18.273  0.00  0.00    +0.000 A 
ATOM     12  C   UNL     1       2.200   7.846  18.140  0.00  0.00    +0.000 A 
BRANCH  10  13
ATOM     13  C   UNL     1       0.559  10.972  19.599  0.00  0.00    +0.000 C 
ATOM     14  F   UNL     1      -0.172  11.344  18.513  0.00  0.00    +0.000 F 
ATOM     15  F   UNL     1      -0.274  11.103  20.670  0.00  0.00    +0.000 F 
ATOM     16  F   UNL     1       1.511  11.937  19.751  0.00  0.00    +0.000 F 
ENDBRANCH  10  13
ENDBRANCH   4   7
BRANCH   1  17
ATOM     17  C   UNL     1       5.313   3.590  16.975  0.00  0.00    +0.000 C 
BRANCH  17  23
ATOM     18  C   UNL     1       5.113   6.623  16.110  0.00  0.00    +0.000 C 
ATOM     19  N   UNL     1       6.156   6.017  16.890  0.00  0.00    +0.000 N 
ATOM     20  C   UNL     1       7.271   6.659  17.346  0.00  0.00    +0.000 A 
ATOM     21  N   UNL     1       8.017   5.809  18.013  0.00  0.00    +0.000 NA
ATOM     22  N   UNL     1       7.379   4.586  17.995  0.00  0.00    +0.000 NA
ATOM     23  C   UNL     1       6.254   4.715  17.309  0.00  0.00    +0.000 A 
ENDBRANCH  17  23
ENDBRANCH   1  17
TORSDOF 4
ENDMDL
MODEL 8
REMARK VINA RESULT:      -7.2      0.822      1.929
REMARK  Name = 
REMARK  5 active torsions:
REMARK  status: ('A' for Active; 'I' for Inactive)
REMARK    1  A    between atoms: C_1  and  N_2
REMARK    2  A    between atoms: C_6  and  C_7
REMARK    3  A    between atoms: C_7  and  N_8
REMARK    4  A    between atoms: N_11  and  C_12
REMARK    5  A    between atoms: C_15  and  C_16
REMARK                            x       y       z     vdW  Elec       q    Type
REMARK                         _______ _______ _______ _____ _____    ______ ____
ROOT
ATOM      1  N   UNL     1       4.722   3.339  18.252  0.00  0.00    +0.000 NA
ATOM      2  C   UNL     1       3.905   3.924  17.171  0.00  0.00    +0.000 C 
ATOM      3  C   UNL     1       2.993   5.140  17.488  0.00  0.00    +0.000 C 
ATOM      4  N   UNL     1       3.600   6.148  18.383  0.00  0.00    +0.000 N 
ATOM      5  C   UNL     1       4.481   5.629  19.446  0.00  0.00    +0.000 C 
ATOM      6  C   UNL     1       5.352   4.433  19.008  0.00  0.00    +0.000 C 
ENDROOT
BRANCH   4   7
ATOM      7  C   UNL     1       2.764   7.252  18.708  0.00  0.00    +0.000 A 
ATOM      8  C   UNL     1       2.159   7.418  19.965  0.00  0.00    +0.000 A 
ATOM      9  C   UNL     1       1.298   8.504  20.247  0.00  0.00    +0.000 A 
ATOM     10  C   UNL     1       1.032   9.478  19.289  0.00  0.00    +0.000 A 
ATOM     11  C   UNL     1       1.675   9.365  18.053  0.00  0.00    +0.000 A 
ATOM     12  C   UNL     1       2.523   8.276  17.777  0.00  0.00    +0.000 A 
BRANCH  10  13
ATOM     13  C   UNL     1       0.080  10.618  19.549  0.00  0.00    +0.000 C 
ATOM     14  F   UNL     1      -0.665  10.971  18.465  0.00  0.00    +0.000 F 
ATOM     15  F   UNL     1      -0.815  10.346  20.541  0.00  0.00    +0.000 F 
ATOM     16  F   UNL     1       0.727  11.754  19.938  0.00  0.00    +0.000 F 
ENDBRANCH  10  13
ENDBRANCH   4   7
BRANCH   1  17
ATOM     17  C   UNL     1       3.982   2.336  19.030  0.00  0.00    +0.000 C 
BRANCH  17  23
ATOM     18  C   UNL     1       2.223   3.656  21.300  0.00  0.00    +0.000 C 
ATOM     19  N   UNL     1       1.749   3.053  20.085  0.00  0.00    +0.000 N 
ATOM     20  C   UNL     1       0.438   2.908  19.738  0.00  0.00    +0.000 A 
ATOM     21  N   UNL     1       0.361   2.307  18.573  0.00  0.00    +0.000 NA
ATOM     22  N   UNL     1       1.649   2.055  18.146  0.00  0.00    +0.000 NA
ATOM     23  C   UNL     1       2.488   2.503  19.068  0.00  0.00    +0.000 A 
ENDBRANCH  17  23
ENDBRANCH   1  17
TORSDOF 4
ENDMDL
MODEL 9
REMARK VINA RESULT:      -7.2      1.726      2.876
REMARK  Name = 
REMARK  5 active torsions:
REMARK  status: ('A' for Active; 'I' for Inactive)
REMARK    1  A    between atoms: C_1  and  N_2
REMARK    2  A    between atoms: C_6  and  C_7
REMARK    3  A    between atoms: C_7  and  N_8
REMARK    4  A    between atoms: N_11  and  C_12
REMARK    5  A    between atoms: C_15  and  C_16
REMARK                            x       y       z     vdW  Elec       q    Type
REMARK                         _______ _______ _______ _____ _____    ______ ____
ROOT
ATOM      1  N   UNL     1       4.058   5.349  18.223  0.00  0.00    +0.000 NA
ATOM      2  C   UNL     1       4.270   6.668  17.595  0.00  0.00    +0.000 C 
ATOM      3  C   UNL     1       3.160   7.747  17.715  0.00  0.00    +0.000 C 
ATOM      4  N   UNL     1       2.512   7.820  19.041  0.00  0.00    +0.000 N 
ATOM      5  C   UNL     1       2.331   6.539  19.750  0.00  0.00    +0.000 C 
ATOM      6  C   UNL     1       3.506   5.554  19.571  0.00  0.00    +0.000 C 
ENDROOT
BRANCH   4   7
ATOM      7  C   UNL     1       1.471   8.782  19.156  0.00  0.00    +0.000 A 
ATOM      8  C   UNL     1       0.946   9.209  20.387  0.00  0.00    +0.000 A 
ATOM      9  C   UNL     1      -0.118  10.137  20.470  0.00  0.00    +0.000 A 
ATOM     10  C   UNL     1      -0.679  10.691  19.322  0.00  0.00    +0.000 A 
ATOM     11  C   UNL     1      -0.128  10.327  18.090  0.00  0.00    +0.000 A 
ATOM     12  C   UNL     1       0.924   9.396  18.016  0.00  0.00    +0.000 A 
BRANCH  10  13
ATOM     13  C   UNL     1      -1.846  11.645  19.382  0.00  0.00    +0.000 C 
ATOM     14  F   UNL     1      -2.959  11.192  18.741  0.00  0.00    +0.000 F 
ATOM     15  F   UNL     1      -2.240  11.921  20.658  0.00  0.00    +0.000 F 
ATOM     16  F   UNL     1      -1.558  12.851  18.815  0.00  0.00    +0.000 F 
ENDBRANCH  10  13
ENDBRANCH   4   7
BRANCH   1  17
ATOM     17  C   UNL     1       3.332   4.423  17.343  0.00  0.00    +0.000 C 
BRANCH  17  23
ATOM     18  C   UNL     1       3.952   1.940  19.199  0.00  0.00    +0.000 C 
ATOM     19  N   UNL     1       2.656   2.410  18.794  0.00  0.00    +0.000 N 
ATOM     20  C   UNL     1       1.469   1.817  19.113  0.00  0.00    +0.000 A 
ATOM     21  N   UNL     1       0.485   2.498  18.573  0.00  0.00    +0.000 NA
ATOM     22  N   UNL     1       1.037   3.561  17.888  0.00  0.00    +0.000 NA
ATOM     23  C   UNL     1       2.354   3.501  18.019  0.00  0.00    +0.000 A 
ENDBRANCH  17  23
ENDBRANCH   1  17
TORSDOF 4
ENDMDL
