MODEL 1
REMARK VINA RESULT:      -8.7      0.000      0.000
REMARK  Name = 
REMARK  12 active torsions:
REMARK  status: ('A' for Active; 'I' for Inactive)
REMARK    1  A    between atoms: C_1  and  C_2
REMARK    2  A    between atoms: C_2  and  C_3
REMARK    3  A    between atoms: C_2  and  C_4
REMARK    4  A    between atoms: C_2  and  O_5
REMARK    5  A    between atoms: O_5  and  C_6
REMARK    6  A    between atoms: N_8  and  C_9
REMARK    7  A    between atoms: C_9  and  C_10
REMARK    8  A    between atoms: C_10  and  C_11
REMARK    9  A    between atoms: C_10  and  N_21
REMARK   10  A    between atoms: N_21  and  O_22
REMARK   11  A    between atoms: N_21  and  C_23
REMARK   12  A    between atoms: C_23  and  C_24
REMARK                            x       y       z     vdW  Elec       q    Type
REMARK                         _______ _______ _______ _____ _____    ______ ____
ROOT
ATOM      1  C   UNL     1       7.014   6.231  17.731  0.00  0.00    +0.000 C 
ENDROOT
BRANCH   1   2
ATOM      2  C   UNL     1       5.497   6.123  17.837  0.00  0.00    +0.000 A 
ATOM      3  C   UNL     1       4.573   7.018  17.315  0.00  0.00    +0.000 A 
ATOM      4  N   UNL     1       3.318   6.595  17.639  0.00  0.00    +0.000 N 
ATOM      5  C   UNL     1       3.382   5.437  18.368  0.00  0.00    +0.000 A 
ATOM      6  C   UNL     1       2.346   4.665  18.907  0.00  0.00    +0.000 A 
ATOM      7  C   UNL     1       2.703   3.517  19.615  0.00  0.00    +0.000 A 
ATOM      8 CL   UNL     1       1.463   2.538  20.302  0.00  0.00    +0.000 Cl
ATOM      9  C   UNL     1       4.035   3.151  19.772  0.00  0.00    +0.000 A 
ATOM     10  C   UNL     1       5.061   3.934  19.222  0.00  0.00    +0.000 A 
ATOM     11  C   UNL     1       4.733   5.107  18.506  0.00  0.00    +0.000 A 
ATOM     12  H   UNL     1       2.461   7.068  17.382  0.00  0.00    +0.000 HD
ENDBRANCH   1   2
BRANCH   1  13
ATOM     13  C   UNL     1       7.465   7.682  17.439  0.00  0.00    +0.000 C 
BRANCH  13  16
ATOM     14  C   UNL     1       8.555   9.625  18.311  0.00  0.00    +0.000 C 
ATOM     15  O   UNL     1       8.016  10.319  17.459  0.00  0.00    +0.000 OA
ATOM     16  N   UNL     1       8.395   8.273  18.376  0.00  0.00    +0.000 N 
ATOM     17  H   UNL     1       8.662   7.806  19.233  0.00  0.00    +0.000 HD
BRANCH  14  18
ATOM     18  O   UNL     1       9.356  10.070  19.307  0.00  0.00    +0.000 OA
BRANCH  18  20
ATOM     19  C   UNL     1       8.907  12.475  19.156  0.00  0.00    +0.000 C 
ATOM     20  C   UNL     1       9.975  11.372  19.140  0.00  0.00    +0.000 C 
ATOM     21  C   UNL     1      10.851  11.425  17.878  0.00  0.00    +0.000 C 
ATOM     22  C   UNL     1      10.883  11.571  20.364  0.00  0.00    +0.000 C 
ENDBRANCH  18  20
ENDBRANCH  14  18
ENDBRANCH  13  16
ENDBRANCH   1  13
BRANCH   1  23
ATOM     23  N   UNL     1       7.482   5.247  16.715  0.00  0.00    +0.000 NA
BRANCH  23  24
ATOM     24  O   UNL     1       8.134   4.161  17.447  0.00  0.00    +0.000 OA
ATOM     25  H   UNL     1       7.419   3.904  18.061  0.00  0.00    +0.000 HD
ENDBRANCH  23  24
BRANCH  23  26
ATOM     26  C   UNL     1       6.364   4.604  15.990  0.00  0.00    +0.000 C 
BRANCH  26  27
ATOM     27  C   UNL     1       6.611   4.507  14.501  0.00  0.00    +0.000 A 
ATOM     28  C   UNL     1       5.890   3.594  13.723  0.00  0.00    +0.000 A 
ATOM     29  C   UNL     1       6.141   3.474  12.353  0.00  0.00    +0.000 A 
ATOM     30  C   UNL     1       7.116   4.269  11.758  0.00  0.00    +0.000 A 
ATOM     31  C   UNL     1       7.832   5.191  12.522  0.00  0.00    +0.000 A 
ATOM     32  C   UNL     1       7.579   5.314  13.888  0.00  0.00    +0.000 A 
ENDBRANCH  26  27
ENDBRANCH  23  26
ENDBRANCH   1  23
TORSDOF 9
ENDMDL
MODEL 2
REMARK VINA RESULT:      -8.2      3.881      7.101
REMARK  Name = 
REMARK  12 active torsions:
REMARK  status: ('A' for Active; 'I' for Inactive)
REMARK    1  A    between atoms: C_1  and  C_2
REMARK    2  A    between atoms: C_2  and  C_3
REMARK    3  A    between atoms: C_2  and  C_4
REMARK    4  A    between atoms: C_2  and  O_5
REMARK    5  A    between atoms: O_5  and  C_6
REMARK    6  A    between atoms: N_8  and  C_9
REMARK    7  A    between atoms: C_9  and  C_10
REMARK    8  A    between atoms: C_10  and  C_11
REMARK    9  A    between atoms: C_10  and  N_21
REMARK   10  A    between atoms: N_21  and  O_22
REMARK   11  A    between atoms: N_21  and  C_23
REMARK   12  A    between atoms: C_23  and  C_24
REMARK                            x       y       z     vdW  Elec       q    Type
REMARK                         _______ _______ _______ _____ _____    ______ ____
ROOT
ATOM      1  C   UNL     1       4.135   6.326  17.838  0.00  0.00    +0.000 C 
ENDROOT
BRANCH   1   2
ATOM      2  C   UNL     1       5.396   6.096  17.011  0.00  0.00    +0.000 A 
ATOM      3  C   UNL     1       6.652   6.626  17.269  0.00  0.00    +0.000 A 
ATOM      4  N   UNL     1       7.512   6.215  16.294  0.00  0.00    +0.000 N 
ATOM      5  C   UNL     1       6.857   5.424  15.387  0.00  0.00    +0.000 A 
ATOM      6  C   UNL     1       7.346   4.795  14.235  0.00  0.00    +0.000 A 
ATOM      7  C   UNL     1       6.445   4.037  13.487  0.00  0.00    +0.000 A 
ATOM      8 CL   UNL     1       6.998   3.250  12.058  0.00  0.00    +0.000 Cl
ATOM      9  C   UNL     1       5.116   3.906  13.874  0.00  0.00    +0.000 A 
ATOM     10  C   UNL     1       4.643   4.541  15.033  0.00  0.00    +0.000 A 
ATOM     11  C   UNL     1       5.528   5.321  15.810  0.00  0.00    +0.000 A 
ATOM     12  H   UNL     1       8.492   6.461  16.242  0.00  0.00    +0.000 HD
ENDBRANCH   1   2
BRANCH   1  13
ATOM     13  C   UNL     1       3.655   7.794  17.754  0.00  0.00    +0.000 C 
BRANCH  13  16
ATOM     14  C   UNL     1       1.814   9.313  17.914  0.00  0.00    +0.000 C 
ATOM     15  O   UNL     1       2.526  10.229  17.523  0.00  0.00    +0.000 OA
ATOM     16  N   UNL     1       2.279   8.047  18.118  0.00  0.00    +0.000 N 
ATOM     17  H   UNL     1       1.599   7.302  18.200  0.00  0.00    +0.000 HD
BRANCH  14  18
ATOM     18  O   UNL     1       0.490   9.395  18.181  0.00  0.00    +0.000 OA
BRANCH  18  20
ATOM     19  C   UNL     1       0.951  11.423  19.478  0.00  0.00    +0.000 C 
ATOM     20  C   UNL     1       0.087  10.162  19.346  0.00  0.00    +0.000 C 
ATOM     21  C   UNL     1       0.104   9.305  20.623  0.00  0.00    +0.000 C 
ATOM     22  C   UNL     1      -1.362  10.603  19.083  0.00  0.00    +0.000 C 
ENDBRANCH  18  20
ENDBRANCH  14  18
ENDBRANCH  13  16
ENDBRANCH   1  13
BRANCH   1  23
ATOM     23  N   UNL     1       4.400   5.865  19.230  0.00  0.00    +0.000 NA
BRANCH  23  24
ATOM     24  O   UNL     1       3.224   6.219  20.025  0.00  0.00    +0.000 OA
ATOM     25  H   UNL     1       3.108   5.402  20.547  0.00  0.00    +0.000 HD
ENDBRANCH  23  24
BRANCH  23  26
ATOM     26  C   UNL     1       4.502   4.392  19.331  0.00  0.00    +0.000 C 
BRANCH  26  27
ATOM     27  C   UNL     1       3.153   3.718  19.442  0.00  0.00    +0.000 A 
ATOM     28  C   UNL     1       2.427   3.393  18.291  0.00  0.00    +0.000 A 
ATOM     29  C   UNL     1       1.163   2.804  18.390  0.00  0.00    +0.000 A 
ATOM     30  C   UNL     1       0.621   2.540  19.644  0.00  0.00    +0.000 A 
ATOM     31  C   UNL     1       1.340   2.849  20.798  0.00  0.00    +0.000 A 
ATOM     32  C   UNL     1       2.604   3.432  20.700  0.00  0.00    +0.000 A 
ENDBRANCH  26  27
ENDBRANCH  23  26
ENDBRANCH   1  23
TORSDOF 9
ENDMDL
MODEL 3
REMARK VINA RESULT:      -8.2      3.869      7.133
REMARK  Name = 
REMARK  12 active torsions:
REMARK  status: ('A' for Active; 'I' for Inactive)
REMARK    1  A    between atoms: C_1  and  C_2
REMARK    2  A    between atoms: C_2  and  C_3
REMARK    3  A    between atoms: C_2  and  C_4
REMARK    4  A    between atoms: C_2  and  O_5
REMARK    5  A    between atoms: O_5  and  C_6
REMARK    6  A    between atoms: N_8  and  C_9
REMARK    7  A    between atoms: C_9  and  C_10
REMARK    8  A    between atoms: C_10  and  C_11
REMARK    9  A    between atoms: C_10  and  N_21
REMARK   10  A    between atoms: N_21  and  O_22
REMARK   11  A    between atoms: N_21  and  C_23
REMARK   12  A    between atoms: C_23  and  C_24
REMARK                            x       y       z     vdW  Elec       q    Type
REMARK                         _______ _______ _______ _____ _____    ______ ____
ROOT
ATOM      1  C   UNL     1       4.121   6.363  17.828  0.00  0.00    +0.000 C 
ENDROOT
BRANCH   1   2
ATOM      2  C   UNL     1       5.381   6.143  16.997  0.00  0.00    +0.000 A 
ATOM      3  C   UNL     1       6.629   6.697  17.241  0.00  0.00    +0.000 A 
ATOM      4  N   UNL     1       7.491   6.288  16.267  0.00  0.00    +0.000 N 
ATOM      5  C   UNL     1       6.845   5.473  15.375  0.00  0.00    +0.000 A 
ATOM      6  C   UNL     1       7.338   4.838  14.229  0.00  0.00    +0.000 A 
ATOM      7  C   UNL     1       6.445   4.055  13.495  0.00  0.00    +0.000 A 
ATOM      8 CL   UNL     1       7.005   3.258  12.074  0.00  0.00    +0.000 Cl
ATOM      9  C   UNL     1       5.121   3.907  13.891  0.00  0.00    +0.000 A 
ATOM     10  C   UNL     1       4.643   4.549  15.044  0.00  0.00    +0.000 A 
ATOM     11  C   UNL     1       5.520   5.354  15.806  0.00  0.00    +0.000 A 
ATOM     12  H   UNL     1       8.466   6.549  16.206  0.00  0.00    +0.000 HD
ENDBRANCH   1   2
BRANCH   1  13
ATOM     13  C   UNL     1       3.637   7.831  17.757  0.00  0.00    +0.000 C 
BRANCH  13  16
ATOM     14  C   UNL     1       1.780   9.339  17.787  0.00  0.00    +0.000 C 
ATOM     15  O   UNL     1       2.539  10.288  17.639  0.00  0.00    +0.000 OA
ATOM     16  N   UNL     1       2.217   8.053  17.909  0.00  0.00    +0.000 N 
ATOM     17  H   UNL     1       1.540   7.311  17.782  0.00  0.00    +0.000 HD
BRANCH  14  18
ATOM     18  O   UNL     1       0.430   9.402  17.834  0.00  0.00    +0.000 OA
BRANCH  18  20
ATOM     19  C   UNL     1      -1.692  10.320  18.648  0.00  0.00    +0.000 C 
ATOM     20  C   UNL     1      -0.167  10.286  18.818  0.00  0.00    +0.000 C 
ATOM     21  C   UNL     1       0.458  11.691  18.771  0.00  0.00    +0.000 C 
ATOM     22  C   UNL     1       0.146   9.668  20.190  0.00  0.00    +0.000 C 
ENDBRANCH  18  20
ENDBRANCH  14  18
ENDBRANCH  13  16
ENDBRANCH   1  13
BRANCH   1  23
ATOM     23  N   UNL     1       4.389   5.891  19.216  0.00  0.00    +0.000 NA
BRANCH  23  24
ATOM     24  O   UNL     1       3.230   6.271  20.023  0.00  0.00    +0.000 OA
ATOM     25  H   UNL     1       2.886   5.390  20.269  0.00  0.00    +0.000 HD
ENDBRANCH  23  24
BRANCH  23  26
ATOM     26  C   UNL     1       4.455   4.415  19.310  0.00  0.00    +0.000 C 
BRANCH  26  27
ATOM     27  C   UNL     1       3.091   3.774  19.427  0.00  0.00    +0.000 A 
ATOM     28  C   UNL     1       2.555   3.475  20.684  0.00  0.00    +0.000 A 
ATOM     29  C   UNL     1       1.310   2.849  20.796  0.00  0.00    +0.000 A 
ATOM     30  C   UNL     1       0.598   2.518  19.647  0.00  0.00    +0.000 A 
ATOM     31  C   UNL     1       1.117   2.822  18.388  0.00  0.00    +0.000 A 
ATOM     32  C   UNL     1       2.357   3.452  18.276  0.00  0.00    +0.000 A 
ENDBRANCH  26  27
ENDBRANCH  23  26
ENDBRANCH   1  23
TORSDOF 9
ENDMDL
MODEL 4
REMARK VINA RESULT:      -8.2      3.803      7.190
REMARK  Name = 
REMARK  12 active torsions:
REMARK  status: ('A' for Active; 'I' for Inactive)
REMARK    1  A    between atoms: C_1  and  C_2
REMARK    2  A    between atoms: C_2  and  C_3
REMARK    3  A    between atoms: C_2  and  C_4
REMARK    4  A    between atoms: C_2  and  O_5
REMARK    5  A    between atoms: O_5  and  C_6
REMARK    6  A    between atoms: N_8  and  C_9
REMARK    7  A    between atoms: C_9  and  C_10
REMARK    8  A    between atoms: C_10  and  C_11
REMARK    9  A    between atoms: C_10  and  N_21
REMARK   10  A    between atoms: N_21  and  O_22
REMARK   11  A    between atoms: N_21  and  C_23
REMARK   12  A    between atoms: C_23  and  C_24
REMARK                            x       y       z     vdW  Elec       q    Type
REMARK                         _______ _______ _______ _____ _____    ______ ____
ROOT
ATOM      1  C   UNL     1       4.209   5.749  17.062  0.00  0.00    +0.000 C 
ENDROOT
BRANCH   1   2
ATOM      2  C   UNL     1       4.347   4.683  18.143  0.00  0.00    +0.000 A 
ATOM      3  C   UNL     1       5.477   3.918  18.400  0.00  0.00    +0.000 A 
ATOM      4  N   UNL     1       5.204   3.059  19.422  0.00  0.00    +0.000 N 
ATOM      5  C   UNL     1       3.916   3.230  19.855  0.00  0.00    +0.000 A 
ATOM      6  C   UNL     1       3.220   2.564  20.871  0.00  0.00    +0.000 A 
ATOM      7  C   UNL     1       1.898   2.948  21.101  0.00  0.00    +0.000 A 
ATOM      8 CL   UNL     1       1.000   2.152  22.337  0.00  0.00    +0.000 Cl
ATOM      9  C   UNL     1       1.299   3.957  20.355  0.00  0.00    +0.000 A 
ATOM     10  C   UNL     1       2.012   4.616  19.342  0.00  0.00    +0.000 A 
ATOM     11  C   UNL     1       3.350   4.247  19.079  0.00  0.00    +0.000 A 
ATOM     12  H   UNL     1       5.856   2.387  19.806  0.00  0.00    +0.000 HD
ENDBRANCH   1   2
BRANCH   1  13
ATOM     13  C   UNL     1       5.368   5.680  16.039  0.00  0.00    +0.000 C 
BRANCH  13  16
ATOM     14  C   UNL     1       6.506   4.239  14.504  0.00  0.00    +0.000 C 
ATOM     15  O   UNL     1       7.552   4.841  14.704  0.00  0.00    +0.000 OA
ATOM     16  N   UNL     1       5.323   4.596  15.082  0.00  0.00    +0.000 N 
ATOM     17  H   UNL     1       4.569   3.921  15.070  0.00  0.00    +0.000 HD
BRANCH  14  18
ATOM     18  O   UNL     1       6.356   3.145  13.722  0.00  0.00    +0.000 OA
BRANCH  18  20
ATOM     19  C   UNL     1       4.803   3.667  11.898  0.00  0.00    +0.000 C 
ATOM     20  C   UNL     1       6.255   3.355  12.289  0.00  0.00    +0.000 C 
ATOM     21  C   UNL     1       6.830   2.166  11.501  0.00  0.00    +0.000 C 
ATOM     22  C   UNL     1       7.109   4.594  11.979  0.00  0.00    +0.000 C 
ENDBRANCH  18  20
ENDBRANCH  14  18
ENDBRANCH  13  16
ENDBRANCH   1  13
BRANCH   1  23
ATOM     23  N   UNL     1       4.082   7.076  17.728  0.00  0.00    +0.000 NA
BRANCH  23  24
ATOM     24  O   UNL     1       5.245   7.866  17.325  0.00  0.00    +0.000 OA
ATOM     25  H   UNL     1       4.946   8.763  17.568  0.00  0.00    +0.000 HD
ENDBRANCH  23  24
BRANCH  23  26
ATOM     26  C   UNL     1       2.912   7.843  17.246  0.00  0.00    +0.000 C 
BRANCH  26  27
ATOM     27  C   UNL     1       2.071   8.396  18.374  0.00  0.00    +0.000 A 
ATOM     28  C   UNL     1       1.267   9.523  18.170  0.00  0.00    +0.000 A 
ATOM     29  C   UNL     1       0.516  10.061  19.219  0.00  0.00    +0.000 A 
ATOM     30  C   UNL     1       0.569   9.472  20.479  0.00  0.00    +0.000 A 
ATOM     31  C   UNL     1       1.358   8.342  20.691  0.00  0.00    +0.000 A 
ATOM     32  C   UNL     1       2.104   7.802  19.643  0.00  0.00    +0.000 A 
ENDBRANCH  26  27
ENDBRANCH  23  26
ENDBRANCH   1  23
TORSDOF 9
ENDMDL
MODEL 5
REMARK VINA RESULT:      -8.0      4.149      6.912
REMARK  Name = 
REMARK  12 active torsions:
REMARK  status: ('A' for Active; 'I' for Inactive)
REMARK    1  A    between atoms: C_1  and  C_2
REMARK    2  A    between atoms: C_2  and  C_3
REMARK    3  A    between atoms: C_2  and  C_4
REMARK    4  A    between atoms: C_2  and  O_5
REMARK    5  A    between atoms: O_5  and  C_6
REMARK    6  A    between atoms: N_8  and  C_9
REMARK    7  A    between atoms: C_9  and  C_10
REMARK    8  A    between atoms: C_10  and  C_11
REMARK    9  A    between atoms: C_10  and  N_21
REMARK   10  A    between atoms: N_21  and  O_22
REMARK   11  A    between atoms: N_21  and  C_23
REMARK   12  A    between atoms: C_23  and  C_24
REMARK                            x       y       z     vdW  Elec       q    Type
REMARK                         _______ _______ _______ _____ _____    ______ ____
ROOT
ATOM      1  C   UNL     1       2.600   7.672  18.838  0.00  0.00    +0.000 C 
ENDROOT
BRANCH   1   2
ATOM      2  C   UNL     1       1.576   8.793  18.970  0.00  0.00    +0.000 A 
ATOM      3  C   UNL     1       1.111   9.603  17.944  0.00  0.00    +0.000 A 
ATOM      4  N   UNL     1       0.227  10.503  18.459  0.00  0.00    +0.000 N 
ATOM      5  C   UNL     1       0.090  10.314  19.809  0.00  0.00    +0.000 A 
ATOM      6  C   UNL     1      -0.702  11.009  20.731  0.00  0.00    +0.000 A 
ATOM      7  C   UNL     1      -0.646  10.597  22.063  0.00  0.00    +0.000 A 
ATOM      8 CL   UNL     1      -1.600  11.425  23.235  0.00  0.00    +0.000 Cl
ATOM      9  C   UNL     1       0.160   9.535  22.457  0.00  0.00    +0.000 A 
ATOM     10  C   UNL     1       0.947   8.848  21.520  0.00  0.00    +0.000 A 
ATOM     11  C   UNL     1       0.917   9.244  20.164  0.00  0.00    +0.000 A 
ATOM     12  H   UNL     1      -0.259  11.212  17.925  0.00  0.00    +0.000 HD
ENDBRANCH   1   2
BRANCH   1  13
ATOM     13  C   UNL     1       3.374   7.758  17.501  0.00  0.00    +0.000 C 
BRANCH  13  16
ATOM     14  C   UNL     1       5.210   6.922  16.214  0.00  0.00    +0.000 C 
ATOM     15  O   UNL     1       4.639   7.241  15.179  0.00  0.00    +0.000 OA
ATOM     16  N   UNL     1       4.654   7.087  17.448  0.00  0.00    +0.000 N 
ATOM     17  H   UNL     1       5.266   7.034  18.253  0.00  0.00    +0.000 HD
BRANCH  14  18
ATOM     18  O   UNL     1       6.451   6.391  16.305  0.00  0.00    +0.000 OA
BRANCH  18  20
ATOM     19  C   UNL     1       5.188   4.291  16.252  0.00  0.00    +0.000 C 
ATOM     20  C   UNL     1       6.573   4.949  16.191  0.00  0.00    +0.000 C 
ATOM     21  C   UNL     1       7.539   4.377  17.243  0.00  0.00    +0.000 C 
ATOM     22  C   UNL     1       7.167   4.681  14.799  0.00  0.00    +0.000 C 
ENDBRANCH  18  20
ENDBRANCH  14  18
ENDBRANCH  13  16
ENDBRANCH   1  13
BRANCH   1  23
ATOM     23  N   UNL     1       1.899   6.372  19.036  0.00  0.00    +0.000 NA
BRANCH  23  24
ATOM     24  O   UNL     1       2.104   5.589  17.818  0.00  0.00    +0.000 OA
ATOM     25  H   UNL     1       3.078   5.506  17.820  0.00  0.00    +0.000 HD
ENDBRANCH  23  24
BRANCH  23  26
ATOM     26  C   UNL     1       2.500   5.562  20.119  0.00  0.00    +0.000 C 
BRANCH  26  27
ATOM     27  C   UNL     1       2.692   4.114  19.729  0.00  0.00    +0.000 A 
ATOM     28  C   UNL     1       3.979   3.582  19.600  0.00  0.00    +0.000 A 
ATOM     29  C   UNL     1       4.163   2.254  19.203  0.00  0.00    +0.000 A 
ATOM     30  C   UNL     1       3.056   1.454  18.934  0.00  0.00    +0.000 A 
ATOM     31  C   UNL     1       1.768   1.971  19.071  0.00  0.00    +0.000 A 
ATOM     32  C   UNL     1       1.584   3.295  19.472  0.00  0.00    +0.000 A 
ENDBRANCH  26  27
ENDBRANCH  23  26
ENDBRANCH   1  23
TORSDOF 9
ENDMDL
MODEL 6
REMARK VINA RESULT:      -7.8      3.934      7.114
REMARK  Name = 
REMARK  12 active torsions:
REMARK  status: ('A' for Active; 'I' for Inactive)
REMARK    1  A    between atoms: C_1  and  C_2
REMARK    2  A    between atoms: C_2  and  C_3
REMARK    3  A    between atoms: C_2  and  C_4
REMARK    4  A    between atoms: C_2  and  O_5
REMARK    5  A    between atoms: O_5  and  C_6
REMARK    6  A    between atoms: N_8  and  C_9
REMARK    7  A    between atoms: C_9  and  C_10
REMARK    8  A    between atoms: C_10  and  C_11
REMARK    9  A    between atoms: C_10  and  N_21
REMARK   10  A    between atoms: N_21  and  O_22
REMARK   11  A    between atoms: N_21  and  C_23
REMARK   12  A    between atoms: C_23  and  C_24
REMARK                            x       y       z     vdW  Elec       q    Type
REMARK                         _______ _______ _______ _____ _____    ______ ____
ROOT
ATOM      1  C   UNL     1       4.414   6.195  17.881  0.00  0.00    +0.000 C 
ENDROOT
BRANCH   1   2
ATOM      2  C   UNL     1       5.611   5.997  16.958  0.00  0.00    +0.000 A 
ATOM      3  C   UNL     1       6.873   6.549  17.124  0.00  0.00    +0.000 A 
ATOM      4  N   UNL     1       7.663   6.164  16.082  0.00  0.00    +0.000 N 
ATOM      5  C   UNL     1       6.957   5.367  15.221  0.00  0.00    +0.000 A 
ATOM      6  C   UNL     1       7.368   4.758  14.029  0.00  0.00    +0.000 A 
ATOM      7  C   UNL     1       6.426   3.988  13.344  0.00  0.00    +0.000 A 
ATOM      8 CL   UNL     1       6.884   3.224  11.869  0.00  0.00    +0.000 Cl
ATOM      9  C   UNL     1       5.134   3.828  13.830  0.00  0.00    +0.000 A 
ATOM     10  C   UNL     1       4.739   4.443  15.028  0.00  0.00    +0.000 A 
ATOM     11  C   UNL     1       5.666   5.234  15.742  0.00  0.00    +0.000 A 
ATOM     12  H   UNL     1       8.632   6.429  15.958  0.00  0.00    +0.000 HD
ENDBRANCH   1   2
BRANCH   1  13
ATOM     13  C   UNL     1       4.074   7.693  18.064  0.00  0.00    +0.000 C 
BRANCH  13  16
ATOM     14  C   UNL     1       1.855   8.383  18.633  0.00  0.00    +0.000 C 
ATOM     15  O   UNL     1       2.097   8.207  19.820  0.00  0.00    +0.000 OA
ATOM     16  N   UNL     1       2.755   8.114  17.645  0.00  0.00    +0.000 N 
ATOM     17  H   UNL     1       2.583   8.509  16.729  0.00  0.00    +0.000 HD
BRANCH  14  18
ATOM     18  O   UNL     1       0.703   8.876  18.122  0.00  0.00    +0.000 OA
BRANCH  18  20
ATOM     19  C   UNL     1       1.127  11.244  18.594  0.00  0.00    +0.000 C 
ATOM     20  C   UNL     1       0.151  10.069  18.740  0.00  0.00    +0.000 C 
ATOM     21  C   UNL     1      -0.245   9.816  20.204  0.00  0.00    +0.000 C 
ATOM     22  C   UNL     1      -1.123  10.406  17.950  0.00  0.00    +0.000 C 
ENDBRANCH  18  20
ENDBRANCH  14  18
ENDBRANCH  13  16
ENDBRANCH   1  13
BRANCH   1  23
ATOM     23  N   UNL     1       4.690   5.486  19.162  0.00  0.00    +0.000 NA
BRANCH  23  24
ATOM     24  O   UNL     1       3.619   5.853  20.088  0.00  0.00    +0.000 OA
ATOM     25  H   UNL     1       4.141   6.159  20.855  0.00  0.00    +0.000 HD
ENDBRANCH  23  24
BRANCH  23  26
ATOM     26  C   UNL     1       4.596   4.015  19.029  0.00  0.00    +0.000 C 
BRANCH  26  27
ATOM     27  C   UNL     1       3.197   3.494  19.267  0.00  0.00    +0.000 A 
ATOM     28  C   UNL     1       2.803   3.083  20.545  0.00  0.00    +0.000 A 
ATOM     29  C   UNL     1       1.522   2.566  20.763  0.00  0.00    +0.000 A 
ATOM     30  C   UNL     1       0.632   2.458  19.699  0.00  0.00    +0.000 A 
ATOM     31  C   UNL     1       1.010   2.876  18.423  0.00  0.00    +0.000 A 
ATOM     32  C   UNL     1       2.285   3.396  18.206  0.00  0.00    +0.000 A 
ENDBRANCH  26  27
ENDBRANCH  23  26
ENDBRANCH   1  23
TORSDOF 9
ENDMDL
MODEL 7
REMARK VINA RESULT:      -7.7      4.057      8.105
REMARK  Name = 
REMARK  12 active torsions:
REMARK  status: ('A' for Active; 'I' for Inactive)
REMARK    1  A    between atoms: C_1  and  C_2
REMARK    2  A    between atoms: C_2  and  C_3
REMARK    3  A    between atoms: C_2  and  C_4
REMARK    4  A    between atoms: C_2  and  O_5
REMARK    5  A    between atoms: O_5  and  C_6
REMARK    6  A    between atoms: N_8  and  C_9
REMARK    7  A    between atoms: C_9  and  C_10
REMARK    8  A    between atoms: C_10  and  C_11
REMARK    9  A    between atoms: C_10  and  N_21
REMARK   10  A    between atoms: N_21  and  O_22
REMARK   11  A    between atoms: N_21  and  C_23
REMARK   12  A    between atoms: C_23  and  C_24
REMARK                            x       y       z     vdW  Elec       q    Type
REMARK                         _______ _______ _______ _____ _____    ______ ____
ROOT
ATOM      1  C   UNL     1       5.126   5.203  18.417  0.00  0.00    +0.000 C 
ENDROOT
BRANCH   1   2
ATOM      2  C   UNL     1       6.101   5.521  17.289  0.00  0.00    +0.000 A 
ATOM      3  C   UNL     1       7.133   6.447  17.337  0.00  0.00    +0.000 A 
ATOM      4  N   UNL     1       7.765   6.466  16.129  0.00  0.00    +0.000 N 
ATOM      5  C   UNL     1       7.176   5.573  15.273  0.00  0.00    +0.000 A 
ATOM      6  C   UNL     1       7.494   5.270  13.943  0.00  0.00    +0.000 A 
ATOM      7  C   UNL     1       6.717   4.305  13.302  0.00  0.00    +0.000 A 
ATOM      8 CL   UNL     1       7.067   3.903  11.664  0.00  0.00    +0.000 Cl
ATOM      9  C   UNL     1       5.672   3.666  13.960  0.00  0.00    +0.000 A 
ATOM     10  C   UNL     1       5.368   3.980  15.293  0.00  0.00    +0.000 A 
ATOM     11  C   UNL     1       6.132   4.957  15.970  0.00  0.00    +0.000 A 
ATOM     12  H   UNL     1       8.553   7.055  15.894  0.00  0.00    +0.000 HD
ENDBRANCH   1   2
BRANCH   1  13
ATOM     13  C   UNL     1       4.995   3.679  18.647  0.00  0.00    +0.000 C 
BRANCH  13  16
ATOM     14  C   UNL     1       3.170   2.356  19.453  0.00  0.00    +0.000 C 
ATOM     15  O   UNL     1       2.942   1.966  18.315  0.00  0.00    +0.000 OA
ATOM     16  N   UNL     1       4.150   3.259  19.744  0.00  0.00    +0.000 N 
ATOM     17  H   UNL     1       4.441   3.346  20.709  0.00  0.00    +0.000 HD
BRANCH  14  18
ATOM     18  O   UNL     1       2.527   1.956  20.574  0.00  0.00    +0.000 OA
BRANCH  18  20
ATOM     19  C   UNL     1       0.554   3.365  20.213  0.00  0.00    +0.000 C 
ATOM     20  C   UNL     1       1.630   2.905  21.207  0.00  0.00    +0.000 C 
ATOM     21  C   UNL     1       2.398   4.086  21.825  0.00  0.00    +0.000 C 
ATOM     22  C   UNL     1       0.933   2.139  22.343  0.00  0.00    +0.000 C 
ENDBRANCH  18  20
ENDBRANCH  14  18
ENDBRANCH  13  16
ENDBRANCH   1  13
BRANCH   1  23
ATOM     23  N   UNL     1       3.829   5.873  18.116  0.00  0.00    +0.000 NA
BRANCH  23  24
ATOM     24  O   UNL     1       2.969   4.870  17.488  0.00  0.00    +0.000 OA
ATOM     25  H   UNL     1       2.206   4.882  18.097  0.00  0.00    +0.000 HD
ENDBRANCH  23  24
BRANCH  23  26
ATOM     26  C   UNL     1       3.106   6.286  19.340  0.00  0.00    +0.000 C 
BRANCH  26  27
ATOM     27  C   UNL     1       2.366   7.593  19.169  0.00  0.00    +0.000 A 
ATOM     28  C   UNL     1       1.593   8.110  20.214  0.00  0.00    +0.000 A 
ATOM     29  C   UNL     1       0.877   9.300  20.048  0.00  0.00    +0.000 A 
ATOM     30  C   UNL     1       0.931   9.974  18.832  0.00  0.00    +0.000 A 
ATOM     31  C   UNL     1       1.708   9.474  17.787  0.00  0.00    +0.000 A 
ATOM     32  C   UNL     1       2.426   8.290  17.954  0.00  0.00    +0.000 A 
ENDBRANCH  26  27
ENDBRANCH  23  26
ENDBRANCH   1  23
TORSDOF 9
ENDMDL
MODEL 8
REMARK VINA RESULT:      -7.7      3.932      7.047
REMARK  Name = 
REMARK  12 active torsions:
REMARK  status: ('A' for Active; 'I' for Inactive)
REMARK    1  A    between atoms: C_1  and  C_2
REMARK    2  A    between atoms: C_2  and  C_3
REMARK    3  A    between atoms: C_2  and  C_4
REMARK    4  A    between atoms: C_2  and  O_5
REMARK    5  A    between atoms: O_5  and  C_6
REMARK    6  A    between atoms: N_8  and  C_9
REMARK    7  A    between atoms: C_9  and  C_10
REMARK    8  A    between atoms: C_10  and  C_11
REMARK    9  A    between atoms: C_10  and  N_21
REMARK   10  A    between atoms: N_21  and  O_22
REMARK   11  A    between atoms: N_21  and  C_23
REMARK   12  A    between atoms: C_23  and  C_24
REMARK                            x       y       z     vdW  Elec       q    Type
REMARK                         _______ _______ _______ _____ _____    ______ ____
ROOT
ATOM      1  C   UNL     1       4.426   6.197  17.860  0.00  0.00    +0.000 C 
ENDROOT
BRANCH   1   2
ATOM      2  C   UNL     1       5.617   5.998  16.929  0.00  0.00    +0.000 A 
ATOM      3  C   UNL     1       6.877   6.559  17.081  0.00  0.00    +0.000 A 
ATOM      4  N   UNL     1       7.662   6.170  16.037  0.00  0.00    +0.000 N 
ATOM      5  C   UNL     1       6.953   5.362  15.187  0.00  0.00    +0.000 A 
ATOM      6  C   UNL     1       7.359   4.745  13.998  0.00  0.00    +0.000 A 
ATOM      7  C   UNL     1       6.417   3.964  13.327  0.00  0.00    +0.000 A 
ATOM      8 CL   UNL     1       6.868   3.190  11.855  0.00  0.00    +0.000 Cl
ATOM      9  C   UNL     1       5.129   3.800  13.824  0.00  0.00    +0.000 A 
ATOM     10  C   UNL     1       4.740   4.423  15.020  0.00  0.00    +0.000 A 
ATOM     11  C   UNL     1       5.668   5.226  15.720  0.00  0.00    +0.000 A 
ATOM     12  H   UNL     1       8.628   6.440  15.903  0.00  0.00    +0.000 HD
ENDBRANCH   1   2
BRANCH   1  13
ATOM     13  C   UNL     1       4.077   7.694  18.031  0.00  0.00    +0.000 C 
BRANCH  13  16
ATOM     14  C   UNL     1       1.855   8.357  18.620  0.00  0.00    +0.000 C 
ATOM     15  O   UNL     1       2.108   8.181  19.805  0.00  0.00    +0.000 OA
ATOM     16  N   UNL     1       2.750   8.101  17.624  0.00  0.00    +0.000 N 
ATOM     17  H   UNL     1       2.565   8.495  16.711  0.00  0.00    +0.000 HD
BRANCH  14  18
ATOM     18  O   UNL     1       0.693   8.838  18.120  0.00  0.00    +0.000 OA
BRANCH  18  20
ATOM     19  C   UNL     1      -0.163   9.805  20.204  0.00  0.00    +0.000 C 
ATOM     20  C   UNL     1       0.152  10.044  18.720  0.00  0.00    +0.000 C 
ATOM     21  C   UNL     1      -1.065  10.568  17.941  0.00  0.00    +0.000 C 
ATOM     22  C   UNL     1       1.267  11.099  18.634  0.00  0.00    +0.000 C 
ENDBRANCH  18  20
ENDBRANCH  14  18
ENDBRANCH  13  16
ENDBRANCH   1  13
BRANCH   1  23
ATOM     23  N   UNL     1       4.717   5.503  19.146  0.00  0.00    +0.000 NA
BRANCH  23  24
ATOM     24  O   UNL     1       3.641   5.856  20.071  0.00  0.00    +0.000 OA
ATOM     25  H   UNL     1       3.044   5.092  19.952  0.00  0.00    +0.000 HD
ENDBRANCH  23  24
BRANCH  23  26
ATOM     26  C   UNL     1       4.650   4.030  19.024  0.00  0.00    +0.000 C 
BRANCH  26  27
ATOM     27  C   UNL     1       3.250   3.490  19.211  0.00  0.00    +0.000 A 
ATOM     28  C   UNL     1       2.348   3.479  18.142  0.00  0.00    +0.000 A 
ATOM     29  C   UNL     1       1.041   3.015  18.319  0.00  0.00    +0.000 A 
ATOM     30  C   UNL     1       0.633   2.562  19.571  0.00  0.00    +0.000 A 
ATOM     31  C   UNL     1       1.528   2.557  20.640  0.00  0.00    +0.000 A 
ATOM     32  C   UNL     1       2.834   3.015  20.463  0.00  0.00    +0.000 A 
ENDBRANCH  26  27
ENDBRANCH  23  26
ENDBRANCH   1  23
TORSDOF 9
ENDMDL
MODEL 9
REMARK VINA RESULT:      -7.7      4.184      6.788
REMARK  Name = 
REMARK  12 active torsions:
REMARK  status: ('A' for Active; 'I' for Inactive)
REMARK    1  A    between atoms: C_1  and  C_2
REMARK    2  A    between atoms: C_2  and  C_3
REMARK    3  A    between atoms: C_2  and  C_4
REMARK    4  A    between atoms: C_2  and  O_5
REMARK    5  A    between atoms: O_5  and  C_6
REMARK    6  A    between atoms: N_8  and  C_9
REMARK    7  A    between atoms: C_9  and  C_10
REMARK    8  A    between atoms: C_10  and  C_11
REMARK    9  A    between atoms: C_10  and  N_21
REMARK   10  A    between atoms: N_21  and  O_22
REMARK   11  A    between atoms: N_21  and  C_23
REMARK   12  A    between atoms: C_23  and  C_24
REMARK                            x       y       z     vdW  Elec       q    Type
REMARK                         _______ _______ _______ _____ _____    ______ ____
ROOT
ATOM      1  C   UNL     1       2.556   7.704  18.800  0.00  0.00    +0.000 C 
ENDROOT
BRANCH   1   2
ATOM      2  C   UNL     1       1.600   8.881  18.960  0.00  0.00    +0.000 A 
ATOM      3  C   UNL     1       1.232   9.777  17.967  0.00  0.00    +0.000 A 
ATOM      4  N   UNL     1       0.385  10.702  18.500  0.00  0.00    +0.000 N 
ATOM      5  C   UNL     1       0.180  10.446  19.830  0.00  0.00    +0.000 A 
ATOM      6  C   UNL     1      -0.606  11.137  20.761  0.00  0.00    +0.000 A 
ATOM      7  C   UNL     1      -0.633  10.646  22.067  0.00  0.00    +0.000 A 
ATOM      8 CL   UNL     1      -1.580  11.467  23.249  0.00  0.00    +0.000 Cl
ATOM      9  C   UNL     1       0.088   9.513  22.428  0.00  0.00    +0.000 A 
ATOM     10  C   UNL     1       0.868   8.831  21.482  0.00  0.00    +0.000 A 
ATOM     11  C   UNL     1       0.921   9.305  20.152  0.00  0.00    +0.000 A 
ATOM     12  H   UNL     1      -0.032  11.471  17.991  0.00  0.00    +0.000 HD
ENDBRANCH   1   2
BRANCH   1  13
ATOM     13  C   UNL     1       3.270   7.728  17.427  0.00  0.00    +0.000 C 
BRANCH  13  16
ATOM     14  C   UNL     1       5.084   6.232  16.986  0.00  0.00    +0.000 C 
ATOM     15  O   UNL     1       4.292   5.353  16.672  0.00  0.00    +0.000 OA
ATOM     16  N   UNL     1       4.691   7.460  17.431  0.00  0.00    +0.000 N 
ATOM     17  H   UNL     1       5.378   8.203  17.435  0.00  0.00    +0.000 HD
BRANCH  14  18
ATOM     18  O   UNL     1       6.433   6.144  16.927  0.00  0.00    +0.000 OA
BRANCH  18  20
ATOM     19  C   UNL     1       6.129   5.390  19.240  0.00  0.00    +0.000 C 
ATOM     20  C   UNL     1       7.133   5.760  18.139  0.00  0.00    +0.000 C 
ATOM     21  C   UNL     1       8.121   6.849  18.591  0.00  0.00    +0.000 C 
ATOM     22  C   UNL     1       7.938   4.500  17.785  0.00  0.00    +0.000 C 
ENDBRANCH  18  20
ENDBRANCH  14  18
ENDBRANCH  13  16
ENDBRANCH   1  13
BRANCH   1  23
ATOM     23  N   UNL     1       1.796   6.447  19.053  0.00  0.00    +0.000 NA
BRANCH  23  24
ATOM     24  O   UNL     1       1.751   5.717  17.787  0.00  0.00    +0.000 OA
ATOM     25  H   UNL     1       0.803   5.801  17.565  0.00  0.00    +0.000 HD
ENDBRANCH  23  24
BRANCH  23  26
ATOM     26  C   UNL     1       2.494   5.542  19.994  0.00  0.00    +0.000 C 
BRANCH  26  27
ATOM     27  C   UNL     1       2.299   4.082  19.653  0.00  0.00    +0.000 A 
ATOM     28  C   UNL     1       3.394   3.285  19.304  0.00  0.00    +0.000 A 
ATOM     29  C   UNL     1       3.215   1.944  18.953  0.00  0.00    +0.000 A 
ATOM     30  C   UNL     1       1.936   1.397  18.949  0.00  0.00    +0.000 A 
ATOM     31  C   UNL     1       0.838   2.178  19.307  0.00  0.00    +0.000 A 
ATOM     32  C   UNL     1       1.017   3.515  19.663  0.00  0.00    +0.000 A 
ENDBRANCH  26  27
ENDBRANCH  23  26
ENDBRANCH   1  23
TORSDOF 9
ENDMDL
