MODEL 1
REMARK VINA RESULT:      -7.5      0.000      0.000
REMARK  Name = 
REMARK  8 active torsions:
REMARK  status: ('A' for Active; 'I' for Inactive)
REMARK    1  A    between atoms: C_1  and  C_2
REMARK    2  A    between atoms: C_2  and  O_3
REMARK    3  A    between atoms: O_3  and  C_4
REMARK    4  A    between atoms: C_4  and  C_6
REMARK    5  A    between atoms: C_17  and  C_18
REMARK    6  A    between atoms: C_22  and  O_23
REMARK    7  A    between atoms: C_26  and  C_28
REMARK    8  A    between atoms: C_28  and  C_29
REMARK                            x       y       z     vdW  Elec       q    Type
REMARK                         _______ _______ _______ _____ _____    ______ ____
ROOT
ATOM      1  C   UNL     1       2.062   7.779  18.098  0.00  0.00    +0.000 C 
ATOM      2  C   UNL     1       3.272   7.768  17.110  0.00  0.00    +0.000 C 
ATOM      3  C   UNL     1       4.156   6.606  17.325  0.00  0.00    +0.000 A 
ATOM      4  C   UNL     1       4.115   5.893  18.498  0.00  0.00    +0.000 A 
ATOM      5  N   UNL     1       5.070   4.912  18.422  0.00  0.00    +0.000 N 
ATOM      6  C   UNL     1       5.729   4.990  17.210  0.00  0.00    +0.000 A 
ATOM      7  C   UNL     1       6.770   4.207  16.701  0.00  0.00    +0.000 A 
ATOM      8  C   UNL     1       7.248   4.515  15.423  0.00  0.00    +0.000 A 
ATOM      9  C   UNL     1       6.701   5.565  14.686  0.00  0.00    +0.000 A 
ATOM     10  C   UNL     1       5.662   6.338  15.212  0.00  0.00    +0.000 A 
ATOM     11  C   UNL     1       5.164   6.048  16.498  0.00  0.00    +0.000 A 
ATOM     12  C   UNL     1       3.183   6.088  19.654  0.00  0.00    +0.000 C 
ATOM     13  N   UNL     1       2.439   7.375  19.499  0.00  0.00    +0.000 N 
ATOM     14  C   UNL     1       1.757   7.778  20.656  0.00  0.00    +0.000 C 
ATOM     15  O   UNL     1       1.873   7.172  21.724  0.00  0.00    +0.000 OA
ATOM     16  H   UNL     1       5.254   4.220  19.132  0.00  0.00    +0.000 HD
ENDROOT
BRANCH  12  17
ATOM     17  C   UNL     1       2.284   4.859  19.834  0.00  0.00    +0.000 A 
ATOM     18  C   UNL     1       1.497   4.406  18.759  0.00  0.00    +0.000 A 
ATOM     19  C   UNL     1       0.654   3.299  18.897  0.00  0.00    +0.000 A 
ATOM     20  C   UNL     1       0.584   2.621  20.112  0.00  0.00    +0.000 A 
ATOM     21  C   UNL     1       1.347   3.069  21.184  0.00  0.00    +0.000 A 
ATOM     22  C   UNL     1       2.179   4.177  21.058  0.00  0.00    +0.000 A 
BRANCH  21  23
ATOM     23  O   UNL     1       1.309   2.444  22.396  0.00  0.00    +0.000 OA
ATOM     24  H   UNL     1       0.416   2.085  22.529  0.00  0.00    +0.000 HD
ENDBRANCH  21  23
ENDBRANCH  12  17
BRANCH   1  25
ATOM     25  C   UNL     1       1.456   9.151  17.775  0.00  0.00    +0.000 C 
ATOM     26  O   UNL     1       2.051  10.211  17.664  0.00  0.00    +0.000 OA
BRANCH  25  27
ATOM     27  O   UNL     1       0.123   8.988  17.544  0.00  0.00    +0.000 OA
BRANCH  27  29
ATOM     28  C   UNL     1      -1.965   9.918  17.034  0.00  0.00    +0.000 C 
ATOM     29  C   UNL     1      -0.679  10.142  17.807  0.00  0.00    +0.000 C 
ENDBRANCH  27  29
ENDBRANCH  25  27
ENDBRANCH   1  25
BRANCH  14  30
ATOM     30  C   UNL     1       0.941   9.058  20.605  0.00  0.00    +0.000 C 
ATOM     31  C   UNL     1      -0.327   9.018  21.448  0.00  0.00    +0.000 C 
ENDBRANCH  14  30
TORSDOF 6
ENDMDL
MODEL 2
REMARK VINA RESULT:      -7.3      0.804      1.284
REMARK  Name = 
REMARK  8 active torsions:
REMARK  status: ('A' for Active; 'I' for Inactive)
REMARK    1  A    between atoms: C_1  and  C_2
REMARK    2  A    between atoms: C_2  and  O_3
REMARK    3  A    between atoms: O_3  and  C_4
REMARK    4  A    between atoms: C_4  and  C_6
REMARK    5  A    between atoms: C_17  and  C_18
REMARK    6  A    between atoms: C_22  and  O_23
REMARK    7  A    between atoms: C_26  and  C_28
REMARK    8  A    between atoms: C_28  and  C_29
REMARK                            x       y       z     vdW  Elec       q    Type
REMARK                         _______ _______ _______ _____ _____    ______ ____
ROOT
ATOM      1  C   UNL     1       1.940   7.794  18.145  0.00  0.00    +0.000 C 
ATOM      2  C   UNL     1       3.162   7.824  17.171  0.00  0.00    +0.000 C 
ATOM      3  C   UNL     1       4.082   6.692  17.397  0.00  0.00    +0.000 A 
ATOM      4  C   UNL     1       4.051   5.978  18.570  0.00  0.00    +0.000 A 
ATOM      5  N   UNL     1       5.039   5.030  18.506  0.00  0.00    +0.000 N 
ATOM      6  C   UNL     1       5.709   5.129  17.303  0.00  0.00    +0.000 A 
ATOM      7  C   UNL     1       6.782   4.382  16.806  0.00  0.00    +0.000 A 
ATOM      8  C   UNL     1       7.265   4.706  15.534  0.00  0.00    +0.000 A 
ATOM      9  C   UNL     1       6.692   5.737  14.790  0.00  0.00    +0.000 A 
ATOM     10  C   UNL     1       5.622   6.475  15.303  0.00  0.00    +0.000 A 
ATOM     11  C   UNL     1       5.118   6.168  16.583  0.00  0.00    +0.000 A 
ATOM     12  C   UNL     1       3.098   6.141  19.715  0.00  0.00    +0.000 C 
ATOM     13  N   UNL     1       2.314   7.403  19.550  0.00  0.00    +0.000 N 
ATOM     14  C   UNL     1       1.604   7.783  20.699  0.00  0.00    +0.000 C 
ATOM     15  O   UNL     1       1.728   7.181  21.769  0.00  0.00    +0.000 OA
ATOM     16  H   UNL     1       5.238   4.344  19.219  0.00  0.00    +0.000 HD
ENDROOT
BRANCH  12  17
ATOM     17  C   UNL     1       2.239   4.883  19.885  0.00  0.00    +0.000 A 
ATOM     18  C   UNL     1       1.481   4.404  18.800  0.00  0.00    +0.000 A 
ATOM     19  C   UNL     1       0.675   3.269  18.929  0.00  0.00    +0.000 A 
ATOM     20  C   UNL     1       0.612   2.589  20.143  0.00  0.00    +0.000 A 
ATOM     21  C   UNL     1       1.347   3.062  21.224  0.00  0.00    +0.000 A 
ATOM     22  C   UNL     1       2.143   4.198  21.107  0.00  0.00    +0.000 A 
BRANCH  21  23
ATOM     23  O   UNL     1       1.315   2.437  22.436  0.00  0.00    +0.000 OA
ATOM     24  H   UNL     1       1.252   3.114  23.130  0.00  0.00    +0.000 HD
ENDBRANCH  21  23
ENDBRANCH  12  17
BRANCH   1  25
ATOM     25  C   UNL     1       1.292   9.145  17.814  0.00  0.00    +0.000 C 
ATOM     26  O   UNL     1       0.119   9.354  17.552  0.00  0.00    +0.000 OA
BRANCH  25  27
ATOM     27  O   UNL     1       2.239  10.117  17.943  0.00  0.00    +0.000 OA
BRANCH  27  29
ATOM     28  C   UNL     1       2.681  12.416  17.945  0.00  0.00    +0.000 C 
ATOM     29  C   UNL     1       1.769  11.343  18.508  0.00  0.00    +0.000 C 
ENDBRANCH  27  29
ENDBRANCH  25  27
ENDBRANCH   1  25
BRANCH  14  30
ATOM     30  C   UNL     1       0.747   9.034  20.638  0.00  0.00    +0.000 C 
ATOM     31  C   UNL     1      -0.032   9.314  21.916  0.00  0.00    +0.000 C 
ENDBRANCH  14  30
TORSDOF 6
ENDMDL
MODEL 3
REMARK VINA RESULT:      -7.3      2.953      5.656
REMARK  Name = 
REMARK  8 active torsions:
REMARK  status: ('A' for Active; 'I' for Inactive)
REMARK    1  A    between atoms: C_1  and  C_2
REMARK    2  A    between atoms: C_2  and  O_3
REMARK    3  A    between atoms: O_3  and  C_4
REMARK    4  A    between atoms: C_4  and  C_6
REMARK    5  A    between atoms: C_17  and  C_18
REMARK    6  A    between atoms: C_22  and  O_23
REMARK    7  A    between atoms: C_26  and  C_28
REMARK    8  A    between atoms: C_28  and  C_29
REMARK                            x       y       z     vdW  Elec       q    Type
REMARK                         _______ _______ _______ _____ _____    ______ ____
ROOT
ATOM      1  C   UNL     1       4.012   4.113  17.303  0.00  0.00    +0.000 C 
ATOM      2  C   UNL     1       4.200   3.500  15.878  0.00  0.00    +0.000 C 
ATOM      3  C   UNL     1       5.181   4.254  15.073  0.00  0.00    +0.000 A 
ATOM      4  C   UNL     1       5.540   5.535  15.412  0.00  0.00    +0.000 A 
ATOM      5  N   UNL     1       6.423   5.985  14.464  0.00  0.00    +0.000 N 
ATOM      6  C   UNL     1       6.633   5.004  13.515  0.00  0.00    +0.000 A 
ATOM      7  C   UNL     1       7.440   5.016  12.372  0.00  0.00    +0.000 A 
ATOM      8  C   UNL     1       7.463   3.863  11.581  0.00  0.00    +0.000 A 
ATOM      9  C   UNL     1       6.707   2.742  11.924  0.00  0.00    +0.000 A 
ATOM     10  C   UNL     1       5.904   2.749  13.069  0.00  0.00    +0.000 A 
ATOM     11  C   UNL     1       5.864   3.900  13.881  0.00  0.00    +0.000 A 
ATOM     12  C   UNL     1       5.108   6.319  16.614  0.00  0.00    +0.000 C 
ATOM     13  N   UNL     1       3.978   5.619  17.299  0.00  0.00    +0.000 N 
ATOM     14  C   UNL     1       3.326   6.404  18.261  0.00  0.00    +0.000 C 
ATOM     15  O   UNL     1       3.599   7.596  18.422  0.00  0.00    +0.000 OA
ATOM     16  H   UNL     1       6.874   6.887  14.466  0.00  0.00    +0.000 HD
ENDROOT
BRANCH  12  17
ATOM     17  C   UNL     1       6.306   6.620  17.521  0.00  0.00    +0.000 A 
ATOM     18  C   UNL     1       7.072   7.781  17.304  0.00  0.00    +0.000 A 
ATOM     19  C   UNL     1       8.181   8.073  18.104  0.00  0.00    +0.000 A 
ATOM     20  C   UNL     1       8.545   7.213  19.138  0.00  0.00    +0.000 A 
ATOM     21  C   UNL     1       7.803   6.057  19.351  0.00  0.00    +0.000 A 
ATOM     22  C   UNL     1       6.704   5.753  18.552  0.00  0.00    +0.000 A 
BRANCH  21  23
ATOM     23  O   UNL     1       8.121   5.180  20.345  0.00  0.00    +0.000 OA
ATOM     24  H   UNL     1       8.194   5.673  21.179  0.00  0.00    +0.000 HD
ENDBRANCH  21  23
ENDBRANCH  12  17
BRANCH   1  25
ATOM     25  C   UNL     1       2.837   3.268  17.813  0.00  0.00    +0.000 C 
ATOM     26  O   UNL     1       1.758   3.103  17.268  0.00  0.00    +0.000 OA
BRANCH  25  27
ATOM     27  O   UNL     1       3.224   2.644  18.961  0.00  0.00    +0.000 OA
BRANCH  27  29
ATOM     28  C   UNL     1       2.432   2.779  21.160  0.00  0.00    +0.000 C 
ATOM     29  C   UNL     1       2.151   2.192  19.790  0.00  0.00    +0.000 C 
ENDBRANCH  27  29
ENDBRANCH  25  27
ENDBRANCH   1  25
BRANCH  14  30
ATOM     30  C   UNL     1       2.181   5.786  19.043  0.00  0.00    +0.000 C 
ATOM     31  C   UNL     1       1.917   6.453  20.386  0.00  0.00    +0.000 C 
ENDBRANCH  14  30
TORSDOF 6
ENDMDL
MODEL 4
REMARK VINA RESULT:      -7.3      0.826      1.213
REMARK  Name = 
REMARK  8 active torsions:
REMARK  status: ('A' for Active; 'I' for Inactive)
REMARK    1  A    between atoms: C_1  and  C_2
REMARK    2  A    between atoms: C_2  and  O_3
REMARK    3  A    between atoms: O_3  and  C_4
REMARK    4  A    between atoms: C_4  and  C_6
REMARK    5  A    between atoms: C_17  and  C_18
REMARK    6  A    between atoms: C_22  and  O_23
REMARK    7  A    between atoms: C_26  and  C_28
REMARK    8  A    between atoms: C_28  and  C_29
REMARK                            x       y       z     vdW  Elec       q    Type
REMARK                         _______ _______ _______ _____ _____    ______ ____
ROOT
ATOM      1  C   UNL     1       2.008   7.766  18.132  0.00  0.00    +0.000 C 
ATOM      2  C   UNL     1       3.190   7.727  17.111  0.00  0.00    +0.000 C 
ATOM      3  C   UNL     1       4.105   6.596  17.361  0.00  0.00    +0.000 A 
ATOM      4  C   UNL     1       4.113   5.946  18.570  0.00  0.00    +0.000 A 
ATOM      5  N   UNL     1       5.086   4.982  18.518  0.00  0.00    +0.000 N 
ATOM      6  C   UNL     1       5.709   5.008  17.286  0.00  0.00    +0.000 A 
ATOM      7  C   UNL     1       6.752   4.221  16.787  0.00  0.00    +0.000 A 
ATOM      8  C   UNL     1       7.188   4.470  15.482  0.00  0.00    +0.000 A 
ATOM      9  C   UNL     1       6.598   5.468  14.707  0.00  0.00    +0.000 A 
ATOM     10  C   UNL     1       5.557   6.247  15.222  0.00  0.00    +0.000 A 
ATOM     11  C   UNL     1       5.102   6.015  16.536  0.00  0.00    +0.000 A 
ATOM     12  C   UNL     1       3.209   6.182  19.742  0.00  0.00    +0.000 C 
ATOM     13  N   UNL     1       2.434   7.445  19.541  0.00  0.00    +0.000 N 
ATOM     14  C   UNL     1       1.775   7.894  20.695  0.00  0.00    +0.000 C 
ATOM     15  O   UNL     1       1.934   7.348  21.789  0.00  0.00    +0.000 OA
ATOM     16  H   UNL     1       5.305   4.331  19.258  0.00  0.00    +0.000 HD
ENDROOT
BRANCH  12  17
ATOM     17  C   UNL     1       2.343   4.947  20.012  0.00  0.00    +0.000 A 
ATOM     18  C   UNL     1       2.298   4.395  21.306  0.00  0.00    +0.000 A 
ATOM     19  C   UNL     1       1.531   3.259  21.580  0.00  0.00    +0.000 A 
ATOM     20  C   UNL     1       0.791   2.653  20.566  0.00  0.00    +0.000 A 
ATOM     21  C   UNL     1       0.840   3.182  19.282  0.00  0.00    +0.000 A 
ATOM     22  C   UNL     1       1.610   4.307  18.999  0.00  0.00    +0.000 A 
BRANCH  21  23
ATOM     23  O   UNL     1       0.140   2.623  18.254  0.00  0.00    +0.000 OA
ATOM     24  H   UNL     1       0.127   3.251  17.513  0.00  0.00    +0.000 HD
ENDBRANCH  21  23
ENDBRANCH  12  17
BRANCH   1  25
ATOM     25  C   UNL     1       1.364   9.106  17.756  0.00  0.00    +0.000 C 
ATOM     26  O   UNL     1       1.933  10.170  17.571  0.00  0.00    +0.000 OA
BRANCH  25  27
ATOM     27  O   UNL     1       0.029   8.904  17.573  0.00  0.00    +0.000 OA
BRANCH  27  29
ATOM     28  C   UNL     1      -2.025   9.833  16.938  0.00  0.00    +0.000 C 
ATOM     29  C   UNL     1      -0.789  10.057  17.789  0.00  0.00    +0.000 C 
ENDBRANCH  27  29
ENDBRANCH  25  27
ENDBRANCH   1  25
BRANCH  14  30
ATOM     30  C   UNL     1       0.931   9.153  20.601  0.00  0.00    +0.000 C 
ATOM     31  C   UNL     1      -0.345   9.106  21.431  0.00  0.00    +0.000 C 
ENDBRANCH  14  30
TORSDOF 6
ENDMDL
MODEL 5
REMARK VINA RESULT:      -7.2      1.123      1.748
REMARK  Name = 
REMARK  8 active torsions:
REMARK  status: ('A' for Active; 'I' for Inactive)
REMARK    1  A    between atoms: C_1  and  C_2
REMARK    2  A    between atoms: C_2  and  O_3
REMARK    3  A    between atoms: O_3  and  C_4
REMARK    4  A    between atoms: C_4  and  C_6
REMARK    5  A    between atoms: C_17  and  C_18
REMARK    6  A    between atoms: C_22  and  O_23
REMARK    7  A    between atoms: C_26  and  C_28
REMARK    8  A    between atoms: C_28  and  C_29
REMARK                            x       y       z     vdW  Elec       q    Type
REMARK                         _______ _______ _______ _____ _____    ______ ____
ROOT
ATOM      1  C   UNL     1       1.906   7.731  18.175  0.00  0.00    +0.000 C 
ATOM      2  C   UNL     1       3.098   7.732  17.165  0.00  0.00    +0.000 C 
ATOM      3  C   UNL     1       4.053   6.638  17.430  0.00  0.00    +0.000 A 
ATOM      4  C   UNL     1       4.073   5.995  18.643  0.00  0.00    +0.000 A 
ATOM      5  N   UNL     1       5.084   5.068  18.605  0.00  0.00    +0.000 N 
ATOM      6  C   UNL     1       5.716   5.112  17.378  0.00  0.00    +0.000 A 
ATOM      7  C   UNL     1       6.794   4.363  16.894  0.00  0.00    +0.000 A 
ATOM      8  C   UNL     1       7.231   4.622  15.591  0.00  0.00    +0.000 A 
ATOM      9  C   UNL     1       6.611   5.593  14.805  0.00  0.00    +0.000 A 
ATOM     10  C   UNL     1       5.537   6.334  15.307  0.00  0.00    +0.000 A 
ATOM     11  C   UNL     1       5.078   6.092  16.617  0.00  0.00    +0.000 A 
ATOM     12  C   UNL     1       3.150   6.203  19.805  0.00  0.00    +0.000 C 
ATOM     13  N   UNL     1       2.329   7.433  19.590  0.00  0.00    +0.000 N 
ATOM     14  C   UNL     1       1.644   7.863  20.735  0.00  0.00    +0.000 C 
ATOM     15  O   UNL     1       1.813   7.330  21.834  0.00  0.00    +0.000 OA
ATOM     16  H   UNL     1       5.320   4.431  19.350  0.00  0.00    +0.000 HD
ENDROOT
BRANCH  12  17
ATOM     17  C   UNL     1       2.329   4.937  20.074  0.00  0.00    +0.000 A 
ATOM     18  C   UNL     1       2.331   4.363  21.359  0.00  0.00    +0.000 A 
ATOM     19  C   UNL     1       1.606   3.199  21.631  0.00  0.00    +0.000 A 
ATOM     20  C   UNL     1       0.863   2.586  20.624  0.00  0.00    +0.000 A 
ATOM     21  C   UNL     1       0.866   3.138  19.348  0.00  0.00    +0.000 A 
ATOM     22  C   UNL     1       1.594   4.290  19.067  0.00  0.00    +0.000 A 
BRANCH  21  23
ATOM     23  O   UNL     1       0.160   2.573  18.327  0.00  0.00    +0.000 OA
ATOM     24  H   UNL     1       0.127   1.612  18.470  0.00  0.00    +0.000 HD
ENDBRANCH  21  23
ENDBRANCH  12  17
BRANCH   1  25
ATOM     25  C   UNL     1       1.214   9.044  17.786  0.00  0.00    +0.000 C 
ATOM     26  O   UNL     1       0.030   9.208  17.543  0.00  0.00    +0.000 OA
BRANCH  25  27
ATOM     27  O   UNL     1       2.137  10.045  17.834  0.00  0.00    +0.000 OA
BRANCH  27  29
ATOM     28  C   UNL     1       2.663  12.322  17.983  0.00  0.00    +0.000 C 
ATOM     29  C   UNL     1       1.676  11.260  18.430  0.00  0.00    +0.000 C 
ENDBRANCH  27  29
ENDBRANCH  25  27
ENDBRANCH   1  25
BRANCH  14  30
ATOM     30  C   UNL     1       0.753   9.088  20.627  0.00  0.00    +0.000 C 
ATOM     31  C   UNL     1      -0.178   9.284  21.815  0.00  0.00    +0.000 C 
ENDBRANCH  14  30
TORSDOF 6
ENDMDL
MODEL 6
REMARK VINA RESULT:      -6.8      3.030      5.977
REMARK  Name = 
REMARK  8 active torsions:
REMARK  status: ('A' for Active; 'I' for Inactive)
REMARK    1  A    between atoms: C_1  and  C_2
REMARK    2  A    between atoms: C_2  and  O_3
REMARK    3  A    between atoms: O_3  and  C_4
REMARK    4  A    between atoms: C_4  and  C_6
REMARK    5  A    between atoms: C_17  and  C_18
REMARK    6  A    between atoms: C_22  and  O_23
REMARK    7  A    between atoms: C_26  and  C_28
REMARK    8  A    between atoms: C_28  and  C_29
REMARK                            x       y       z     vdW  Elec       q    Type
REMARK                         _______ _______ _______ _____ _____    ______ ____
ROOT
ATOM      1  C   UNL     1       4.097   3.904  17.220  0.00  0.00    +0.000 C 
ATOM      2  C   UNL     1       4.287   3.332  15.779  0.00  0.00    +0.000 C 
ATOM      3  C   UNL     1       5.232   4.137  14.980  0.00  0.00    +0.000 A 
ATOM      4  C   UNL     1       5.553   5.421  15.346  0.00  0.00    +0.000 A 
ATOM      5  N   UNL     1       6.409   5.922  14.399  0.00  0.00    +0.000 N 
ATOM      6  C   UNL     1       6.639   4.972  13.424  0.00  0.00    +0.000 A 
ATOM      7  C   UNL     1       7.431   5.038  12.272  0.00  0.00    +0.000 A 
ATOM      8  C   UNL     1       7.481   3.905  11.453  0.00  0.00    +0.000 A 
ATOM      9  C   UNL     1       6.768   2.752  11.779  0.00  0.00    +0.000 A 
ATOM     10  C   UNL     1       5.979   2.705  12.933  0.00  0.00    +0.000 A 
ATOM     11  C   UNL     1       5.912   3.834  13.773  0.00  0.00    +0.000 A 
ATOM     12  C   UNL     1       5.110   6.161  16.571  0.00  0.00    +0.000 C 
ATOM     13  N   UNL     1       4.013   5.408  17.253  0.00  0.00    +0.000 N 
ATOM     14  C   UNL     1       3.347   6.148  18.241  0.00  0.00    +0.000 C 
ATOM     15  O   UNL     1       3.582   7.344  18.428  0.00  0.00    +0.000 OA
ATOM     16  H   UNL     1       6.829   6.839  14.417  0.00  0.00    +0.000 HD
ENDROOT
BRANCH  12  17
ATOM     17  C   UNL     1       6.308   6.481  17.471  0.00  0.00    +0.000 A 
ATOM     18  C   UNL     1       6.761   5.522  18.397  0.00  0.00    +0.000 A 
ATOM     19  C   UNL     1       7.841   5.791  19.244  0.00  0.00    +0.000 A 
ATOM     20  C   UNL     1       8.492   7.021  19.179  0.00  0.00    +0.000 A 
ATOM     21  C   UNL     1       8.044   7.979  18.277  0.00  0.00    +0.000 A 
ATOM     22  C   UNL     1       6.962   7.723  17.440  0.00  0.00    +0.000 A 
BRANCH  21  23
ATOM     23  O   UNL     1       8.642   9.200  18.180  0.00  0.00    +0.000 OA
ATOM     24  H   UNL     1       9.344   9.253  18.850  0.00  0.00    +0.000 HD
ENDBRANCH  21  23
ENDBRANCH  12  17
BRANCH   1  25
ATOM     25  C   UNL     1       2.958   3.009  17.723  0.00  0.00    +0.000 C 
ATOM     26  O   UNL     1       1.784   3.053  17.391  0.00  0.00    +0.000 OA
BRANCH  25  27
ATOM     27  O   UNL     1       3.486   2.073  18.562  0.00  0.00    +0.000 OA
BRANCH  27  29
ATOM     28  C   UNL     1       3.228   2.575  20.835  0.00  0.00    +0.000 C 
ATOM     29  C   UNL     1       4.208   2.604  19.676  0.00  0.00    +0.000 C 
ENDBRANCH  27  29
ENDBRANCH  25  27
ENDBRANCH   1  25
BRANCH  14  30
ATOM     30  C   UNL     1       2.233   5.473  19.022  0.00  0.00    +0.000 C 
ATOM     31  C   UNL     1       1.963   6.100  20.383  0.00  0.00    +0.000 C 
ENDBRANCH  14  30
TORSDOF 6
ENDMDL
MODEL 7
REMARK VINA RESULT:      -6.6      4.316      8.367
REMARK  Name = 
REMARK  8 active torsions:
REMARK  status: ('A' for Active; 'I' for Inactive)
REMARK    1  A    between atoms: C_1  and  C_2
REMARK    2  A    between atoms: C_2  and  O_3
REMARK    3  A    between atoms: O_3  and  C_4
REMARK    4  A    between atoms: C_4  and  C_6
REMARK    5  A    between atoms: C_17  and  C_18
REMARK    6  A    between atoms: C_22  and  O_23
REMARK    7  A    between atoms: C_26  and  C_28
REMARK    8  A    between atoms: C_28  and  C_29
REMARK                            x       y       z     vdW  Elec       q    Type
REMARK                         _______ _______ _______ _____ _____    ______ ____
ROOT
ATOM      1  C   UNL     1       0.297  13.178  20.518  0.00  0.00    +0.000 C 
ATOM      2  C   UNL     1      -1.239  13.405  20.339  0.00  0.00    +0.000 C 
ATOM      3  C   UNL     1      -1.846  12.415  19.428  0.00  0.00    +0.000 A 
ATOM      4  C   UNL     1      -1.072  11.681  18.563  0.00  0.00    +0.000 A 
ATOM      5  N   UNL     1      -1.911  10.888  17.824  0.00  0.00    +0.000 N 
ATOM      6  C   UNL     1      -3.221  11.108  18.203  0.00  0.00    +0.000 A 
ATOM      7  C   UNL     1      -4.404  10.536  17.725  0.00  0.00    +0.000 A 
ATOM      8  C   UNL     1      -5.607  10.952  18.305  0.00  0.00    +0.000 A 
ATOM      9  C   UNL     1      -5.621  11.903  19.324  0.00  0.00    +0.000 A 
ATOM     10  C   UNL     1      -4.429  12.466  19.788  0.00  0.00    +0.000 A 
ATOM     11  C   UNL     1      -3.204  12.064  19.218  0.00  0.00    +0.000 A 
ATOM     12  C   UNL     1       0.422  11.680  18.448  0.00  0.00    +0.000 C 
ATOM     13  N   UNL     1       0.994  12.818  19.232  0.00  0.00    +0.000 N 
ATOM     14  C   UNL     1       2.348  13.067  18.962  0.00  0.00    +0.000 C 
ATOM     15  O   UNL     1       2.955  12.468  18.071  0.00  0.00    +0.000 OA
ATOM     16  H   UNL     1      -1.621  10.224  17.122  0.00  0.00    +0.000 HD
ENDROOT
BRANCH  12  17
ATOM     17  C   UNL     1       0.991  10.308  18.823  0.00  0.00    +0.000 A 
ATOM     18  C   UNL     1       1.538   9.481  17.823  0.00  0.00    +0.000 A 
ATOM     19  C   UNL     1       2.048   8.217  18.131  0.00  0.00    +0.000 A 
ATOM     20  C   UNL     1       2.026   7.754  19.445  0.00  0.00    +0.000 A 
ATOM     21  C   UNL     1       1.475   8.557  20.438  0.00  0.00    +0.000 A 
ATOM     22  C   UNL     1       0.955   9.812  20.137  0.00  0.00    +0.000 A 
BRANCH  21  23
ATOM     23  O   UNL     1       1.423   8.148  21.738  0.00  0.00    +0.000 OA
ATOM     24  H   UNL     1       1.974   7.353  21.832  0.00  0.00    +0.000 HD
ENDBRANCH  21  23
ENDBRANCH  12  17
BRANCH   1  25
ATOM     25  C   UNL     1       0.667  14.426  21.329  0.00  0.00    +0.000 C 
ATOM     26  O   UNL     1       1.357  14.473  22.334  0.00  0.00    +0.000 OA
BRANCH  25  27
ATOM     27  O   UNL     1       0.159  15.518  20.690  0.00  0.00    +0.000 OA
BRANCH  27  29
ATOM     28  C   UNL     1      -0.507  17.606  21.515  0.00  0.00    +0.000 C 
ATOM     29  C   UNL     1       0.697  16.770  21.122  0.00  0.00    +0.000 C 
ENDBRANCH  27  29
ENDBRANCH  25  27
ENDBRANCH   1  25
BRANCH  14  30
ATOM     30  C   UNL     1       3.043  14.181  19.725  0.00  0.00    +0.000 C 
ATOM     31  C   UNL     1       3.511  15.333  18.846  0.00  0.00    +0.000 C 
ENDBRANCH  14  30
TORSDOF 6
ENDMDL
MODEL 8
REMARK VINA RESULT:      -6.5      9.028     11.851
REMARK  Name = 
REMARK  8 active torsions:
REMARK  status: ('A' for Active; 'I' for Inactive)
REMARK    1  A    between atoms: C_1  and  C_2
REMARK    2  A    between atoms: C_2  and  O_3
REMARK    3  A    between atoms: O_3  and  C_4
REMARK    4  A    between atoms: C_4  and  C_6
REMARK    5  A    between atoms: C_17  and  C_18
REMARK    6  A    between atoms: C_22  and  O_23
REMARK    7  A    between atoms: C_26  and  C_28
REMARK    8  A    between atoms: C_28  and  C_29
REMARK                            x       y       z     vdW  Elec       q    Type
REMARK                         _______ _______ _______ _____ _____    ______ ____
ROOT
ATOM      1  C   UNL     1      10.000  12.701  20.084  0.00  0.00    +0.000 C 
ATOM      2  C   UNL     1       9.870  12.260  21.578  0.00  0.00    +0.000 C 
ATOM      3  C   UNL     1       8.979  13.152  22.346  0.00  0.00    +0.000 A 
ATOM      4  C   UNL     1       8.664  14.406  21.884  0.00  0.00    +0.000 A 
ATOM      5  N   UNL     1       7.864  15.006  22.823  0.00  0.00    +0.000 N 
ATOM      6  C   UNL     1       7.665  14.149  23.888  0.00  0.00    +0.000 A 
ATOM      7  C   UNL     1       6.932  14.332  25.065  0.00  0.00    +0.000 A 
ATOM      8  C   UNL     1       6.902  13.276  25.982  0.00  0.00    +0.000 A 
ATOM      9  C   UNL     1       7.578  12.084  25.726  0.00  0.00    +0.000 A 
ATOM     10  C   UNL     1       8.308  11.919  24.545  0.00  0.00    +0.000 A 
ATOM     11  C   UNL     1       8.355  12.970  23.606  0.00  0.00    +0.000 A 
ATOM     12  C   UNL     1       9.059  15.027  20.579  0.00  0.00    +0.000 C 
ATOM     13  N   UNL     1      10.108  14.194  19.916  0.00  0.00    +0.000 N 
ATOM     14  C   UNL     1      10.738  14.831  18.836  0.00  0.00    +0.000 C 
ATOM     15  O   UNL     1      10.515  16.011  18.557  0.00  0.00    +0.000 OA
ATOM     16  H   UNL     1       7.460  15.926  22.744  0.00  0.00    +0.000 HD
ENDROOT
BRANCH  12  17
ATOM     17  C   UNL     1       7.824  15.293  19.713  0.00  0.00    +0.000 A 
ATOM     18  C   UNL     1       7.441  14.355  18.735  0.00  0.00    +0.000 A 
ATOM     19  C   UNL     1       6.329  14.577  17.918  0.00  0.00    +0.000 A 
ATOM     20  C   UNL     1       5.575  15.740  18.062  0.00  0.00    +0.000 A 
ATOM     21  C   UNL     1       5.953  16.678  19.015  0.00  0.00    +0.000 A 
ATOM     22  C   UNL     1       7.065  16.470  19.825  0.00  0.00    +0.000 A 
BRANCH  21  23
ATOM     23  O   UNL     1       5.253  17.835  19.192  0.00  0.00    +0.000 OA
ATOM     24  H   UNL     1       4.425  17.774  18.686  0.00  0.00    +0.000 HD
ENDBRANCH  21  23
ENDBRANCH  12  17
BRANCH   1  25
ATOM     25  C   UNL     1      11.097  11.740  19.609  0.00  0.00    +0.000 C 
ATOM     26  O   UNL     1      12.190  11.559  20.122  0.00  0.00    +0.000 OA
BRANCH  25  27
ATOM     27  O   UNL     1      10.621  11.040  18.541  0.00  0.00    +0.000 OA
BRANCH  27  29
ATOM     28  C   UNL     1       8.693   9.722  18.366  0.00  0.00    +0.000 C 
ATOM     29  C   UNL     1       9.211  11.148  18.332  0.00  0.00    +0.000 C 
ENDBRANCH  27  29
ENDBRANCH  25  27
ENDBRANCH   1  25
BRANCH  14  30
ATOM     30  C   UNL     1      11.800  14.066  18.066  0.00  0.00    +0.000 C 
ATOM     31  C   UNL     1      11.434  13.790  16.615  0.00  0.00    +0.000 C 
ENDBRANCH  14  30
TORSDOF 6
ENDMDL
MODEL 9
REMARK VINA RESULT:      -6.4      9.122     11.888
REMARK  Name = 
REMARK  8 active torsions:
REMARK  status: ('A' for Active; 'I' for Inactive)
REMARK    1  A    between atoms: C_1  and  C_2
REMARK    2  A    between atoms: C_2  and  O_3
REMARK    3  A    between atoms: O_3  and  C_4
REMARK    4  A    between atoms: C_4  and  C_6
REMARK    5  A    between atoms: C_17  and  C_18
REMARK    6  A    between atoms: C_22  and  O_23
REMARK    7  A    between atoms: C_26  and  C_28
REMARK    8  A    between atoms: C_28  and  C_29
REMARK                            x       y       z     vdW  Elec       q    Type
REMARK                         _______ _______ _______ _____ _____    ______ ____
ROOT
ATOM      1  C   UNL     1      10.031  12.820  20.112  0.00  0.00    +0.000 C 
ATOM      2  C   UNL     1       9.857  12.279  21.568  0.00  0.00    +0.000 C 
ATOM      3  C   UNL     1       9.014  13.166  22.394  0.00  0.00    +0.000 A 
ATOM      4  C   UNL     1       8.782  14.468  22.025  0.00  0.00    +0.000 A 
ATOM      5  N   UNL     1       8.010  15.045  23.001  0.00  0.00    +0.000 N 
ATOM      6  C   UNL     1       7.746  14.126  23.997  0.00  0.00    +0.000 A 
ATOM      7  C   UNL     1       7.012  14.267  25.179  0.00  0.00    +0.000 A 
ATOM      8  C   UNL     1       6.905  13.150  26.014  0.00  0.00    +0.000 A 
ATOM      9  C   UNL     1       7.509  11.940  25.674  0.00  0.00    +0.000 A 
ATOM     10  C   UNL     1       8.241  11.818  24.490  0.00  0.00    +0.000 A 
ATOM     11  C   UNL     1       8.364  12.930  23.633  0.00  0.00    +0.000 A 
ATOM     12  C   UNL     1       9.231  15.158  20.774  0.00  0.00    +0.000 C 
ATOM     13  N   UNL     1      10.234  14.312  20.057  0.00  0.00    +0.000 N 
ATOM     14  C   UNL     1      10.915  14.986  19.033  0.00  0.00    +0.000 C 
ATOM     15  O   UNL     1      10.769  16.196  18.841  0.00  0.00    +0.000 OA
ATOM     16  H   UNL     1       7.665  15.993  22.988  0.00  0.00    +0.000 HD
ENDROOT
BRANCH  12  17
ATOM     17  C   UNL     1       8.025  15.565  19.920  0.00  0.00    +0.000 A 
ATOM     18  C   UNL     1       7.574  16.898  19.938  0.00  0.00    +0.000 A 
ATOM     19  C   UNL     1       6.466  17.296  19.184  0.00  0.00    +0.000 A 
ATOM     20  C   UNL     1       5.788  16.370  18.395  0.00  0.00    +0.000 A 
ATOM     21  C   UNL     1       6.217  15.048  18.381  0.00  0.00    +0.000 A 
ATOM     22  C   UNL     1       7.312  14.641  19.138  0.00  0.00    +0.000 A 
BRANCH  21  23
ATOM     23  O   UNL     1       5.584  14.101  17.630  0.00  0.00    +0.000 OA
ATOM     24  H   UNL     1       4.850  14.526  17.155  0.00  0.00    +0.000 HD
ENDBRANCH  21  23
ENDBRANCH  12  17
BRANCH   1  25
ATOM     25  C   UNL     1      11.072  11.831  19.574  0.00  0.00    +0.000 C 
ATOM     26  O   UNL     1      12.145  11.543  20.080  0.00  0.00    +0.000 OA
BRANCH  25  27
ATOM     27  O   UNL     1      10.566  11.242  18.454  0.00  0.00    +0.000 OA
BRANCH  27  29
ATOM     28  C   UNL     1       8.708   9.821  18.347  0.00  0.00    +0.000 C 
ATOM     29  C   UNL     1       9.140  11.275  18.350  0.00  0.00    +0.000 C 
ENDBRANCH  27  29
ENDBRANCH  25  27
ENDBRANCH   1  25
BRANCH  14  30
ATOM     30  C   UNL     1      11.937  14.216  18.215  0.00  0.00    +0.000 C 
ATOM     31  C   UNL     1      11.569  14.068  16.745  0.00  0.00    +0.000 C 
ENDBRANCH  14  30
TORSDOF 6
ENDMDL
