MODEL 1
REMARK VINA RESULT:      -6.8      0.000      0.000
REMARK  Name = 
REMARK  7 active torsions:
REMARK  status: ('A' for Active; 'I' for Inactive)
REMARK    1  A    between atoms: C_1  and  C_2
REMARK    2  A    between atoms: N_4  and  C_5
REMARK    3  A    between atoms: N_4  and  C_6
REMARK    4  A    between atoms: C_6  and  C_7
REMARK    5  A    between atoms: C_6  and  C_8
REMARK    6  A    between atoms: N_10  and  C_11
REMARK    7  A    between atoms: C_11  and  C_12
REMARK                            x       y       z     vdW  Elec       q    Type
REMARK                         _______ _______ _______ _____ _____    ______ ____
ROOT
ATOM      1  C   UNL     1       5.681   4.602  18.825  0.00  0.00    +0.000 C 
ATOM      2  O   UNL     1       5.203   5.408  19.628  0.00  0.00    +0.000 OA
ATOM      3  N   UNL     1       5.408   3.250  18.905  0.00  0.00    +0.000 N 
ATOM      4  H   UNL     1       6.010   2.633  18.379  0.00  0.00    +0.000 HD
ENDROOT
BRANCH   1   5
ATOM      5  C   UNL     1       6.415   5.074  17.550  0.00  0.00    +0.000 C 
ATOM      6  C   UNL     1       6.624   6.588  17.646  0.00  0.00    +0.000 C 
BRANCH   5  10
ATOM      7  C   UNL     1       5.994   4.123  13.853  0.00  0.00    +0.000 C 
ATOM      8  C   UNL     1       6.610   4.543  15.164  0.00  0.00    +0.000 C 
ATOM      9  O   UNL     1       7.818   4.773  15.221  0.00  0.00    +0.000 OA
ATOM     10  N   UNL     1       5.778   4.635  16.276  0.00  0.00    +0.000 N 
ATOM     11  C   UNL     1       4.340   4.372  16.245  0.00  0.00    +0.000 C 
ENDBRANCH   5  10
ENDBRANCH   1   5
BRANCH   3  12
ATOM     12  C   UNL     1       4.734   2.704  20.060  0.00  0.00    +0.000 C 
BRANCH  12  13
ATOM     13  C   UNL     1       3.238   2.798  19.929  0.00  0.00    +0.000 A 
ATOM     14  C   UNL     1       2.579   2.255  18.817  0.00  0.00    +0.000 A 
ATOM     15  C   UNL     1       1.187   2.317  18.720  0.00  0.00    +0.000 A 
ATOM     16  C   UNL     1       0.442   2.928  19.726  0.00  0.00    +0.000 A 
ATOM     17  C   UNL     1       1.085   3.484  20.829  0.00  0.00    +0.000 A 
ATOM     18  C   UNL     1       2.478   3.426  20.927  0.00  0.00    +0.000 A 
ENDBRANCH  12  13
ENDBRANCH   3  12
TORSDOF 4
ENDMDL
MODEL 2
REMARK VINA RESULT:      -6.8      1.295      1.377
REMARK  Name = 
REMARK  7 active torsions:
REMARK  status: ('A' for Active; 'I' for Inactive)
REMARK    1  A    between atoms: C_1  and  C_2
REMARK    2  A    between atoms: N_4  and  C_5
REMARK    3  A    between atoms: N_4  and  C_6
REMARK    4  A    between atoms: C_6  and  C_7
REMARK    5  A    between atoms: C_6  and  C_8
REMARK    6  A    between atoms: N_10  and  C_11
REMARK    7  A    between atoms: C_11  and  C_12
REMARK                            x       y       z     vdW  Elec       q    Type
REMARK                         _______ _______ _______ _____ _____    ______ ____
ROOT
ATOM      1  C   UNL     1       5.714   5.162  18.473  0.00  0.00    +0.000 C 
ATOM      2  O   UNL     1       6.279   4.502  19.349  0.00  0.00    +0.000 OA
ATOM      3  N   UNL     1       4.508   5.796  18.707  0.00  0.00    +0.000 N 
ATOM      4  H   UNL     1       3.994   6.107  17.896  0.00  0.00    +0.000 HD
ENDROOT
BRANCH   1   5
ATOM      5  C   UNL     1       6.424   5.517  17.148  0.00  0.00    +0.000 C 
ATOM      6  C   UNL     1       6.285   7.025  16.915  0.00  0.00    +0.000 C 
BRANCH   5  10
ATOM      7  C   UNL     1       6.394   3.954  13.640  0.00  0.00    +0.000 C 
ATOM      8  C   UNL     1       6.801   4.763  14.845  0.00  0.00    +0.000 C 
ATOM      9  O   UNL     1       7.825   5.446  14.800  0.00  0.00    +0.000 OA
ATOM     10  N   UNL     1       6.004   4.688  15.984  0.00  0.00    +0.000 N 
ATOM     11  C   UNL     1       4.781   3.891  16.073  0.00  0.00    +0.000 C 
ENDBRANCH   5  10
ENDBRANCH   1   5
BRANCH   3  12
ATOM     12  C   UNL     1       3.759   5.525  19.912  0.00  0.00    +0.000 C 
BRANCH  12  13
ATOM     13  C   UNL     1       2.670   4.513  19.675  0.00  0.00    +0.000 A 
ATOM     14  C   UNL     1       2.127   4.328  18.396  0.00  0.00    +0.000 A 
ATOM     15  C   UNL     1       1.141   3.363  18.179  0.00  0.00    +0.000 A 
ATOM     16  C   UNL     1       0.682   2.581  19.238  0.00  0.00    +0.000 A 
ATOM     17  C   UNL     1       1.202   2.766  20.516  0.00  0.00    +0.000 A 
ATOM     18  C   UNL     1       2.187   3.732  20.736  0.00  0.00    +0.000 A 
ENDBRANCH  12  13
ENDBRANCH   3  12
TORSDOF 4
ENDMDL
MODEL 3
REMARK VINA RESULT:      -6.8      1.646      2.920
REMARK  Name = 
REMARK  7 active torsions:
REMARK  status: ('A' for Active; 'I' for Inactive)
REMARK    1  A    between atoms: C_1  and  C_2
REMARK    2  A    between atoms: N_4  and  C_5
REMARK    3  A    between atoms: N_4  and  C_6
REMARK    4  A    between atoms: C_6  and  C_7
REMARK    5  A    between atoms: C_6  and  C_8
REMARK    6  A    between atoms: N_10  and  C_11
REMARK    7  A    between atoms: C_11  and  C_12
REMARK                            x       y       z     vdW  Elec       q    Type
REMARK                         _______ _______ _______ _____ _____    ______ ____
ROOT
ATOM      1  C   UNL     1       4.281   5.044  17.167  0.00  0.00    +0.000 C 
ATOM      2  O   UNL     1       3.441   5.917  17.402  0.00  0.00    +0.000 OA
ATOM      3  N   UNL     1       3.924   3.721  16.995  0.00  0.00    +0.000 N 
ATOM      4  H   UNL     1       4.667   3.040  17.046  0.00  0.00    +0.000 HD
ENDROOT
BRANCH   1   5
ATOM      5  C   UNL     1       5.742   5.406  16.815  0.00  0.00    +0.000 C 
ATOM      6  C   UNL     1       6.362   4.227  16.060  0.00  0.00    +0.000 C 
BRANCH   5  10
ATOM      7  C   UNL     1       8.344   7.356  18.858  0.00  0.00    +0.000 C 
ATOM      8  C   UNL     1       7.488   6.874  17.714  0.00  0.00    +0.000 C 
ATOM      9  O   UNL     1       7.621   7.382  16.600  0.00  0.00    +0.000 OA
ATOM     10  N   UNL     1       6.555   5.874  17.973  0.00  0.00    +0.000 N 
ATOM     11  C   UNL     1       6.371   5.246  19.281  0.00  0.00    +0.000 C 
ENDBRANCH   5  10
ENDBRANCH   1   5
BRANCH   3  12
ATOM     12  C   UNL     1       2.585   3.277  17.305  0.00  0.00    +0.000 C 
BRANCH  12  13
ATOM     13  C   UNL     1       2.357   3.188  18.790  0.00  0.00    +0.000 A 
ATOM     14  C   UNL     1       3.287   2.550  19.622  0.00  0.00    +0.000 A 
ATOM     15  C   UNL     1       3.084   2.501  21.003  0.00  0.00    +0.000 A 
ATOM     16  C   UNL     1       1.948   3.080  21.564  0.00  0.00    +0.000 A 
ATOM     17  C   UNL     1       1.009   3.704  20.747  0.00  0.00    +0.000 A 
ATOM     18  C   UNL     1       1.208   3.752  19.365  0.00  0.00    +0.000 A 
ENDBRANCH  12  13
ENDBRANCH   3  12
TORSDOF 4
ENDMDL
MODEL 4
REMARK VINA RESULT:      -6.8      1.443      1.918
REMARK  Name = 
REMARK  7 active torsions:
REMARK  status: ('A' for Active; 'I' for Inactive)
REMARK    1  A    between atoms: C_1  and  C_2
REMARK    2  A    between atoms: N_4  and  C_5
REMARK    3  A    between atoms: N_4  and  C_6
REMARK    4  A    between atoms: C_6  and  C_7
REMARK    5  A    between atoms: C_6  and  C_8
REMARK    6  A    between atoms: N_10  and  C_11
REMARK    7  A    between atoms: C_11  and  C_12
REMARK                            x       y       z     vdW  Elec       q    Type
REMARK                         _______ _______ _______ _____ _____    ______ ____
ROOT
ATOM      1  C   UNL     1       6.168   5.706  18.823  0.00  0.00    +0.000 C 
ATOM      2  O   UNL     1       6.733   5.462  19.892  0.00  0.00    +0.000 OA
ATOM      3  N   UNL     1       4.793   5.814  18.737  0.00  0.00    +0.000 N 
ATOM      4  H   UNL     1       4.392   5.774  17.812  0.00  0.00    +0.000 HD
ENDROOT
BRANCH   1   5
ATOM      5  C   UNL     1       6.964   6.141  17.572  0.00  0.00    +0.000 C 
ATOM      6  C   UNL     1       7.300   7.629  17.706  0.00  0.00    +0.000 C 
BRANCH   5  10
ATOM      7  C   UNL     1       6.201   4.288  14.296  0.00  0.00    +0.000 C 
ATOM      8  C   UNL     1       6.817   4.665  15.619  0.00  0.00    +0.000 C 
ATOM      9  O   UNL     1       7.721   3.972  16.087  0.00  0.00    +0.000 OA
ATOM     10  N   UNL     1       6.317   5.785  16.278  0.00  0.00    +0.000 N 
ATOM     11  C   UNL     1       5.247   6.632  15.752  0.00  0.00    +0.000 C 
ENDBRANCH   5  10
ENDBRANCH   1   5
BRANCH   3  12
ATOM     12  C   UNL     1       3.956   5.424  19.848  0.00  0.00    +0.000 C 
BRANCH  12  13
ATOM     13  C   UNL     1       2.943   4.386  19.445  0.00  0.00    +0.000 A 
ATOM     14  C   UNL     1       1.917   4.006  20.321  0.00  0.00    +0.000 A 
ATOM     15  C   UNL     1       0.961   3.067  19.926  0.00  0.00    +0.000 A 
ATOM     16  C   UNL     1       1.026   2.493  18.658  0.00  0.00    +0.000 A 
ATOM     17  C   UNL     1       2.050   2.851  17.784  0.00  0.00    +0.000 A 
ATOM     18  C   UNL     1       3.008   3.788  18.178  0.00  0.00    +0.000 A 
ENDBRANCH  12  13
ENDBRANCH   3  12
TORSDOF 4
ENDMDL
MODEL 5
REMARK VINA RESULT:      -6.7      1.313      1.716
REMARK  Name = 
REMARK  7 active torsions:
REMARK  status: ('A' for Active; 'I' for Inactive)
REMARK    1  A    between atoms: C_1  and  C_2
REMARK    2  A    between atoms: N_4  and  C_5
REMARK    3  A    between atoms: N_4  and  C_6
REMARK    4  A    between atoms: C_6  and  C_7
REMARK    5  A    between atoms: C_6  and  C_8
REMARK    6  A    between atoms: N_10  and  C_11
REMARK    7  A    between atoms: C_11  and  C_12
REMARK                            x       y       z     vdW  Elec       q    Type
REMARK                         _______ _______ _______ _____ _____    ______ ____
ROOT
ATOM      1  C   UNL     1       5.552   5.192  18.539  0.00  0.00    +0.000 C 
ATOM      2  O   UNL     1       6.045   4.497  19.431  0.00  0.00    +0.000 OA
ATOM      3  N   UNL     1       4.380   5.898  18.733  0.00  0.00    +0.000 N 
ATOM      4  H   UNL     1       3.915   6.242  17.906  0.00  0.00    +0.000 HD
ENDROOT
BRANCH   1   5
ATOM      5  C   UNL     1       6.329   5.508  17.241  0.00  0.00    +0.000 C 
ATOM      6  C   UNL     1       6.265   7.019  16.996  0.00  0.00    +0.000 C 
BRANCH   5  10
ATOM      7  C   UNL     1       6.348   3.956  13.729  0.00  0.00    +0.000 C 
ATOM      8  C   UNL     1       6.743   4.754  14.945  0.00  0.00    +0.000 C 
ATOM      9  O   UNL     1       7.780   5.419  14.924  0.00  0.00    +0.000 OA
ATOM     10  N   UNL     1       5.920   4.690  16.065  0.00  0.00    +0.000 N 
ATOM     11  C   UNL     1       4.682   3.914  16.125  0.00  0.00    +0.000 C 
ENDBRANCH   5  10
ENDBRANCH   1   5
BRANCH   3  12
ATOM     12  C   UNL     1       3.573   5.670  19.910  0.00  0.00    +0.000 C 
BRANCH  12  13
ATOM     13  C   UNL     1       2.583   4.556  19.699  0.00  0.00    +0.000 A 
ATOM     14  C   UNL     1       2.209   3.717  20.759  0.00  0.00    +0.000 A 
ATOM     15  C   UNL     1       1.264   2.708  20.562  0.00  0.00    +0.000 A 
ATOM     16  C   UNL     1       0.692   2.520  19.306  0.00  0.00    +0.000 A 
ATOM     17  C   UNL     1       1.066   3.336  18.241  0.00  0.00    +0.000 A 
ATOM     18  C   UNL     1       2.013   4.346  18.435  0.00  0.00    +0.000 A 
ENDBRANCH  12  13
ENDBRANCH   3  12
TORSDOF 4
ENDMDL
MODEL 6
REMARK VINA RESULT:      -6.7      1.261      1.304
REMARK  Name = 
REMARK  7 active torsions:
REMARK  status: ('A' for Active; 'I' for Inactive)
REMARK    1  A    between atoms: C_1  and  C_2
REMARK    2  A    between atoms: N_4  and  C_5
REMARK    3  A    between atoms: N_4  and  C_6
REMARK    4  A    between atoms: C_6  and  C_7
REMARK    5  A    between atoms: C_6  and  C_8
REMARK    6  A    between atoms: N_10  and  C_11
REMARK    7  A    between atoms: C_11  and  C_12
REMARK                            x       y       z     vdW  Elec       q    Type
REMARK                         _______ _______ _______ _____ _____    ______ ____
ROOT
ATOM      1  C   UNL     1       6.613   5.393  18.834  0.00  0.00    +0.000 C 
ATOM      2  O   UNL     1       7.206   5.524  19.908  0.00  0.00    +0.000 OA
ATOM      3  N   UNL     1       5.343   4.854  18.768  0.00  0.00    +0.000 N 
ATOM      4  H   UNL     1       5.022   4.559  17.858  0.00  0.00    +0.000 HD
ENDROOT
BRANCH   1   5
ATOM      5  C   UNL     1       7.148   6.037  17.535  0.00  0.00    +0.000 C 
ATOM      6  C   UNL     1       7.450   7.512  17.815  0.00  0.00    +0.000 C 
BRANCH   5  10
ATOM      7  C   UNL     1       5.861   4.592  14.218  0.00  0.00    +0.000 C 
ATOM      8  C   UNL     1       6.697   4.828  15.449  0.00  0.00    +0.000 C 
ATOM      9  O   UNL     1       7.699   4.138  15.645  0.00  0.00    +0.000 OA
ATOM     10  N   UNL     1       6.286   5.816  16.340  0.00  0.00    +0.000 N 
ATOM     11  C   UNL     1       5.105   6.655  16.140  0.00  0.00    +0.000 C 
ENDBRANCH   5  10
ENDBRANCH   1   5
BRANCH   3  12
ATOM     12  C   UNL     1       4.754   4.220  19.924  0.00  0.00    +0.000 C 
BRANCH  12  13
ATOM     13  C   UNL     1       3.332   3.801  19.666  0.00  0.00    +0.000 A 
ATOM     14  C   UNL     1       2.773   3.905  18.385  0.00  0.00    +0.000 A 
ATOM     15  C   UNL     1       1.464   3.482  18.147  0.00  0.00    +0.000 A 
ATOM     16  C   UNL     1       0.697   2.960  19.187  0.00  0.00    +0.000 A 
ATOM     17  C   UNL     1       1.235   2.864  20.468  0.00  0.00    +0.000 A 
ATOM     18  C   UNL     1       2.544   3.289  20.709  0.00  0.00    +0.000 A 
ENDBRANCH  12  13
ENDBRANCH   3  12
TORSDOF 4
ENDMDL
MODEL 7
REMARK VINA RESULT:      -6.7      0.711      1.361
REMARK  Name = 
REMARK  7 active torsions:
REMARK  status: ('A' for Active; 'I' for Inactive)
REMARK    1  A    between atoms: C_1  and  C_2
REMARK    2  A    between atoms: N_4  and  C_5
REMARK    3  A    between atoms: N_4  and  C_6
REMARK    4  A    between atoms: C_6  and  C_7
REMARK    5  A    between atoms: C_6  and  C_8
REMARK    6  A    between atoms: N_10  and  C_11
REMARK    7  A    between atoms: C_11  and  C_12
REMARK                            x       y       z     vdW  Elec       q    Type
REMARK                         _______ _______ _______ _____ _____    ______ ____
ROOT
ATOM      1  C   UNL     1       6.339   4.720  18.923  0.00  0.00    +0.000 C 
ATOM      2  O   UNL     1       6.435   5.271  20.022  0.00  0.00    +0.000 OA
ATOM      3  N   UNL     1       5.502   3.639  18.724  0.00  0.00    +0.000 N 
ATOM      4  H   UNL     1       5.651   3.098  17.885  0.00  0.00    +0.000 HD
ENDROOT
BRANCH   1   5
ATOM      5  C   UNL     1       6.959   5.343  17.652  0.00  0.00    +0.000 C 
ATOM      6  C   UNL     1       7.511   6.726  18.012  0.00  0.00    +0.000 C 
BRANCH   5  10
ATOM      7  C   UNL     1       5.717   4.876  14.049  0.00  0.00    +0.000 C 
ATOM      8  C   UNL     1       6.594   4.867  15.274  0.00  0.00    +0.000 C 
ATOM      9  O   UNL     1       7.741   4.425  15.197  0.00  0.00    +0.000 OA
ATOM     10  N   UNL     1       6.057   5.346  16.466  0.00  0.00    +0.000 N 
ATOM     11  C   UNL     1       4.702   5.880  16.595  0.00  0.00    +0.000 C 
ENDBRANCH   5  10
ENDBRANCH   1   5
BRANCH   3  12
ATOM     12  C   UNL     1       4.879   2.977  19.847  0.00  0.00    +0.000 C 
BRANCH  12  13
ATOM     13  C   UNL     1       3.378   2.991  19.739  0.00  0.00    +0.000 A 
ATOM     14  C   UNL     1       2.602   3.768  20.611  0.00  0.00    +0.000 A 
ATOM     15  C   UNL     1       1.212   3.801  20.482  0.00  0.00    +0.000 A 
ATOM     16  C   UNL     1       0.583   3.053  19.489  0.00  0.00    +0.000 A 
ATOM     17  C   UNL     1       1.341   2.266  18.625  0.00  0.00    +0.000 A 
ATOM     18  C   UNL     1       2.732   2.229  18.754  0.00  0.00    +0.000 A 
ENDBRANCH  12  13
ENDBRANCH   3  12
TORSDOF 4
ENDMDL
MODEL 8
REMARK VINA RESULT:      -6.7      2.222      6.426
REMARK  Name = 
REMARK  7 active torsions:
REMARK  status: ('A' for Active; 'I' for Inactive)
REMARK    1  A    between atoms: C_1  and  C_2
REMARK    2  A    between atoms: N_4  and  C_5
REMARK    3  A    between atoms: N_4  and  C_6
REMARK    4  A    between atoms: C_6  and  C_7
REMARK    5  A    between atoms: C_6  and  C_8
REMARK    6  A    between atoms: N_10  and  C_11
REMARK    7  A    between atoms: C_11  and  C_12
REMARK                            x       y       z     vdW  Elec       q    Type
REMARK                         _______ _______ _______ _____ _____    ______ ____
ROOT
ATOM      1  C   UNL     1       4.654   4.826  17.266  0.00  0.00    +0.000 C 
ATOM      2  O   UNL     1       4.896   3.637  17.489  0.00  0.00    +0.000 OA
ATOM      3  N   UNL     1       5.485   5.600  16.478  0.00  0.00    +0.000 N 
ATOM      4  H   UNL     1       5.362   6.600  16.535  0.00  0.00    +0.000 HD
ENDROOT
BRANCH   1   5
ATOM      5  C   UNL     1       3.297   5.458  17.650  0.00  0.00    +0.000 C 
ATOM      6  C   UNL     1       3.498   6.968  17.816  0.00  0.00    +0.000 C 
BRANCH   5  10
ATOM      7  C   UNL     1       0.816   3.338  19.674  0.00  0.00    +0.000 C 
ATOM      8  C   UNL     1       1.535   3.993  18.522  0.00  0.00    +0.000 C 
ATOM      9  O   UNL     1       1.159   3.777  17.369  0.00  0.00    +0.000 OA
ATOM     10  N   UNL     1       2.624   4.810  18.811  0.00  0.00    +0.000 N 
ATOM     11  C   UNL     1       3.098   5.091  20.166  0.00  0.00    +0.000 C 
ENDBRANCH   5  10
ENDBRANCH   1   5
BRANCH   3  12
ATOM     12  C   UNL     1       6.780   5.106  16.072  0.00  0.00    +0.000 C 
BRANCH  12  13
ATOM     13  C   UNL     1       6.812   4.768  14.606  0.00  0.00    +0.000 A 
ATOM     14  C   UNL     1       7.708   5.411  13.740  0.00  0.00    +0.000 A 
ATOM     15  C   UNL     1       7.755   5.068  12.387  0.00  0.00    +0.000 A 
ATOM     16  C   UNL     1       6.903   4.087  11.884  0.00  0.00    +0.000 A 
ATOM     17  C   UNL     1       5.998   3.451  12.731  0.00  0.00    +0.000 A 
ATOM     18  C   UNL     1       5.947   3.795  14.084  0.00  0.00    +0.000 A 
ENDBRANCH  12  13
ENDBRANCH   3  12
TORSDOF 4
ENDMDL
MODEL 9
REMARK VINA RESULT:      -6.6      1.467      2.642
REMARK  Name = 
REMARK  7 active torsions:
REMARK  status: ('A' for Active; 'I' for Inactive)
REMARK    1  A    between atoms: C_1  and  C_2
REMARK    2  A    between atoms: N_4  and  C_5
REMARK    3  A    between atoms: N_4  and  C_6
REMARK    4  A    between atoms: C_6  and  C_7
REMARK    5  A    between atoms: C_6  and  C_8
REMARK    6  A    between atoms: N_10  and  C_11
REMARK    7  A    between atoms: C_11  and  C_12
REMARK                            x       y       z     vdW  Elec       q    Type
REMARK                         _______ _______ _______ _____ _____    ______ ____
ROOT
ATOM      1  C   UNL     1       4.209   3.875  17.024  0.00  0.00    +0.000 C 
ATOM      2  O   UNL     1       3.057   4.230  16.763  0.00  0.00    +0.000 OA
ATOM      3  N   UNL     1       4.486   2.610  17.507  0.00  0.00    +0.000 N 
ATOM      4  H   UNL     1       5.397   2.471  17.919  0.00  0.00    +0.000 HD
ENDROOT
BRANCH   1   5
ATOM      5  C   UNL     1       5.429   4.726  16.607  0.00  0.00    +0.000 C 
ATOM      6  C   UNL     1       6.324   3.876  15.701  0.00  0.00    +0.000 C 
BRANCH   5  10
ATOM      7  C   UNL     1       7.968   6.862  18.541  0.00  0.00    +0.000 C 
ATOM      8  C   UNL     1       7.198   6.220  17.415  0.00  0.00    +0.000 C 
ATOM      9  O   UNL     1       7.496   6.482  16.249  0.00  0.00    +0.000 OA
ATOM     10  N   UNL     1       6.154   5.360  17.744  0.00  0.00    +0.000 N 
ATOM     11  C   UNL     1       5.774   5.024  19.116  0.00  0.00    +0.000 C 
ENDBRANCH   5  10
ENDBRANCH   1   5
BRANCH   3  12
ATOM     12  C   UNL     1       3.417   1.737  17.934  0.00  0.00    +0.000 C 
BRANCH  12  13
ATOM     13  C   UNL     1       2.712   2.274  19.150  0.00  0.00    +0.000 A 
ATOM     14  C   UNL     1       1.355   2.623  19.099  0.00  0.00    +0.000 A 
ATOM     15  C   UNL     1       0.700   3.088  20.241  0.00  0.00    +0.000 A 
ATOM     16  C   UNL     1       1.395   3.218  21.442  0.00  0.00    +0.000 A 
ATOM     17  C   UNL     1       2.747   2.890  21.503  0.00  0.00    +0.000 A 
ATOM     18  C   UNL     1       3.405   2.426  20.361  0.00  0.00    +0.000 A 
ENDBRANCH  12  13
ENDBRANCH   3  12
TORSDOF 4
ENDMDL
