MODEL 1
REMARK VINA RESULT:      -6.8      0.000      0.000
REMARK  Name = 
REMARK  6 active torsions:
REMARK  status: ('A' for Active; 'I' for Inactive)
REMARK    1  A    between atoms: C_1  and  N_2
REMARK    2  A    between atoms: C_5  and  C_6
REMARK    3  A    between atoms: C_6  and  N_7
REMARK    4  A    between atoms: N_10  and  C_11
REMARK    5  A    between atoms: C_17  and  O_18
REMARK    6  A    between atoms: O_18  and  C_19
REMARK                            x       y       z     vdW  Elec       q    Type
REMARK                         _______ _______ _______ _____ _____    ______ ____
ROOT
ATOM      1  N   UNL     1       8.181   9.234  17.763  0.00  0.00    +0.000 N 
ATOM      2  C   UNL     1       7.726   7.934  17.793  0.00  0.00    +0.000 C 
ATOM      3  O   UNL     1       8.165   7.122  18.607  0.00  0.00    +0.000 OA
ATOM      4  N   UNL     1       6.768   7.663  16.842  0.00  0.00    +0.000 N 
ATOM      5  H   UNL     1       7.621   9.951  17.325  0.00  0.00    +0.000 HD
ATOM      6  H   UNL     1       6.196   8.438  16.540  0.00  0.00    +0.000 HD
ENDROOT
BRANCH   4   7
ATOM      7  C   UNL     1       6.169   6.379  16.733  0.00  0.00    +0.000 A 
ATOM      8  C   UNL     1       6.881   5.347  16.107  0.00  0.00    +0.000 A 
ATOM      9  C   UNL     1       6.306   4.097  15.930  0.00  0.00    +0.000 A 
ATOM     10  C   UNL     1       5.022   3.865  16.409  0.00  0.00    +0.000 A 
ATOM     11  C   UNL     1       4.297   4.876  17.062  0.00  0.00    +0.000 A 
ATOM     12 CL   UNL     1       2.720   4.383  17.581  0.00  0.00    +0.000 Cl
ATOM     13  C   UNL     1       4.856   6.161  17.225  0.00  0.00    +0.000 A 
BRANCH  13  14
ATOM     14  O   UNL     1       4.310   7.270  17.828  0.00  0.00    +0.000 OA
ATOM     15  C   UNL     1       2.899   7.391  17.954  0.00  0.00    +0.000 C 
ENDBRANCH  13  14
ENDBRANCH   4   7
BRANCH   1  16
ATOM     16  C   UNL     1       9.051   9.665  18.834  0.00  0.00    +0.000 C 
BRANCH  16  21
ATOM     17  C   UNL     1       7.381  14.573  17.694  0.00  0.00    +0.000 C 
ATOM     18  N   UNL     1       8.811  14.372  17.620  0.00  0.00    +0.000 N 
ATOM     19  C   UNL     1       9.322  13.206  18.067  0.00  0.00    +0.000 A 
ATOM     20  N   UNL     1       8.697  12.048  18.114  0.00  0.00    +0.000 NA
ATOM     21  C   UNL     1       9.534  11.063  18.639  0.00  0.00    +0.000 A 
ATOM     22  C   UNL     1      10.791  11.518  18.998  0.00  0.00    +0.000 A 
ATOM     23  S   UNL     1      10.947  13.180  18.647  0.00  0.00    +0.000 S 
ATOM     24  H   UNL     1       9.360  15.203  17.846  0.00  0.00    +0.000 HD
ENDBRANCH  16  21
ENDBRANCH   1  16
TORSDOF 4
ENDMDL
MODEL 2
REMARK VINA RESULT:      -6.7      1.228      1.381
REMARK  Name = 
REMARK  6 active torsions:
REMARK  status: ('A' for Active; 'I' for Inactive)
REMARK    1  A    between atoms: C_1  and  N_2
REMARK    2  A    between atoms: C_5  and  C_6
REMARK    3  A    between atoms: C_6  and  N_7
REMARK    4  A    between atoms: N_10  and  C_11
REMARK    5  A    between atoms: C_17  and  O_18
REMARK    6  A    between atoms: O_18  and  C_19
REMARK                            x       y       z     vdW  Elec       q    Type
REMARK                         _______ _______ _______ _____ _____    ______ ____
ROOT
ATOM      1  N   UNL     1       8.174   9.103  17.879  0.00  0.00    +0.000 N 
ATOM      2  C   UNL     1       7.724   7.801  17.847  0.00  0.00    +0.000 C 
ATOM      3  O   UNL     1       8.140   6.962  18.645  0.00  0.00    +0.000 OA
ATOM      4  N   UNL     1       6.800   7.562  16.856  0.00  0.00    +0.000 N 
ATOM      5  H   UNL     1       7.625   9.833  17.448  0.00  0.00    +0.000 HD
ATOM      6  H   UNL     1       6.234   8.345  16.563  0.00  0.00    +0.000 HD
ENDROOT
BRANCH   4   7
ATOM      7  C   UNL     1       6.210   6.280  16.680  0.00  0.00    +0.000 A 
ATOM      8  C   UNL     1       6.880   5.324  15.905  0.00  0.00    +0.000 A 
ATOM      9  C   UNL     1       6.308   4.082  15.664  0.00  0.00    +0.000 A 
ATOM     10  C   UNL     1       5.073   3.782  16.225  0.00  0.00    +0.000 A 
ATOM     11  C   UNL     1       4.393   4.715  17.026  0.00  0.00    +0.000 A 
ATOM     12 CL   UNL     1       2.872   4.144  17.628  0.00  0.00    +0.000 Cl
ATOM     13  C   UNL     1       4.946   5.992  17.259  0.00  0.00    +0.000 A 
BRANCH  13  14
ATOM     14  O   UNL     1       4.440   7.030  18.004  0.00  0.00    +0.000 OA
ATOM     15  C   UNL     1       3.221   7.655  17.620  0.00  0.00    +0.000 C 
ENDBRANCH  13  14
ENDBRANCH   4   7
BRANCH   1  16
ATOM     16  C   UNL     1       9.006   9.498  18.993  0.00  0.00    +0.000 C 
BRANCH  16  21
ATOM     17  C   UNL     1       9.679  13.968  21.775  0.00  0.00    +0.000 C 
ATOM     18  N   UNL     1       9.779  14.111  20.340  0.00  0.00    +0.000 N 
ATOM     19  C   UNL     1       9.798  12.995  19.581  0.00  0.00    +0.000 A 
ATOM     20  N   UNL     1       9.262  11.832  19.891  0.00  0.00    +0.000 NA
ATOM     21  C   UNL     1       9.481  10.907  18.870  0.00  0.00    +0.000 A 
ATOM     22  C   UNL     1      10.205  11.402  17.800  0.00  0.00    +0.000 A 
ATOM     23  S   UNL     1      10.590  13.046  18.049  0.00  0.00    +0.000 S 
ATOM     24  H   UNL     1      10.414  14.852  20.039  0.00  0.00    +0.000 HD
ENDBRANCH  16  21
ENDBRANCH   1  16
TORSDOF 4
ENDMDL
MODEL 3
REMARK VINA RESULT:      -6.5      6.087      7.581
REMARK  Name = 
REMARK  6 active torsions:
REMARK  status: ('A' for Active; 'I' for Inactive)
REMARK    1  A    between atoms: C_1  and  N_2
REMARK    2  A    between atoms: C_5  and  C_6
REMARK    3  A    between atoms: C_6  and  N_7
REMARK    4  A    between atoms: N_10  and  C_11
REMARK    5  A    between atoms: C_17  and  O_18
REMARK    6  A    between atoms: O_18  and  C_19
REMARK                            x       y       z     vdW  Elec       q    Type
REMARK                         _______ _______ _______ _____ _____    ______ ____
ROOT
ATOM      1  N   UNL     1       2.071   7.905  17.677  0.00  0.00    +0.000 N 
ATOM      2  C   UNL     1       2.307   6.990  18.681  0.00  0.00    +0.000 C 
ATOM      3  O   UNL     1       2.772   7.339  19.766  0.00  0.00    +0.000 OA
ATOM      4  N   UNL     1       1.982   5.698  18.337  0.00  0.00    +0.000 N 
ATOM      5  H   UNL     1       1.426   7.677  16.934  0.00  0.00    +0.000 HD
ATOM      6  H   UNL     1       1.253   5.581  17.648  0.00  0.00    +0.000 HD
ENDROOT
BRANCH   4   7
ATOM      7  C   UNL     1       2.141   4.621  19.251  0.00  0.00    +0.000 A 
ATOM      8  C   UNL     1       1.105   4.333  20.149  0.00  0.00    +0.000 A 
ATOM      9  C   UNL     1       1.248   3.326  21.094  0.00  0.00    +0.000 A 
ATOM     10  C   UNL     1       2.421   2.581  21.123  0.00  0.00    +0.000 A 
ATOM     11  C   UNL     1       3.464   2.835  20.216  0.00  0.00    +0.000 A 
ATOM     12 CL   UNL     1       4.836   1.797  20.419  0.00  0.00    +0.000 Cl
ATOM     13  C   UNL     1       3.347   3.873  19.267  0.00  0.00    +0.000 A 
BRANCH  13  14
ATOM     14  O   UNL     1       4.248   4.272  18.308  0.00  0.00    +0.000 OA
ATOM     15  C   UNL     1       4.409   3.508  17.119  0.00  0.00    +0.000 C 
ENDBRANCH  13  14
ENDBRANCH   4   7
BRANCH   1  16
ATOM     16  C   UNL     1       2.208   9.306  18.001  0.00  0.00    +0.000 C 
BRANCH  16  21
ATOM     17  C   UNL     1      -3.017   9.757  17.179  0.00  0.00    +0.000 C 
ATOM     18  N   UNL     1      -2.477  10.608  18.216  0.00  0.00    +0.000 N 
ATOM     19  C   UNL     1      -1.198  10.421  18.602  0.00  0.00    +0.000 A 
ATOM     20  N   UNL     1      -0.226   9.920  17.867  0.00  0.00    +0.000 NA
ATOM     21  C   UNL     1       0.962   9.871  18.596  0.00  0.00    +0.000 A 
ATOM     22  C   UNL     1       0.849  10.330  19.897  0.00  0.00    +0.000 A 
ATOM     23  S   UNL     1      -0.741  10.863  20.207  0.00  0.00    +0.000 S 
ATOM     24  H   UNL     1      -3.134  10.811  18.971  0.00  0.00    +0.000 HD
ENDBRANCH  16  21
ENDBRANCH   1  16
TORSDOF 4
ENDMDL
MODEL 4
REMARK VINA RESULT:      -6.5      4.495      8.480
REMARK  Name = 
REMARK  6 active torsions:
REMARK  status: ('A' for Active; 'I' for Inactive)
REMARK    1  A    between atoms: C_1  and  N_2
REMARK    2  A    between atoms: C_5  and  C_6
REMARK    3  A    between atoms: C_6  and  N_7
REMARK    4  A    between atoms: N_10  and  C_11
REMARK    5  A    between atoms: C_17  and  O_18
REMARK    6  A    between atoms: O_18  and  C_19
REMARK                            x       y       z     vdW  Elec       q    Type
REMARK                         _______ _______ _______ _____ _____    ______ ____
ROOT
ATOM      1  N   UNL     1       8.696   9.085  18.637  0.00  0.00    +0.000 N 
ATOM      2  C   UNL     1       9.037  10.417  18.727  0.00  0.00    +0.000 C 
ATOM      3  O   UNL     1       8.662  11.231  17.883  0.00  0.00    +0.000 OA
ATOM      4  N   UNL     1       9.817  10.713  19.821  0.00  0.00    +0.000 N 
ATOM      5  H   UNL     1       8.736   8.501  19.460  0.00  0.00    +0.000 HD
ATOM      6  H   UNL     1       9.710  10.118  20.630  0.00  0.00    +0.000 HD
ENDROOT
BRANCH   4   7
ATOM      7  C   UNL     1      10.253  12.040  20.089  0.00  0.00    +0.000 A 
ATOM      8  C   UNL     1      11.387  12.529  19.428  0.00  0.00    +0.000 A 
ATOM      9  C   UNL     1      11.876  13.798  19.707  0.00  0.00    +0.000 A 
ATOM     10  C   UNL     1      11.210  14.596  20.629  0.00  0.00    +0.000 A 
ATOM     11  C   UNL     1      10.056  14.137  21.286  0.00  0.00    +0.000 A 
ATOM     12 CL   UNL     1       9.379  15.283  22.394  0.00  0.00    +0.000 Cl
ATOM     13  C   UNL     1       9.561  12.839  21.036  0.00  0.00    +0.000 A 
BRANCH  13  14
ATOM     14  O   UNL     1       8.460  12.215  21.574  0.00  0.00    +0.000 OA
ATOM     15  C   UNL     1       8.425  11.904  22.961  0.00  0.00    +0.000 C 
ENDBRANCH  13  14
ENDBRANCH   4   7
BRANCH   1  16
ATOM     16  C   UNL     1       7.732   8.706  17.629  0.00  0.00    +0.000 C 
BRANCH  16  21
ATOM     17  C   UNL     1       6.837   4.717  14.242  0.00  0.00    +0.000 C 
ATOM     18  N   UNL     1       6.646   4.399  15.640  0.00  0.00    +0.000 N 
ATOM     19  C   UNL     1       7.025   5.304  16.565  0.00  0.00    +0.000 A 
ATOM     20  N   UNL     1       7.095   6.609  16.397  0.00  0.00    +0.000 NA
ATOM     21  C   UNL     1       7.531   7.229  17.568  0.00  0.00    +0.000 A 
ATOM     22  C   UNL     1       7.800   6.355  18.607  0.00  0.00    +0.000 A 
ATOM     23  S   UNL     1       7.475   4.748  18.136  0.00  0.00    +0.000 S 
ATOM     24  H   UNL     1       6.847   3.425  15.876  0.00  0.00    +0.000 HD
ENDBRANCH  16  21
ENDBRANCH   1  16
TORSDOF 4
ENDMDL
MODEL 5
REMARK VINA RESULT:      -6.4      5.758      7.140
REMARK  Name = 
REMARK  6 active torsions:
REMARK  status: ('A' for Active; 'I' for Inactive)
REMARK    1  A    between atoms: C_1  and  N_2
REMARK    2  A    between atoms: C_5  and  C_6
REMARK    3  A    between atoms: C_6  and  N_7
REMARK    4  A    between atoms: N_10  and  C_11
REMARK    5  A    between atoms: C_17  and  O_18
REMARK    6  A    between atoms: O_18  and  C_19
REMARK                            x       y       z     vdW  Elec       q    Type
REMARK                         _______ _______ _______ _____ _____    ______ ____
ROOT
ATOM      1  N   UNL     1       1.875   8.485  19.352  0.00  0.00    +0.000 N 
ATOM      2  C   UNL     1       1.889   7.136  19.634  0.00  0.00    +0.000 C 
ATOM      3  O   UNL     1       1.475   6.704  20.709  0.00  0.00    +0.000 OA
ATOM      4  N   UNL     1       2.405   6.366  18.617  0.00  0.00    +0.000 N 
ATOM      5  H   UNL     1       1.919   8.796  18.392  0.00  0.00    +0.000 HD
ATOM      6  H   UNL     1       2.312   6.729  17.679  0.00  0.00    +0.000 HD
ENDROOT
BRANCH   4   7
ATOM      7  C   UNL     1       2.485   4.950  18.721  0.00  0.00    +0.000 A 
ATOM      8  C   UNL     1       1.436   4.172  18.213  0.00  0.00    +0.000 A 
ATOM      9  C   UNL     1       1.452   2.790  18.348  0.00  0.00    +0.000 A 
ATOM     10  C   UNL     1       2.536   2.179  18.966  0.00  0.00    +0.000 A 
ATOM     11  C   UNL     1       3.611   2.937  19.461  0.00  0.00    +0.000 A 
ATOM     12 CL   UNL     1       4.859   1.985  20.194  0.00  0.00    +0.000 Cl
ATOM     13  C   UNL     1       3.599   4.344  19.358  0.00  0.00    +0.000 A 
BRANCH  13  14
ATOM     14  O   UNL     1       4.544   5.249  19.778  0.00  0.00    +0.000 OA
ATOM     15  C   UNL     1       5.833   5.264  19.177  0.00  0.00    +0.000 C 
ENDBRANCH  13  14
ENDBRANCH   4   7
BRANCH   1  16
ATOM     16  C   UNL     1       1.187   9.356  20.278  0.00  0.00    +0.000 C 
BRANCH  16  21
ATOM     17  C   UNL     1      -2.749  11.374  17.342  0.00  0.00    +0.000 C 
ATOM     18  N   UNL     1      -1.565  12.197  17.441  0.00  0.00    +0.000 N 
ATOM     19  C   UNL     1      -0.598  11.835  18.311  0.00  0.00    +0.000 A 
ATOM     20  N   UNL     1      -0.343  10.612  18.728  0.00  0.00    +0.000 NA
ATOM     21  C   UNL     1       0.724  10.616  19.627  0.00  0.00    +0.000 A 
ATOM     22  C   UNL     1       1.247  11.872  19.882  0.00  0.00    +0.000 A 
ATOM     23  S   UNL     1       0.427  13.057  18.969  0.00  0.00    +0.000 S 
ATOM     24  H   UNL     1      -1.751  13.200  17.391  0.00  0.00    +0.000 HD
ENDBRANCH  16  21
ENDBRANCH   1  16
TORSDOF 4
ENDMDL
MODEL 6
REMARK VINA RESULT:      -6.4      5.942      7.535
REMARK  Name = 
REMARK  6 active torsions:
REMARK  status: ('A' for Active; 'I' for Inactive)
REMARK    1  A    between atoms: C_1  and  N_2
REMARK    2  A    between atoms: C_5  and  C_6
REMARK    3  A    between atoms: C_6  and  N_7
REMARK    4  A    between atoms: N_10  and  C_11
REMARK    5  A    between atoms: C_17  and  O_18
REMARK    6  A    between atoms: O_18  and  C_19
REMARK                            x       y       z     vdW  Elec       q    Type
REMARK                         _______ _______ _______ _____ _____    ______ ____
ROOT
ATOM      1  N   UNL     1       1.469   9.305  19.250  0.00  0.00    +0.000 N 
ATOM      2  C   UNL     1       2.061   8.374  18.423  0.00  0.00    +0.000 C 
ATOM      3  O   UNL     1       2.250   8.609  17.230  0.00  0.00    +0.000 OA
ATOM      4  N   UNL     1       2.393   7.201  19.062  0.00  0.00    +0.000 N 
ATOM      5  H   UNL     1       1.594   9.237  20.249  0.00  0.00    +0.000 HD
ATOM      6  H   UNL     1       2.592   7.263  20.050  0.00  0.00    +0.000 HD
ENDROOT
BRANCH   4   7
ATOM      7  C   UNL     1       3.028   6.131  18.374  0.00  0.00    +0.000 A 
ATOM      8  C   UNL     1       4.193   6.392  17.640  0.00  0.00    +0.000 A 
ATOM      9  C   UNL     1       4.808   5.385  16.909  0.00  0.00    +0.000 A 
ATOM     10  C   UNL     1       4.274   4.102  16.935  0.00  0.00    +0.000 A 
ATOM     11  C   UNL     1       3.120   3.811  17.684  0.00  0.00    +0.000 A 
ATOM     12 CL   UNL     1       2.620   2.156  17.583  0.00  0.00    +0.000 Cl
ATOM     13  C   UNL     1       2.467   4.828  18.410  0.00  0.00    +0.000 A 
BRANCH  13  14
ATOM     14  O   UNL     1       1.339   4.743  19.193  0.00  0.00    +0.000 OA
ATOM     15  C   UNL     1       1.380   4.039  20.427  0.00  0.00    +0.000 C 
ENDBRANCH  13  14
ENDBRANCH   4   7
BRANCH   1  16
ATOM     16  C   UNL     1       1.249  10.630  18.718  0.00  0.00    +0.000 C 
BRANCH  16  21
ATOM     17  C   UNL     1      -3.859  11.371  17.479  0.00  0.00    +0.000 C 
ATOM     18  N   UNL     1      -3.369  12.162  18.587  0.00  0.00    +0.000 N 
ATOM     19  C   UNL     1      -2.137  11.898  19.071  0.00  0.00    +0.000 A 
ATOM     20  N   UNL     1      -1.132  11.371  18.403  0.00  0.00    +0.000 NA
ATOM     21  C   UNL     1      -0.014  11.239  19.227  0.00  0.00    +0.000 A 
ATOM     22  C   UNL     1      -0.215  11.663  20.528  0.00  0.00    +0.000 A 
ATOM     23  S   UNL     1      -1.799  12.266  20.723  0.00  0.00    +0.000 S 
ATOM     24  H   UNL     1      -4.077  12.375  19.291  0.00  0.00    +0.000 HD
ENDBRANCH  16  21
ENDBRANCH   1  16
TORSDOF 4
ENDMDL
MODEL 7
REMARK VINA RESULT:      -6.4      5.975      7.391
REMARK  Name = 
REMARK  6 active torsions:
REMARK  status: ('A' for Active; 'I' for Inactive)
REMARK    1  A    between atoms: C_1  and  N_2
REMARK    2  A    between atoms: C_5  and  C_6
REMARK    3  A    between atoms: C_6  and  N_7
REMARK    4  A    between atoms: N_10  and  C_11
REMARK    5  A    between atoms: C_17  and  O_18
REMARK    6  A    between atoms: O_18  and  C_19
REMARK                            x       y       z     vdW  Elec       q    Type
REMARK                         _______ _______ _______ _____ _____    ______ ____
ROOT
ATOM      1  N   UNL     1       2.200   8.040  17.723  0.00  0.00    +0.000 N 
ATOM      2  C   UNL     1       2.326   7.097  18.722  0.00  0.00    +0.000 C 
ATOM      3  O   UNL     1       2.584   7.424  19.879  0.00  0.00    +0.000 OA
ATOM      4  N   UNL     1       2.143   5.805  18.284  0.00  0.00    +0.000 N 
ATOM      5  H   UNL     1       1.701   7.809  16.877  0.00  0.00    +0.000 HD
ATOM      6  H   UNL     1       1.545   5.677  17.481  0.00  0.00    +0.000 HD
ENDROOT
BRANCH   4   7
ATOM      7  C   UNL     1       2.218   4.699  19.175  0.00  0.00    +0.000 A 
ATOM      8  C   UNL     1       1.096   4.373  19.949  0.00  0.00    +0.000 A 
ATOM      9  C   UNL     1       1.151   3.336  20.871  0.00  0.00    +0.000 A 
ATOM     10  C   UNL     1       2.324   2.601  21.000  0.00  0.00    +0.000 A 
ATOM     11  C   UNL     1       3.454   2.894  20.217  0.00  0.00    +0.000 A 
ATOM     12 CL   UNL     1       4.809   1.862  20.531  0.00  0.00    +0.000 Cl
ATOM     13  C   UNL     1       3.425   3.962  19.295  0.00  0.00    +0.000 A 
BRANCH  13  14
ATOM     14  O   UNL     1       4.417   4.401  18.450  0.00  0.00    +0.000 OA
ATOM     15  C   UNL     1       5.565   5.055  18.978  0.00  0.00    +0.000 C 
ENDBRANCH  13  14
ENDBRANCH   4   7
BRANCH   1  16
ATOM     16  C   UNL     1       2.194   9.431  18.113  0.00  0.00    +0.000 C 
BRANCH  16  21
ATOM     17  C   UNL     1      -0.322  12.258  21.836  0.00  0.00    +0.000 C 
ATOM     18  N   UNL     1      -1.172  11.447  20.992  0.00  0.00    +0.000 N 
ATOM     19  C   UNL     1      -0.626  10.844  19.916  0.00  0.00    +0.000 A 
ATOM     20  N   UNL     1       0.634  10.484  19.779  0.00  0.00    +0.000 NA
ATOM     21  C   UNL     1       0.839   9.893  18.532  0.00  0.00    +0.000 A 
ATOM     22  C   UNL     1      -0.292   9.836  17.738  0.00  0.00    +0.000 A 
ATOM     23  S   UNL     1      -1.635  10.492  18.561  0.00  0.00    +0.000 S 
ATOM     24  H   UNL     1      -2.106  11.836  20.846  0.00  0.00    +0.000 HD
ENDBRANCH  16  21
ENDBRANCH   1  16
TORSDOF 4
ENDMDL
MODEL 8
REMARK VINA RESULT:      -6.3      1.218      1.545
REMARK  Name = 
REMARK  6 active torsions:
REMARK  status: ('A' for Active; 'I' for Inactive)
REMARK    1  A    between atoms: C_1  and  N_2
REMARK    2  A    between atoms: C_5  and  C_6
REMARK    3  A    between atoms: C_6  and  N_7
REMARK    4  A    between atoms: N_10  and  C_11
REMARK    5  A    between atoms: C_17  and  O_18
REMARK    6  A    between atoms: O_18  and  C_19
REMARK                            x       y       z     vdW  Elec       q    Type
REMARK                         _______ _______ _______ _____ _____    ______ ____
ROOT
ATOM      1  N   UNL     1       8.196   9.288  17.893  0.00  0.00    +0.000 N 
ATOM      2  C   UNL     1       7.774   7.976  17.864  0.00  0.00    +0.000 C 
ATOM      3  O   UNL     1       8.291   7.122  18.584  0.00  0.00    +0.000 OA
ATOM      4  N   UNL     1       6.755   7.745  16.968  0.00  0.00    +0.000 N 
ATOM      5  H   UNL     1       7.589  10.017  17.549  0.00  0.00    +0.000 HD
ATOM      6  H   UNL     1       6.144   8.523  16.764  0.00  0.00    +0.000 HD
ENDROOT
BRANCH   4   7
ATOM      7  C   UNL     1       6.178   6.455  16.811  0.00  0.00    +0.000 A 
ATOM      8  C   UNL     1       6.890   5.474  16.109  0.00  0.00    +0.000 A 
ATOM      9  C   UNL     1       6.335   4.221  15.886  0.00  0.00    +0.000 A 
ATOM     10  C   UNL     1       5.073   3.936  16.394  0.00  0.00    +0.000 A 
ATOM     11  C   UNL     1       4.350   4.897  17.123  0.00  0.00    +0.000 A 
ATOM     12 CL   UNL     1       2.802   4.342  17.667  0.00  0.00    +0.000 Cl
ATOM     13  C   UNL     1       4.888   6.184  17.335  0.00  0.00    +0.000 A 
BRANCH  13  14
ATOM     14  O   UNL     1       4.341   7.248  18.013  0.00  0.00    +0.000 OA
ATOM     15  C   UNL     1       3.137   7.846  17.548  0.00  0.00    +0.000 C 
ENDBRANCH  13  14
ENDBRANCH   4   7
BRANCH   1  16
ATOM     16  C   UNL     1       9.133   9.668  18.926  0.00  0.00    +0.000 C 
BRANCH  16  21
ATOM     17  C   UNL     1      12.312  13.220  16.590  0.00  0.00    +0.000 C 
ATOM     18  N   UNL     1      11.598  13.697  17.754  0.00  0.00    +0.000 N 
ATOM     19  C   UNL     1      10.642  12.911  18.291  0.00  0.00    +0.000 A 
ATOM     20  N   UNL     1      10.583  11.597  18.223  0.00  0.00    +0.000 NA
ATOM     21  C   UNL     1       9.452  11.125  18.889  0.00  0.00    +0.000 A 
ATOM     22  C   UNL     1       8.661  12.117  19.439  0.00  0.00    +0.000 A 
ATOM     23  S   UNL     1       9.347  13.653  19.157  0.00  0.00    +0.000 S 
ATOM     24  H   UNL     1      11.377  14.694  17.726  0.00  0.00    +0.000 HD
ENDBRANCH  16  21
ENDBRANCH   1  16
TORSDOF 4
ENDMDL
MODEL 9
REMARK VINA RESULT:      -6.3      6.056      7.472
REMARK  Name = 
REMARK  6 active torsions:
REMARK  status: ('A' for Active; 'I' for Inactive)
REMARK    1  A    between atoms: C_1  and  N_2
REMARK    2  A    between atoms: C_5  and  C_6
REMARK    3  A    between atoms: C_6  and  N_7
REMARK    4  A    between atoms: N_10  and  C_11
REMARK    5  A    between atoms: C_17  and  O_18
REMARK    6  A    between atoms: O_18  and  C_19
REMARK                            x       y       z     vdW  Elec       q    Type
REMARK                         _______ _______ _______ _____ _____    ______ ____
ROOT
ATOM      1  N   UNL     1       1.520   8.688  19.463  0.00  0.00    +0.000 N 
ATOM      2  C   UNL     1       2.298   7.693  18.910  0.00  0.00    +0.000 C 
ATOM      3  O   UNL     1       2.654   7.741  17.734  0.00  0.00    +0.000 OA
ATOM      4  N   UNL     1       2.608   6.683  19.792  0.00  0.00    +0.000 N 
ATOM      5  H   UNL     1       1.492   8.803  20.466  0.00  0.00    +0.000 HD
ATOM      6  H   UNL     1       2.645   6.929  20.771  0.00  0.00    +0.000 HD
ENDROOT
BRANCH   4   7
ATOM      7  C   UNL     1       3.416   5.579  19.407  0.00  0.00    +0.000 A 
ATOM      8  C   UNL     1       4.806   5.746  19.339  0.00  0.00    +0.000 A 
ATOM      9  C   UNL     1       5.622   4.708  18.911  0.00  0.00    +0.000 A 
ATOM     10  C   UNL     1       5.051   3.485  18.577  0.00  0.00    +0.000 A 
ATOM     11  C   UNL     1       3.662   3.287  18.661  0.00  0.00    +0.000 A 
ATOM     12 CL   UNL     1       3.154   1.696  18.202  0.00  0.00    +0.000 Cl
ATOM     13  C   UNL     1       2.815   4.339  19.067  0.00  0.00    +0.000 A 
BRANCH  13  14
ATOM     14  O   UNL     1       1.447   4.342  19.209  0.00  0.00    +0.000 OA
ATOM     15  C   UNL     1       0.837   3.593  20.253  0.00  0.00    +0.000 C 
ENDBRANCH  13  14
ENDBRANCH   4   7
BRANCH   1  16
ATOM     16  C   UNL     1       1.293   9.878  18.674  0.00  0.00    +0.000 C 
BRANCH  16  21
ATOM     17  C   UNL     1      -3.666  11.400  17.548  0.00  0.00    +0.000 C 
ATOM     18  N   UNL     1      -3.022  12.127  18.620  0.00  0.00    +0.000 N 
ATOM     19  C   UNL     1      -1.835  11.681  19.080  0.00  0.00    +0.000 A 
ATOM     20  N   UNL     1      -0.948  10.984  18.400  0.00  0.00    +0.000 NA
ATOM     21  C   UNL     1       0.159  10.693  19.198  0.00  0.00    +0.000 A 
ATOM     22  C   UNL     1       0.068  11.175  20.492  0.00  0.00    +0.000 A 
ATOM     23  S   UNL     1      -1.392  12.028  20.711  0.00  0.00    +0.000 S 
ATOM     24  H   UNL     1      -3.666  12.468  19.336  0.00  0.00    +0.000 HD
ENDBRANCH  16  21
ENDBRANCH   1  16
TORSDOF 4
ENDMDL
