MODEL 1
REMARK VINA RESULT:      -9.0      0.000      0.000
REMARK  Name = 
REMARK  9 active torsions:
REMARK  status: ('A' for Active; 'I' for Inactive)
REMARK    1  A    between atoms: C_1  and  C_2
REMARK    2  A    between atoms: C_5  and  C_6
REMARK    3  A    between atoms: C_7  and  C_8
REMARK    4  A    between atoms: C_8  and  S_9
REMARK    5  A    between atoms: S_9  and  C_10
REMARK    6  A    between atoms: N_18  and  C_19
REMARK    7  A    between atoms: C_19  and  C_20
REMARK    8  A    between atoms: C_22  and  C_23
REMARK    9  A    between atoms: C_31  and  C_32
REMARK                            x       y       z     vdW  Elec       q    Type
REMARK                         _______ _______ _______ _____ _____    ______ ____
ROOT
ATOM      1  C   UNL     1       3.108   6.150  18.370  0.00  0.00    +0.000 A 
ATOM      2  N   UNL     1       1.894   5.650  18.443  0.00  0.00    +0.000 NA
ATOM      3  C   UNL     1       2.009   4.549  19.242  0.00  0.00    +0.000 A 
ATOM      4  C   UNL     1       1.008   3.723  19.756  0.00  0.00    +0.000 A 
ATOM      5  C   UNL     1       1.437   2.764  20.654  0.00  0.00    +0.000 A 
ATOM      6  N   UNL     1       2.724   2.567  21.027  0.00  0.00    +0.000 NA
ATOM      7  C   UNL     1       3.698   3.331  20.483  0.00  0.00    +0.000 A 
ATOM      8  C   UNL     1       3.331   4.325  19.592  0.00  0.00    +0.000 A 
ATOM      9  N   UNL     1       4.040   5.285  18.895  0.00  0.00    +0.000 N 
ENDROOT
BRANCH   1  10
ATOM     10  S   UNL     1       3.441   7.778  17.873  0.00  0.00    +0.000 S 
BRANCH  10  11
ATOM     11  C   UNL     1       1.775   8.507  17.908  0.00  0.00    +0.000 C 
BRANCH  11  18
ATOM     12  C   UNL     1      -0.300   9.074  22.395  0.00  0.00    +0.000 C 
ATOM     13  C   UNL     1       0.304   9.735  21.193  0.00  0.00    +0.000 A 
ATOM     14  C   UNL     1       0.390  11.118  21.105  0.00  0.00    +0.000 A 
ATOM     15  C   UNL     1       1.018  11.703  20.009  0.00  0.00    +0.000 A 
ATOM     16  C   UNL     1       1.553  10.935  18.951  0.00  0.00    +0.000 A 
ATOM     17  C   UNL     1       2.298  11.703  17.895  0.00  0.00    +0.000 C 
ATOM     18  C   UNL     1       1.383   9.534  18.968  0.00  0.00    +0.000 A 
ATOM     19  C   UNL     1       0.820   8.965  20.143  0.00  0.00    +0.000 A 
ENDBRANCH  11  18
ENDBRANCH  10  11
ENDBRANCH   1  10
BRANCH   9  20
ATOM     20  C   UNL     1       5.491   5.387  18.909  0.00  0.00    +0.000 C 
BRANCH  20  21
ATOM     21  C   UNL     1       6.072   5.425  17.531  0.00  0.00    +0.000 A 
ATOM     22  N   UNL     1       5.788   4.513  16.517  0.00  0.00    +0.000 NA
ATOM     23  C   UNL     1       6.530   4.906  15.485  0.00  0.00    +0.000 A 
ATOM     24  O   UNL     1       7.290   6.008  15.769  0.00  0.00    +0.000 OA
ATOM     25  C   UNL     1       6.995   6.329  17.055  0.00  0.00    +0.000 A 
ATOM     26  C   UNL     1       7.652   7.518  17.621  0.00  0.00    +0.000 C 
BRANCH  23  27
ATOM     27  C   UNL     1       6.568   4.449  14.080  0.00  0.00    +0.000 A 
ATOM     28  C   UNL     1       5.564   3.572  13.629  0.00  0.00    +0.000 A 
ATOM     29  C   UNL     1       5.481   3.161  12.290  0.00  0.00    +0.000 A 
ATOM     30  C   UNL     1       6.422   3.603  11.360  0.00  0.00    +0.000 A 
ATOM     31  C   UNL     1       7.438   4.458  11.781  0.00  0.00    +0.000 A 
ATOM     32  C   UNL     1       7.514   4.877  13.127  0.00  0.00    +0.000 A 
ATOM     33 CL   UNL     1       8.853   5.918  13.492  0.00  0.00    +0.000 Cl
ENDBRANCH  23  27
ENDBRANCH  20  21
ENDBRANCH   9  20
TORSDOF 6
ENDMDL
MODEL 2
REMARK VINA RESULT:      -8.8      1.108      1.799
REMARK  Name = 
REMARK  9 active torsions:
REMARK  status: ('A' for Active; 'I' for Inactive)
REMARK    1  A    between atoms: C_1  and  C_2
REMARK    2  A    between atoms: C_5  and  C_6
REMARK    3  A    between atoms: C_7  and  C_8
REMARK    4  A    between atoms: C_8  and  S_9
REMARK    5  A    between atoms: S_9  and  C_10
REMARK    6  A    between atoms: N_18  and  C_19
REMARK    7  A    between atoms: C_19  and  C_20
REMARK    8  A    between atoms: C_22  and  C_23
REMARK    9  A    between atoms: C_31  and  C_32
REMARK                            x       y       z     vdW  Elec       q    Type
REMARK                         _______ _______ _______ _____ _____    ______ ____
ROOT
ATOM      1  C   UNL     1       2.536   6.224  18.249  0.00  0.00    +0.000 A 
ATOM      2  N   UNL     1       1.497   5.434  18.100  0.00  0.00    +0.000 NA
ATOM      3  C   UNL     1       1.929   4.199  18.490  0.00  0.00    +0.000 A 
ATOM      4  C   UNL     1       1.200   3.020  18.657  0.00  0.00    +0.000 A 
ATOM      5  C   UNL     1       1.904   1.962  19.200  0.00  0.00    +0.000 A 
ATOM      6  N   UNL     1       3.215   1.992  19.541  0.00  0.00    +0.000 NA
ATOM      7  C   UNL     1       3.932   3.118  19.324  0.00  0.00    +0.000 A 
ATOM      8  C   UNL     1       3.279   4.220  18.801  0.00  0.00    +0.000 A 
ATOM      9  N   UNL     1       3.684   5.506  18.495  0.00  0.00    +0.000 N 
ENDROOT
BRANCH   1  10
ATOM     10  S   UNL     1       2.415   7.952  18.338  0.00  0.00    +0.000 S 
BRANCH  10  11
ATOM     11  C   UNL     1       1.694   8.172  19.994  0.00  0.00    +0.000 C 
BRANCH  11  18
ATOM     12  C   UNL     1      -1.376  11.489  17.913  0.00  0.00    +0.000 C 
ATOM     13  C   UNL     1      -0.755  10.963  19.172  0.00  0.00    +0.000 A 
ATOM     14  C   UNL     1      -1.024  11.549  20.401  0.00  0.00    +0.000 A 
ATOM     15  C   UNL     1      -0.488  10.997  21.562  0.00  0.00    +0.000 A 
ATOM     16  C   UNL     1       0.356   9.864  21.535  0.00  0.00    +0.000 A 
ATOM     17  C   UNL     1       0.763   9.320  22.876  0.00  0.00    +0.000 C 
ATOM     18  C   UNL     1       0.727   9.316  20.289  0.00  0.00    +0.000 A 
ATOM     19  C   UNL     1       0.091   9.847  19.134  0.00  0.00    +0.000 A 
ENDBRANCH  11  18
ENDBRANCH  10  11
ENDBRANCH   1  10
BRANCH   9  20
ATOM     20  C   UNL     1       5.058   5.969  18.603  0.00  0.00    +0.000 C 
BRANCH  20  21
ATOM     21  C   UNL     1       5.814   5.813  17.322  0.00  0.00    +0.000 A 
ATOM     22  N   UNL     1       5.498   4.907  16.310  0.00  0.00    +0.000 NA
ATOM     23  C   UNL     1       6.432   5.092  15.382  0.00  0.00    +0.000 A 
ATOM     24  O   UNL     1       7.345   6.050  15.732  0.00  0.00    +0.000 OA
ATOM     25  C   UNL     1       6.948   6.499  16.950  0.00  0.00    +0.000 A 
ATOM     26  C   UNL     1       7.740   7.579  17.560  0.00  0.00    +0.000 C 
BRANCH  23  27
ATOM     27  C   UNL     1       6.569   4.549  14.013  0.00  0.00    +0.000 A 
ATOM     28  C   UNL     1       5.603   3.636  13.552  0.00  0.00    +0.000 A 
ATOM     29  C   UNL     1       5.614   3.141  12.238  0.00  0.00    +0.000 A 
ATOM     30  C   UNL     1       6.614   3.536  11.348  0.00  0.00    +0.000 A 
ATOM     31  C   UNL     1       7.593   4.425  11.783  0.00  0.00    +0.000 A 
ATOM     32  C   UNL     1       7.575   4.927  13.102  0.00  0.00    +0.000 A 
ATOM     33 CL   UNL     1       8.879   6.003  13.491  0.00  0.00    +0.000 Cl
ENDBRANCH  23  27
ENDBRANCH  20  21
ENDBRANCH   9  20
TORSDOF 6
ENDMDL
MODEL 3
REMARK VINA RESULT:      -8.4      1.252      1.772
REMARK  Name = 
REMARK  9 active torsions:
REMARK  status: ('A' for Active; 'I' for Inactive)
REMARK    1  A    between atoms: C_1  and  C_2
REMARK    2  A    between atoms: C_5  and  C_6
REMARK    3  A    between atoms: C_7  and  C_8
REMARK    4  A    between atoms: C_8  and  S_9
REMARK    5  A    between atoms: S_9  and  C_10
REMARK    6  A    between atoms: N_18  and  C_19
REMARK    7  A    between atoms: C_19  and  C_20
REMARK    8  A    between atoms: C_22  and  C_23
REMARK    9  A    between atoms: C_31  and  C_32
REMARK                            x       y       z     vdW  Elec       q    Type
REMARK                         _______ _______ _______ _____ _____    ______ ____
ROOT
ATOM      1  C   UNL     1       2.823   6.381  18.267  0.00  0.00    +0.000 A 
ATOM      2  N   UNL     1       1.684   5.727  18.227  0.00  0.00    +0.000 NA
ATOM      3  C   UNL     1       1.930   4.544  18.863  0.00  0.00    +0.000 A 
ATOM      4  C   UNL     1       1.038   3.531  19.221  0.00  0.00    +0.000 A 
ATOM      5  C   UNL     1       1.576   2.513  19.985  0.00  0.00    +0.000 A 
ATOM      6  N   UNL     1       2.872   2.428  20.369  0.00  0.00    +0.000 NA
ATOM      7  C   UNL     1       3.745   3.381  19.972  0.00  0.00    +0.000 A 
ATOM      8  C   UNL     1       3.265   4.440  19.221  0.00  0.00    +0.000 A 
ATOM      9  N   UNL     1       3.853   5.574  18.693  0.00  0.00    +0.000 N 
ENDROOT
BRANCH   1  10
ATOM     10  S   UNL     1       2.949   8.093  18.020  0.00  0.00    +0.000 S 
BRANCH  10  11
ATOM     11  C   UNL     1       1.201   8.549  17.805  0.00  0.00    +0.000 C 
BRANCH  11  18
ATOM     12  C   UNL     1       2.670  13.150  19.005  0.00  0.00    +0.000 C 
ATOM     13  C   UNL     1       1.523  12.223  18.733  0.00  0.00    +0.000 A 
ATOM     14  C   UNL     1       0.210  12.664  18.830  0.00  0.00    +0.000 A 
ATOM     15  C   UNL     1      -0.834  11.801  18.504  0.00  0.00    +0.000 A 
ATOM     16  C   UNL     1      -0.607  10.466  18.102  0.00  0.00    +0.000 A 
ATOM     17  C   UNL     1      -1.825   9.695  17.676  0.00  0.00    +0.000 C 
ATOM     18  C   UNL     1       0.712   9.966  18.098  0.00  0.00    +0.000 A 
ATOM     19  C   UNL     1       1.758  10.897  18.347  0.00  0.00    +0.000 A 
ENDBRANCH  11  18
ENDBRANCH  10  11
ENDBRANCH   1  10
BRANCH   9  20
ATOM     20  C   UNL     1       5.278   5.856  18.769  0.00  0.00    +0.000 C 
BRANCH  20  21
ATOM     21  C   UNL     1       5.950   5.757  17.436  0.00  0.00    +0.000 A 
ATOM     22  N   UNL     1       5.638   4.823  16.450  0.00  0.00    +0.000 NA
ATOM     23  C   UNL     1       6.484   5.080  15.456  0.00  0.00    +0.000 A 
ATOM     24  O   UNL     1       7.336   6.113  15.740  0.00  0.00    +0.000 OA
ATOM     25  C   UNL     1       6.992   6.534  16.984  0.00  0.00    +0.000 A 
ATOM     26  C   UNL     1       7.733   7.679  17.536  0.00  0.00    +0.000 C 
BRANCH  23  27
ATOM     27  C   UNL     1       6.567   4.544  14.081  0.00  0.00    +0.000 A 
ATOM     28  C   UNL     1       5.558   3.667  13.638  0.00  0.00    +0.000 A 
ATOM     29  C   UNL     1       5.518   3.183  12.322  0.00  0.00    +0.000 A 
ATOM     30  C   UNL     1       6.508   3.550  11.408  0.00  0.00    +0.000 A 
ATOM     31  C   UNL     1       7.528   4.402  11.823  0.00  0.00    +0.000 A 
ATOM     32  C   UNL     1       7.561   4.895  13.146  0.00  0.00    +0.000 A 
ATOM     33 CL   UNL     1       8.911   5.922  13.508  0.00  0.00    +0.000 Cl
ENDBRANCH  23  27
ENDBRANCH  20  21
ENDBRANCH   9  20
TORSDOF 6
ENDMDL
MODEL 4
REMARK VINA RESULT:      -8.3      5.095     10.154
REMARK  Name = 
REMARK  9 active torsions:
REMARK  status: ('A' for Active; 'I' for Inactive)
REMARK    1  A    between atoms: C_1  and  C_2
REMARK    2  A    between atoms: C_5  and  C_6
REMARK    3  A    between atoms: C_7  and  C_8
REMARK    4  A    between atoms: C_8  and  S_9
REMARK    5  A    between atoms: S_9  and  C_10
REMARK    6  A    between atoms: N_18  and  C_19
REMARK    7  A    between atoms: C_19  and  C_20
REMARK    8  A    between atoms: C_22  and  C_23
REMARK    9  A    between atoms: C_31  and  C_32
REMARK                            x       y       z     vdW  Elec       q    Type
REMARK                         _______ _______ _______ _____ _____    ______ ____
ROOT
ATOM      1  C   UNL     1      -0.066   9.881  18.182  0.00  0.00    +0.000 A 
ATOM      2  N   UNL     1      -0.823   9.416  17.213  0.00  0.00    +0.000 NA
ATOM      3  C   UNL     1      -2.013  10.070  17.345  0.00  0.00    +0.000 A 
ATOM      4  C   UNL     1      -3.128  10.056  16.503  0.00  0.00    +0.000 A 
ATOM      5  C   UNL     1      -4.135  10.939  16.842  0.00  0.00    +0.000 A 
ATOM      6  N   UNL     1      -4.119  11.765  17.915  0.00  0.00    +0.000 NA
ATOM      7  C   UNL     1      -3.064  11.733  18.761  0.00  0.00    +0.000 A 
ATOM      8  C   UNL     1      -2.012  10.884  18.466  0.00  0.00    +0.000 A 
ATOM      9  N   UNL     1      -0.796  10.632  19.074  0.00  0.00    +0.000 N 
ENDROOT
BRANCH   1  10
ATOM     10  S   UNL     1       1.662   9.736  18.195  0.00  0.00    +0.000 S 
BRANCH  10  11
ATOM     11  C   UNL     1       1.890   8.316  19.308  0.00  0.00    +0.000 C 
BRANCH  11  18
ATOM     12  C   UNL     1       5.118   6.496  15.986  0.00  0.00    +0.000 C 
ATOM     13  C   UNL     1       4.180   6.210  17.121  0.00  0.00    +0.000 A 
ATOM     14  C   UNL     1       3.979   4.912  17.572  0.00  0.00    +0.000 A 
ATOM     15  C   UNL     1       3.156   4.683  18.672  0.00  0.00    +0.000 A 
ATOM     16  C   UNL     1       2.485   5.731  19.339  0.00  0.00    +0.000 A 
ATOM     17  C   UNL     1       1.725   5.340  20.575  0.00  0.00    +0.000 C 
ATOM     18  C   UNL     1       2.591   7.045  18.833  0.00  0.00    +0.000 A 
ATOM     19  C   UNL     1       3.509   7.255  17.768  0.00  0.00    +0.000 A 
ENDBRANCH  11  18
ENDBRANCH  10  11
ENDBRANCH   1  10
BRANCH   9  20
ATOM     20  C   UNL     1      -0.384  11.226  20.336  0.00  0.00    +0.000 C 
BRANCH  20  21
ATOM     21  C   UNL     1      -0.169  12.703  20.226  0.00  0.00    +0.000 A 
ATOM     22  N   UNL     1       0.279  13.364  19.083  0.00  0.00    +0.000 NA
ATOM     23  C   UNL     1       0.348  14.645  19.434  0.00  0.00    +0.000 A 
ATOM     24  O   UNL     1      -0.014  14.857  20.737  0.00  0.00    +0.000 OA
ATOM     25  C   UNL     1      -0.339  13.633  21.226  0.00  0.00    +0.000 A 
ATOM     26  C   UNL     1      -0.808  13.567  22.619  0.00  0.00    +0.000 C 
BRANCH  23  27
ATOM     27  C   UNL     1       0.608  15.863  18.637  0.00  0.00    +0.000 A 
ATOM     28  C   UNL     1      -0.475  16.699  18.312  0.00  0.00    +0.000 A 
ATOM     29  C   UNL     1      -0.300  17.915  17.633  0.00  0.00    +0.000 A 
ATOM     30  C   UNL     1       0.976  18.321  17.239  0.00  0.00    +0.000 A 
ATOM     31  C   UNL     1       2.066  17.505  17.532  0.00  0.00    +0.000 A 
ATOM     32  C   UNL     1       1.887  16.286  18.222  0.00  0.00    +0.000 A 
ATOM     33 CL   UNL     1       3.341  15.376  18.485  0.00  0.00    +0.000 Cl
ENDBRANCH  23  27
ENDBRANCH  20  21
ENDBRANCH   9  20
TORSDOF 6
ENDMDL
MODEL 5
REMARK VINA RESULT:      -8.2      5.506     11.336
REMARK  Name = 
REMARK  9 active torsions:
REMARK  status: ('A' for Active; 'I' for Inactive)
REMARK    1  A    between atoms: C_1  and  C_2
REMARK    2  A    between atoms: C_5  and  C_6
REMARK    3  A    between atoms: C_7  and  C_8
REMARK    4  A    between atoms: C_8  and  S_9
REMARK    5  A    between atoms: S_9  and  C_10
REMARK    6  A    between atoms: N_18  and  C_19
REMARK    7  A    between atoms: C_19  and  C_20
REMARK    8  A    between atoms: C_22  and  C_23
REMARK    9  A    between atoms: C_31  and  C_32
REMARK                            x       y       z     vdW  Elec       q    Type
REMARK                         _______ _______ _______ _____ _____    ______ ____
ROOT
ATOM      1  C   UNL     1       0.334   9.775  18.314  0.00  0.00    +0.000 A 
ATOM      2  N   UNL     1      -0.695   9.299  17.649  0.00  0.00    +0.000 NA
ATOM      3  C   UNL     1      -1.728  10.143  17.938  0.00  0.00    +0.000 A 
ATOM      4  C   UNL     1      -3.015  10.182  17.397  0.00  0.00    +0.000 A 
ATOM      5  C   UNL     1      -3.792  11.251  17.800  0.00  0.00    +0.000 A 
ATOM      6  N   UNL     1      -3.405  12.210  18.674  0.00  0.00    +0.000 NA
ATOM      7  C   UNL     1      -2.179  12.137  19.240  0.00  0.00    +0.000 A 
ATOM      8  C   UNL     1      -1.344  11.100  18.863  0.00  0.00    +0.000 A 
ATOM      9  N   UNL     1      -0.050  10.752  19.203  0.00  0.00    +0.000 N 
ENDROOT
BRANCH   1  10
ATOM     10  S   UNL     1       1.979   9.366  17.947  0.00  0.00    +0.000 S 
BRANCH  10  11
ATOM     11  C   UNL     1       2.248   7.949  19.056  0.00  0.00    +0.000 C 
BRANCH  11  18
ATOM     12  C   UNL     1       5.459   5.988  15.799  0.00  0.00    +0.000 C 
ATOM     13  C   UNL     1       4.429   5.739  16.860  0.00  0.00    +0.000 A 
ATOM     14  C   UNL     1       4.064   4.447  17.212  0.00  0.00    +0.000 A 
ATOM     15  C   UNL     1       3.156   4.244  18.248  0.00  0.00    +0.000 A 
ATOM     16  C   UNL     1       2.560   5.318  18.947  0.00  0.00    +0.000 A 
ATOM     17  C   UNL     1       1.689   4.938  20.111  0.00  0.00    +0.000 C 
ATOM     18  C   UNL     1       2.837   6.639  18.536  0.00  0.00    +0.000 A 
ATOM     19  C   UNL     1       3.834   6.811  17.538  0.00  0.00    +0.000 A 
ENDBRANCH  11  18
ENDBRANCH  10  11
ENDBRANCH   1  10
BRANCH   9  20
ATOM     20  C   UNL     1       0.738  11.451  20.206  0.00  0.00    +0.000 C 
BRANCH  20  21
ATOM     21  C   UNL     1      -0.066  11.804  21.417  0.00  0.00    +0.000 A 
ATOM     22  N   UNL     1      -0.502  13.087  21.743  0.00  0.00    +0.000 NA
ATOM     23  C   UNL     1      -1.151  12.945  22.896  0.00  0.00    +0.000 A 
ATOM     24  O   UNL     1      -1.153  11.653  23.347  0.00  0.00    +0.000 OA
ATOM     25  C   UNL     1      -0.471  10.943  22.412  0.00  0.00    +0.000 A 
ATOM     26  C   UNL     1      -0.349   9.492  22.625  0.00  0.00    +0.000 C 
BRANCH  23  27
ATOM     27  C   UNL     1      -1.966  13.896  23.680  0.00  0.00    +0.000 A 
ATOM     28  C   UNL     1      -1.307  14.847  24.481  0.00  0.00    +0.000 A 
ATOM     29  C   UNL     1      -2.006  15.838  25.188  0.00  0.00    +0.000 A 
ATOM     30  C   UNL     1      -3.400  15.892  25.129  0.00  0.00    +0.000 A 
ATOM     31  C   UNL     1      -4.080  14.953  24.358  0.00  0.00    +0.000 A 
ATOM     32  C   UNL     1      -3.374  13.962  23.641  0.00  0.00    +0.000 A 
ATOM     33 CL   UNL     1      -4.370  12.854  22.753  0.00  0.00    +0.000 Cl
ENDBRANCH  23  27
ENDBRANCH  20  21
ENDBRANCH   9  20
TORSDOF 6
ENDMDL
MODEL 6
REMARK VINA RESULT:      -8.2      5.930     11.025
REMARK  Name = 
REMARK  9 active torsions:
REMARK  status: ('A' for Active; 'I' for Inactive)
REMARK    1  A    between atoms: C_1  and  C_2
REMARK    2  A    between atoms: C_5  and  C_6
REMARK    3  A    between atoms: C_7  and  C_8
REMARK    4  A    between atoms: C_8  and  S_9
REMARK    5  A    between atoms: S_9  and  C_10
REMARK    6  A    between atoms: N_18  and  C_19
REMARK    7  A    between atoms: C_19  and  C_20
REMARK    8  A    between atoms: C_22  and  C_23
REMARK    9  A    between atoms: C_31  and  C_32
REMARK                            x       y       z     vdW  Elec       q    Type
REMARK                         _______ _______ _______ _____ _____    ______ ____
ROOT
ATOM      1  C   UNL     1       0.553  10.749  20.434  0.00  0.00    +0.000 A 
ATOM      2  N   UNL     1       1.305  11.573  21.129  0.00  0.00    +0.000 NA
ATOM      3  C   UNL     1       1.199  12.775  20.491  0.00  0.00    +0.000 A 
ATOM      4  C   UNL     1       1.685  14.026  20.877  0.00  0.00    +0.000 A 
ATOM      5  C   UNL     1       1.292  15.085  20.081  0.00  0.00    +0.000 A 
ATOM      6  N   UNL     1       0.516  14.981  18.975  0.00  0.00    +0.000 NA
ATOM      7  C   UNL     1       0.095  13.761  18.571  0.00  0.00    +0.000 A 
ATOM      8  C   UNL     1       0.438  12.662  19.339  0.00  0.00    +0.000 A 
ATOM      9  N   UNL     1       0.156  11.312  19.243  0.00  0.00    +0.000 N 
ENDROOT
BRANCH   1  10
ATOM     10  S   UNL     1      -0.029   9.237  21.054  0.00  0.00    +0.000 S 
BRANCH  10  11
ATOM     11  C   UNL     1       1.512   8.277  21.153  0.00  0.00    +0.000 C 
BRANCH  11  18
ATOM     12  C   UNL     1       1.406   3.325  20.680  0.00  0.00    +0.000 C 
ATOM     13  C   UNL     1       1.740   4.644  20.052  0.00  0.00    +0.000 A 
ATOM     14  C   UNL     1       2.294   4.710  18.780  0.00  0.00    +0.000 A 
ATOM     15  C   UNL     1       2.529   5.951  18.193  0.00  0.00    +0.000 A 
ATOM     16  C   UNL     1       2.250   7.163  18.862  0.00  0.00    +0.000 A 
ATOM     17  C   UNL     1       2.452   8.416  18.056  0.00  0.00    +0.000 C 
ATOM     18  C   UNL     1       1.786   7.120  20.194  0.00  0.00    +0.000 A 
ATOM     19  C   UNL     1       1.472   5.841  20.728  0.00  0.00    +0.000 A 
ENDBRANCH  11  18
ENDBRANCH  10  11
ENDBRANCH   1  10
BRANCH   9  20
ATOM     20  C   UNL     1      -0.576  10.715  18.137  0.00  0.00    +0.000 C 
BRANCH  20  21
ATOM     21  C   UNL     1      -2.014  11.127  18.118  0.00  0.00    +0.000 A 
ATOM     22  N   UNL     1      -2.725  11.603  19.219  0.00  0.00    +0.000 NA
ATOM     23  C   UNL     1      -3.955  11.822  18.762  0.00  0.00    +0.000 A 
ATOM     24  O   UNL     1      -4.093  11.505  17.438  0.00  0.00    +0.000 OA
ATOM     25  C   UNL     1      -2.869  11.072  17.041  0.00  0.00    +0.000 A 
ATOM     26  C   UNL     1      -2.714  10.693  15.627  0.00  0.00    +0.000 C 
BRANCH  23  27
ATOM     27  C   UNL     1      -5.130  12.462  19.391  0.00  0.00    +0.000 A 
ATOM     28  C   UNL     1      -6.411  11.965  19.085  0.00  0.00    +0.000 A 
ATOM     29  C   UNL     1      -7.569  12.461  19.704  0.00  0.00    +0.000 A 
ATOM     30  C   UNL     1      -7.478  13.492  20.641  0.00  0.00    +0.000 A 
ATOM     31  C   UNL     1      -6.224  14.015  20.950  0.00  0.00    +0.000 A 
ATOM     32  C   UNL     1      -5.061  13.509  20.331  0.00  0.00    +0.000 A 
ATOM     33 CL   UNL     1      -3.585  14.287  20.806  0.00  0.00    +0.000 Cl
ENDBRANCH  23  27
ENDBRANCH  20  21
ENDBRANCH   9  20
TORSDOF 6
ENDMDL
MODEL 7
REMARK VINA RESULT:      -8.2      4.578      9.046
REMARK  Name = 
REMARK  9 active torsions:
REMARK  status: ('A' for Active; 'I' for Inactive)
REMARK    1  A    between atoms: C_1  and  C_2
REMARK    2  A    between atoms: C_5  and  C_6
REMARK    3  A    between atoms: C_7  and  C_8
REMARK    4  A    between atoms: C_8  and  S_9
REMARK    5  A    between atoms: S_9  and  C_10
REMARK    6  A    between atoms: N_18  and  C_19
REMARK    7  A    between atoms: C_19  and  C_20
REMARK    8  A    between atoms: C_22  and  C_23
REMARK    9  A    between atoms: C_31  and  C_32
REMARK                            x       y       z     vdW  Elec       q    Type
REMARK                         _______ _______ _______ _____ _____    ______ ____
ROOT
ATOM      1  C   UNL     1       1.118   9.566  19.337  0.00  0.00    +0.000 A 
ATOM      2  N   UNL     1       1.209   8.925  20.481  0.00  0.00    +0.000 NA
ATOM      3  C   UNL     1       0.440   9.641  21.353  0.00  0.00    +0.000 A 
ATOM      4  C   UNL     1       0.077   9.336  22.667  0.00  0.00    +0.000 A 
ATOM      5  C   UNL     1      -0.832  10.201  23.244  0.00  0.00    +0.000 A 
ATOM      6  N   UNL     1      -1.352  11.299  22.645  0.00  0.00    +0.000 NA
ATOM      7  C   UNL     1      -0.954  11.623  21.394  0.00  0.00    +0.000 A 
ATOM      8  C   UNL     1      -0.060  10.785  20.752  0.00  0.00    +0.000 A 
ATOM      9  N   UNL     1       0.514  10.792  19.494  0.00  0.00    +0.000 N 
ENDROOT
BRANCH   1  10
ATOM     10  S   UNL     1       1.516   8.850  17.809  0.00  0.00    +0.000 S 
BRANCH  10  11
ATOM     11  C   UNL     1       3.052   7.968  18.219  0.00  0.00    +0.000 C 
BRANCH  11  18
ATOM     12  C   UNL     1       1.097   3.401  18.504  0.00  0.00    +0.000 C 
ATOM     13  C   UNL     1       2.236   4.258  18.038  0.00  0.00    +0.000 A 
ATOM     14  C   UNL     1       3.333   3.701  17.396  0.00  0.00    +0.000 A 
ATOM     15  C   UNL     1       4.344   4.529  16.912  0.00  0.00    +0.000 A 
ATOM     16  C   UNL     1       4.310   5.931  17.078  0.00  0.00    +0.000 A 
ATOM     17  C   UNL     1       5.414   6.697  16.404  0.00  0.00    +0.000 C 
ATOM     18  C   UNL     1       3.257   6.508  17.819  0.00  0.00    +0.000 A 
ATOM     19  C   UNL     1       2.199   5.647  18.218  0.00  0.00    +0.000 A 
ENDBRANCH  11  18
ENDBRANCH  10  11
ENDBRANCH   1  10
BRANCH   9  20
ATOM     20  C   UNL     1       0.321  11.859  18.524  0.00  0.00    +0.000 C 
BRANCH  20  21
ATOM     21  C   UNL     1       1.275  12.992  18.728  0.00  0.00    +0.000 A 
ATOM     22  N   UNL     1       2.659  12.865  18.836  0.00  0.00    +0.000 NA
ATOM     23  C   UNL     1       3.103  14.104  19.029  0.00  0.00    +0.000 A 
ATOM     24  O   UNL     1       2.094  15.028  19.068  0.00  0.00    +0.000 OA
ATOM     25  C   UNL     1       0.950  14.322  18.876  0.00  0.00    +0.000 A 
ATOM     26  C   UNL     1      -0.310  15.080  18.833  0.00  0.00    +0.000 C 
BRANCH  23  27
ATOM     27  C   UNL     1       4.474  14.654  19.070  0.00  0.00    +0.000 A 
ATOM     28  C   UNL     1       5.249  14.621  17.895  0.00  0.00    +0.000 A 
ATOM     29  C   UNL     1       6.526  15.198  17.829  0.00  0.00    +0.000 A 
ATOM     30  C   UNL     1       7.078  15.814  18.954  0.00  0.00    +0.000 A 
ATOM     31  C   UNL     1       6.341  15.846  20.135  0.00  0.00    +0.000 A 
ATOM     32  C   UNL     1       5.054  15.272  20.197  0.00  0.00    +0.000 A 
ATOM     33 CL   UNL     1       4.282  15.373  21.748  0.00  0.00    +0.000 Cl
ENDBRANCH  23  27
ENDBRANCH  20  21
ENDBRANCH   9  20
TORSDOF 6
ENDMDL
MODEL 8
REMARK VINA RESULT:      -8.2      1.733      2.205
REMARK  Name = 
REMARK  9 active torsions:
REMARK  status: ('A' for Active; 'I' for Inactive)
REMARK    1  A    between atoms: C_1  and  C_2
REMARK    2  A    between atoms: C_5  and  C_6
REMARK    3  A    between atoms: C_7  and  C_8
REMARK    4  A    between atoms: C_8  and  S_9
REMARK    5  A    between atoms: S_9  and  C_10
REMARK    6  A    between atoms: N_18  and  C_19
REMARK    7  A    between atoms: C_19  and  C_20
REMARK    8  A    between atoms: C_22  and  C_23
REMARK    9  A    between atoms: C_31  and  C_32
REMARK                            x       y       z     vdW  Elec       q    Type
REMARK                         _______ _______ _______ _____ _____    ______ ____
ROOT
ATOM      1  C   UNL     1       2.508   7.103  18.080  0.00  0.00    +0.000 A 
ATOM      2  N   UNL     1       1.534   6.282  18.405  0.00  0.00    +0.000 NA
ATOM      3  C   UNL     1       2.154   5.177  18.912  0.00  0.00    +0.000 A 
ATOM      4  C   UNL     1       1.595   4.055  19.528  0.00  0.00    +0.000 A 
ATOM      5  C   UNL     1       2.503   3.160  20.062  0.00  0.00    +0.000 A 
ATOM      6  N   UNL     1       3.850   3.289  20.002  0.00  0.00    +0.000 NA
ATOM      7  C   UNL     1       4.388   4.346  19.353  0.00  0.00    +0.000 A 
ATOM      8  C   UNL     1       3.532   5.290  18.814  0.00  0.00    +0.000 A 
ATOM      9  N   UNL     1       3.733   6.478  18.137  0.00  0.00    +0.000 N 
ENDROOT
BRANCH   1  10
ATOM     10  S   UNL     1       2.278   8.803  17.827  0.00  0.00    +0.000 S 
BRANCH  10  11
ATOM     11  C   UNL     1       1.244   9.238  19.259  0.00  0.00    +0.000 C 
BRANCH  11  18
ATOM     12  C   UNL     1      -2.497  10.263  16.142  0.00  0.00    +0.000 C 
ATOM     13  C   UNL     1      -1.847  10.537  17.465  0.00  0.00    +0.000 A 
ATOM     14  C   UNL     1      -2.370  11.484  18.336  0.00  0.00    +0.000 A 
ATOM     15  C   UNL     1      -1.787  11.669  19.587  0.00  0.00    +0.000 A 
ATOM     16  C   UNL     1      -0.648  10.942  19.999  0.00  0.00    +0.000 A 
ATOM     17  C   UNL     1      -0.203  11.172  21.416  0.00  0.00    +0.000 C 
ATOM     18  C   UNL     1      -0.037  10.052  19.091  0.00  0.00    +0.000 A 
ATOM     19  C   UNL     1      -0.710   9.821  17.860  0.00  0.00    +0.000 A 
ENDBRANCH  11  18
ENDBRANCH  10  11
ENDBRANCH   1  10
BRANCH   9  20
ATOM     20  C   UNL     1       5.043   6.976  17.749  0.00  0.00    +0.000 C 
BRANCH  20  21
ATOM     21  C   UNL     1       5.748   6.049  16.809  0.00  0.00    +0.000 A 
ATOM     22  N   UNL     1       5.319   5.738  15.519  0.00  0.00    +0.000 NA
ATOM     23  C   UNL     1       6.219   4.873  15.059  0.00  0.00    +0.000 A 
ATOM     24  O   UNL     1       7.198   4.591  15.973  0.00  0.00    +0.000 OA
ATOM     25  C   UNL     1       6.896   5.335  17.067  0.00  0.00    +0.000 A 
ATOM     26  C   UNL     1       7.818   5.255  18.212  0.00  0.00    +0.000 C 
BRANCH  23  27
ATOM     27  C   UNL     1       6.411   4.287  13.716  0.00  0.00    +0.000 A 
ATOM     28  C   UNL     1       5.515   3.292  13.281  0.00  0.00    +0.000 A 
ATOM     29  C   UNL     1       5.578   2.748  11.989  0.00  0.00    +0.000 A 
ATOM     30  C   UNL     1       6.563   3.172  11.095  0.00  0.00    +0.000 A 
ATOM     31  C   UNL     1       7.474   4.142  11.504  0.00  0.00    +0.000 A 
ATOM     32  C   UNL     1       7.403   4.694  12.801  0.00  0.00    +0.000 A 
ATOM     33 CL   UNL     1       8.627   5.870  13.162  0.00  0.00    +0.000 Cl
ENDBRANCH  23  27
ENDBRANCH  20  21
ENDBRANCH   9  20
TORSDOF 6
ENDMDL
MODEL 9
REMARK VINA RESULT:      -8.2      6.216     11.239
REMARK  Name = 
REMARK  9 active torsions:
REMARK  status: ('A' for Active; 'I' for Inactive)
REMARK    1  A    between atoms: C_1  and  C_2
REMARK    2  A    between atoms: C_5  and  C_6
REMARK    3  A    between atoms: C_7  and  C_8
REMARK    4  A    between atoms: C_8  and  S_9
REMARK    5  A    between atoms: S_9  and  C_10
REMARK    6  A    between atoms: N_18  and  C_19
REMARK    7  A    between atoms: C_19  and  C_20
REMARK    8  A    between atoms: C_22  and  C_23
REMARK    9  A    between atoms: C_31  and  C_32
REMARK                            x       y       z     vdW  Elec       q    Type
REMARK                         _______ _______ _______ _____ _____    ______ ____
ROOT
ATOM      1  C   UNL     1       0.324  10.710  20.430  0.00  0.00    +0.000 A 
ATOM      2  N   UNL     1       1.013  10.844  19.318  0.00  0.00    +0.000 NA
ATOM      3  C   UNL     1       1.350  12.166  19.266  0.00  0.00    +0.000 A 
ATOM      4  C   UNL     1       2.190  12.828  18.368  0.00  0.00    +0.000 A 
ATOM      5  C   UNL     1       2.442  14.154  18.664  0.00  0.00    +0.000 A 
ATOM      6  N   UNL     1       1.921  14.831  19.715  0.00  0.00    +0.000 NA
ATOM      7  C   UNL     1       1.061  14.202  20.549  0.00  0.00    +0.000 A 
ATOM      8  C   UNL     1       0.784  12.866  20.319  0.00  0.00    +0.000 A 
ATOM      9  N   UNL     1       0.004  11.932  20.974  0.00  0.00    +0.000 N 
ENDROOT
BRANCH   1  10
ATOM     10  S   UNL     1       0.055   9.182  21.206  0.00  0.00    +0.000 S 
BRANCH  10  11
ATOM     11  C   UNL     1       1.684   8.396  21.015  0.00  0.00    +0.000 C 
BRANCH  11  18
ATOM     12  C   UNL     1       1.217   3.447  20.792  0.00  0.00    +0.000 C 
ATOM     13  C   UNL     1       1.646   4.705  20.099  0.00  0.00    +0.000 A 
ATOM     14  C   UNL     1       2.202   4.667  18.827  0.00  0.00    +0.000 A 
ATOM     15  C   UNL     1       2.527   5.856  18.179  0.00  0.00    +0.000 A 
ATOM     16  C   UNL     1       2.338   7.118  18.786  0.00  0.00    +0.000 A 
ATOM     17  C   UNL     1       2.630   8.311  17.919  0.00  0.00    +0.000 C 
ATOM     18  C   UNL     1       1.872   7.176  20.116  0.00  0.00    +0.000 A 
ATOM     19  C   UNL     1       1.466   5.951  20.713  0.00  0.00    +0.000 A 
ENDBRANCH  11  18
ENDBRANCH  10  11
ENDBRANCH   1  10
BRANCH   9  20
ATOM     20  C   UNL     1      -0.837  12.242  22.120  0.00  0.00    +0.000 C 
BRANCH  20  21
ATOM     21  C   UNL     1      -2.273  12.424  21.740  0.00  0.00    +0.000 A 
ATOM     22  N   UNL     1      -2.743  12.573  20.436  0.00  0.00    +0.000 NA
ATOM     23  C   UNL     1      -4.058  12.727  20.563  0.00  0.00    +0.000 A 
ATOM     24  O   UNL     1      -4.471  12.702  21.867  0.00  0.00    +0.000 OA
ATOM     25  C   UNL     1      -3.345  12.508  22.599  0.00  0.00    +0.000 A 
ATOM     26  C   UNL     1      -3.499  12.401  24.059  0.00  0.00    +0.000 C 
BRANCH  23  27
ATOM     27  C   UNL     1      -5.136  12.782  19.553  0.00  0.00    +0.000 A 
ATOM     28  C   UNL     1      -5.296  11.690  18.679  0.00  0.00    +0.000 A 
ATOM     29  C   UNL     1      -6.346  11.628  17.750  0.00  0.00    +0.000 A 
ATOM     30  C   UNL     1      -7.264  12.676  17.656  0.00  0.00    +0.000 A 
ATOM     31  C   UNL     1      -7.120  13.777  18.497  0.00  0.00    +0.000 A 
ATOM     32  C   UNL     1      -6.067  13.833  19.435  0.00  0.00    +0.000 A 
ATOM     33 CL   UNL     1      -6.014  15.284  20.386  0.00  0.00    +0.000 Cl
ENDBRANCH  23  27
ENDBRANCH  20  21
ENDBRANCH   9  20
TORSDOF 6
ENDMDL
