MODEL 1
REMARK VINA RESULT:      -8.3      0.000      0.000
REMARK  Name = 
REMARK  5 active torsions:
REMARK  status: ('A' for Active; 'I' for Inactive)
REMARK    1  A    between atoms: C_1  and  C_2
REMARK    2  A    between atoms: C_4  and  O_5
REMARK    3  A    between atoms: C_6  and  C_7
REMARK    4  A    between atoms: N_8  and  N_9
REMARK    5  A    between atoms: N_9  and  C_10
REMARK                            x       y       z     vdW  Elec       q    Type
REMARK                         _______ _______ _______ _____ _____    ______ ____
ROOT
ATOM      1  C   UNL     1       6.027   4.425  18.191  0.00  0.00    +0.000 C 
ATOM      2  N   UNL     1       5.589   3.961  19.314  0.00  0.00    +0.000 NA
ENDROOT
BRANCH   1   7
ATOM      3  C   UNL     1       8.449   9.649  17.779  0.00  0.00    +0.000 C 
ATOM      4  C   UNL     1       7.917   8.259  17.921  0.00  0.00    +0.000 A 
ATOM      5  C   UNL     1       8.350   7.376  18.821  0.00  0.00    +0.000 A 
ATOM      6  C   UNL     1       7.739   6.076  18.893  0.00  0.00    +0.000 A 
ATOM      7  C   UNL     1       6.723   5.738  18.079  0.00  0.00    +0.000 A 
ATOM      8  C   UNL     1       6.287   6.692  17.038  0.00  0.00    +0.000 A 
ATOM      9  O   UNL     1       5.415   6.392  16.226  0.00  0.00    +0.000 OA
ATOM     10  O   UNL     1       6.888   7.928  17.009  0.00  0.00    +0.000 OA
BRANCH   6  11
ATOM     11  O   UNL     1       8.264   5.226  19.838  0.00  0.00    +0.000 OA
ATOM     12  H   UNL     1       8.562   4.399  19.426  0.00  0.00    +0.000 HD
ENDBRANCH   6  11
ENDBRANCH   1   7
BRANCH   2  13
ATOM     13  N   UNL     1       4.901   2.787  19.289  0.00  0.00    +0.000 N 
ATOM     14  H   UNL     1       5.354   1.921  19.588  0.00  0.00    +0.000 HD
BRANCH  13  15
ATOM     15  C   UNL     1       3.539   2.880  19.678  0.00  0.00    +0.000 A 
ATOM     16  C   UNL     1       3.187   2.735  21.034  0.00  0.00    +0.000 A 
ATOM     17  C   UNL     1       1.866   2.850  21.465  0.00  0.00    +0.000 A 
ATOM     18  C   UNL     1       0.861   3.135  20.547  0.00  0.00    +0.000 A 
ATOM     19  C   UNL     1       1.182   3.301  19.199  0.00  0.00    +0.000 A 
ATOM     20  C   UNL     1       2.511   3.178  18.768  0.00  0.00    +0.000 A 
ATOM     21 CL   UNL     1       2.837   3.359  17.079  0.00  0.00    +0.000 Cl
ENDBRANCH  13  15
ENDBRANCH   2  13
TORSDOF 4
ENDMDL
MODEL 2
REMARK VINA RESULT:      -7.4      0.638      1.907
REMARK  Name = 
REMARK  5 active torsions:
REMARK  status: ('A' for Active; 'I' for Inactive)
REMARK    1  A    between atoms: C_1  and  C_2
REMARK    2  A    between atoms: C_4  and  O_5
REMARK    3  A    between atoms: C_6  and  C_7
REMARK    4  A    between atoms: N_8  and  N_9
REMARK    5  A    between atoms: N_9  and  C_10
REMARK                            x       y       z     vdW  Elec       q    Type
REMARK                         _______ _______ _______ _____ _____    ______ ____
ROOT
ATOM      1  C   UNL     1       6.067   4.491  18.246  0.00  0.00    +0.000 C 
ATOM      2  N   UNL     1       5.463   4.042  19.297  0.00  0.00    +0.000 NA
ENDROOT
BRANCH   1   7
ATOM      3  C   UNL     1       8.836   9.550  18.008  0.00  0.00    +0.000 C 
ATOM      4  C   UNL     1       8.028   8.294  18.047  0.00  0.00    +0.000 A 
ATOM      5  C   UNL     1       6.929   8.083  17.320  0.00  0.00    +0.000 A 
ATOM      6  C   UNL     1       6.250   6.818  17.410  0.00  0.00    +0.000 A 
ATOM      7  C   UNL     1       6.712   5.833  18.200  0.00  0.00    +0.000 A 
ATOM      8  C   UNL     1       7.892   6.089  19.054  0.00  0.00    +0.000 A 
ATOM      9  O   UNL     1       8.298   5.243  19.846  0.00  0.00    +0.000 OA
ATOM     10  O   UNL     1       8.519   7.306  18.932  0.00  0.00    +0.000 OA
BRANCH   6  11
ATOM     11  O   UNL     1       5.117   6.698  16.640  0.00  0.00    +0.000 OA
ATOM     12  H   UNL     1       4.516   6.036  17.017  0.00  0.00    +0.000 HD
ENDBRANCH   6  11
ENDBRANCH   1   7
BRANCH   2  13
ATOM     13  N   UNL     1       4.843   2.835  19.203  0.00  0.00    +0.000 N 
ATOM     14  H   UNL     1       5.355   1.978  19.422  0.00  0.00    +0.000 HD
BRANCH  13  15
ATOM     15  C   UNL     1       3.491   2.816  19.638  0.00  0.00    +0.000 A 
ATOM     16  C   UNL     1       3.199   2.635  21.004  0.00  0.00    +0.000 A 
ATOM     17  C   UNL     1       1.888   2.641  21.480  0.00  0.00    +0.000 A 
ATOM     18  C   UNL     1       0.833   2.852  20.598  0.00  0.00    +0.000 A 
ATOM     19  C   UNL     1       1.094   3.052  19.242  0.00  0.00    +0.000 A 
ATOM     20  C   UNL     1       2.413   3.037  18.766  0.00  0.00    +0.000 A 
ATOM     21 CL   UNL     1       2.666   3.254  17.068  0.00  0.00    +0.000 Cl
ENDBRANCH  13  15
ENDBRANCH   2  13
TORSDOF 4
ENDMDL
MODEL 3
REMARK VINA RESULT:      -7.1      1.261      1.677
REMARK  Name = 
REMARK  5 active torsions:
REMARK  status: ('A' for Active; 'I' for Inactive)
REMARK    1  A    between atoms: C_1  and  C_2
REMARK    2  A    between atoms: C_4  and  O_5
REMARK    3  A    between atoms: C_6  and  C_7
REMARK    4  A    between atoms: N_8  and  N_9
REMARK    5  A    between atoms: N_9  and  C_10
REMARK                            x       y       z     vdW  Elec       q    Type
REMARK                         _______ _______ _______ _____ _____    ______ ____
ROOT
ATOM      1  C   UNL     1       6.342   4.626  17.777  0.00  0.00    +0.000 C 
ATOM      2  N   UNL     1       5.394   4.277  18.584  0.00  0.00    +0.000 NA
ENDROOT
BRANCH   1   7
ATOM      3  C   UNL     1       8.711   9.881  18.085  0.00  0.00    +0.000 C 
ATOM      4  C   UNL     1       8.185   8.482  18.054  0.00  0.00    +0.000 A 
ATOM      5  C   UNL     1       8.472   7.551  18.965  0.00  0.00    +0.000 A 
ATOM      6  C   UNL     1       7.880   6.245  18.857  0.00  0.00    +0.000 A 
ATOM      7  C   UNL     1       7.025   5.948  17.862  0.00  0.00    +0.000 A 
ATOM      8  C   UNL     1       6.758   6.958  16.816  0.00  0.00    +0.000 A 
ATOM      9  O   UNL     1       6.046   6.699  15.850  0.00  0.00    +0.000 OA
ATOM     10  O   UNL     1       7.335   8.198  16.961  0.00  0.00    +0.000 OA
BRANCH   6  11
ATOM     11  O   UNL     1       8.247   5.344  19.830  0.00  0.00    +0.000 OA
ATOM     12  H   UNL     1       7.988   4.444  19.577  0.00  0.00    +0.000 HD
ENDBRANCH   6  11
ENDBRANCH   1   7
BRANCH   2  13
ATOM     13  N   UNL     1       4.790   3.078  18.368  0.00  0.00    +0.000 N 
ATOM     14  H   UNL     1       5.310   2.209  18.508  0.00  0.00    +0.000 HD
BRANCH  13  15
ATOM     15  C   UNL     1       3.435   3.003  18.787  0.00  0.00    +0.000 A 
ATOM     16  C   UNL     1       2.409   3.410  17.913  0.00  0.00    +0.000 A 
ATOM     17  C   UNL     1       1.064   3.325  18.271  0.00  0.00    +0.000 A 
ATOM     18  C   UNL     1       0.710   2.806  19.512  0.00  0.00    +0.000 A 
ATOM     19  C   UNL     1       1.704   2.378  20.393  0.00  0.00    +0.000 A 
ATOM     20  C   UNL     1       3.057   2.472  20.032  0.00  0.00    +0.000 A 
ATOM     21 CL   UNL     1       4.242   1.959  21.183  0.00  0.00    +0.000 Cl
ENDBRANCH  13  15
ENDBRANCH   2  13
TORSDOF 4
ENDMDL
MODEL 4
REMARK VINA RESULT:      -6.9      1.374      1.754
REMARK  Name = 
REMARK  5 active torsions:
REMARK  status: ('A' for Active; 'I' for Inactive)
REMARK    1  A    between atoms: C_1  and  C_2
REMARK    2  A    between atoms: C_4  and  O_5
REMARK    3  A    between atoms: C_6  and  C_7
REMARK    4  A    between atoms: N_8  and  N_9
REMARK    5  A    between atoms: N_9  and  C_10
REMARK                            x       y       z     vdW  Elec       q    Type
REMARK                         _______ _______ _______ _____ _____    ______ ____
ROOT
ATOM      1  C   UNL     1       4.698   4.703  17.710  0.00  0.00    +0.000 C 
ATOM      2  N   UNL     1       4.948   3.435  17.678  0.00  0.00    +0.000 NA
ENDROOT
BRANCH   1   7
ATOM      3  C   UNL     1       8.639   8.919  17.801  0.00  0.00    +0.000 C 
ATOM      4  C   UNL     1       7.690   7.765  17.828  0.00  0.00    +0.000 A 
ATOM      5  C   UNL     1       7.678   6.823  18.772  0.00  0.00    +0.000 A 
ATOM      6  C   UNL     1       6.694   5.775  18.717  0.00  0.00    +0.000 A 
ATOM      7  C   UNL     1       5.772   5.735  17.739  0.00  0.00    +0.000 A 
ATOM      8  C   UNL     1       5.826   6.741  16.657  0.00  0.00    +0.000 A 
ATOM      9  O   UNL     1       5.051   6.693  15.706  0.00  0.00    +0.000 OA
ATOM     10  O   UNL     1       6.774   7.732  16.751  0.00  0.00    +0.000 OA
BRANCH   6  11
ATOM     11  O   UNL     1       6.769   4.839  19.722  0.00  0.00    +0.000 OA
ATOM     12  H   UNL     1       7.137   5.233  20.529  0.00  0.00    +0.000 HD
ENDBRANCH   6  11
ENDBRANCH   1   7
BRANCH   2  13
ATOM     13  N   UNL     1       3.891   2.580  17.730  0.00  0.00    +0.000 N 
ATOM     14  H   UNL     1       4.016   1.596  17.484  0.00  0.00    +0.000 HD
BRANCH  13  15
ATOM     15  C   UNL     1       3.003   2.786  18.820  0.00  0.00    +0.000 A 
ATOM     16  C   UNL     1       1.704   3.272  18.580  0.00  0.00    +0.000 A 
ATOM     17  C   UNL     1       0.789   3.459  19.616  0.00  0.00    +0.000 A 
ATOM     18  C   UNL     1       1.148   3.142  20.922  0.00  0.00    +0.000 A 
ATOM     19  C   UNL     1       2.423   2.642  21.187  0.00  0.00    +0.000 A 
ATOM     20  C   UNL     1       3.343   2.461  20.143  0.00  0.00    +0.000 A 
ATOM     21 CL   UNL     1       4.920   1.873  20.544  0.00  0.00    +0.000 Cl
ENDBRANCH  13  15
ENDBRANCH   2  13
TORSDOF 4
ENDMDL
MODEL 5
REMARK VINA RESULT:      -6.8      2.450      3.488
REMARK  Name = 
REMARK  5 active torsions:
REMARK  status: ('A' for Active; 'I' for Inactive)
REMARK    1  A    between atoms: C_1  and  C_2
REMARK    2  A    between atoms: C_4  and  O_5
REMARK    3  A    between atoms: C_6  and  C_7
REMARK    4  A    between atoms: N_8  and  N_9
REMARK    5  A    between atoms: N_9  and  C_10
REMARK                            x       y       z     vdW  Elec       q    Type
REMARK                         _______ _______ _______ _____ _____    ______ ____
ROOT
ATOM      1  C   UNL     1       5.692   4.856  18.154  0.00  0.00    +0.000 C 
ATOM      2  N   UNL     1       4.648   5.477  18.595  0.00  0.00    +0.000 NA
ENDROOT
BRANCH   1   7
ATOM      3  C   UNL     1       7.588   4.928  12.703  0.00  0.00    +0.000 C 
ATOM      4  C   UNL     1       6.998   4.891  14.075  0.00  0.00    +0.000 A 
ATOM      5  C   UNL     1       5.928   4.172  14.415  0.00  0.00    +0.000 A 
ATOM      6  C   UNL     1       5.468   4.183  15.778  0.00  0.00    +0.000 A 
ATOM      7  C   UNL     1       6.107   4.894  16.724  0.00  0.00    +0.000 A 
ATOM      8  C   UNL     1       7.253   5.742  16.335  0.00  0.00    +0.000 A 
ATOM      9  O   UNL     1       7.816   6.465  17.153  0.00  0.00    +0.000 OA
ATOM     10  O   UNL     1       7.670   5.696  15.025  0.00  0.00    +0.000 OA
BRANCH   6  11
ATOM     11  O   UNL     1       4.347   3.427  16.032  0.00  0.00    +0.000 OA
ATOM     12  H   UNL     1       4.577   2.486  16.092  0.00  0.00    +0.000 HD
ENDBRANCH   6  11
ENDBRANCH   1   7
BRANCH   2  13
ATOM     13  N   UNL     1       4.319   5.312  19.905  0.00  0.00    +0.000 N 
ATOM     14  H   UNL     1       4.447   6.081  20.566  0.00  0.00    +0.000 HD
BRANCH  13  15
ATOM     15  C   UNL     1       3.143   4.550  20.139  0.00  0.00    +0.000 A 
ATOM     16  C   UNL     1       1.897   5.198  20.230  0.00  0.00    +0.000 A 
ATOM     17  C   UNL     1       0.713   4.487  20.427  0.00  0.00    +0.000 A 
ATOM     18  C   UNL     1       0.747   3.099  20.518  0.00  0.00    +0.000 A 
ATOM     19  C   UNL     1       1.966   2.429  20.414  0.00  0.00    +0.000 A 
ATOM     20  C   UNL     1       3.156   3.148  20.222  0.00  0.00    +0.000 A 
ATOM     21 CL   UNL     1       4.637   2.260  20.139  0.00  0.00    +0.000 Cl
ENDBRANCH  13  15
ENDBRANCH   2  13
TORSDOF 4
ENDMDL
MODEL 6
REMARK VINA RESULT:      -6.8      1.437      2.566
REMARK  Name = 
REMARK  5 active torsions:
REMARK  status: ('A' for Active; 'I' for Inactive)
REMARK    1  A    between atoms: C_1  and  C_2
REMARK    2  A    between atoms: C_4  and  O_5
REMARK    3  A    between atoms: C_6  and  C_7
REMARK    4  A    between atoms: N_8  and  N_9
REMARK    5  A    between atoms: N_9  and  C_10
REMARK                            x       y       z     vdW  Elec       q    Type
REMARK                         _______ _______ _______ _____ _____    ______ ____
ROOT
ATOM      1  C   UNL     1       5.777   4.625  18.298  0.00  0.00    +0.000 C 
ATOM      2  N   UNL     1       5.163   4.095  17.292  0.00  0.00    +0.000 NA
ENDROOT
BRANCH   1   7
ATOM      3  C   UNL     1       8.863   9.484  17.870  0.00  0.00    +0.000 C 
ATOM      4  C   UNL     1       7.976   8.285  17.959  0.00  0.00    +0.000 A 
ATOM      5  C   UNL     1       6.844   8.134  17.271  0.00  0.00    +0.000 A 
ATOM      6  C   UNL     1       6.086   6.919  17.407  0.00  0.00    +0.000 A 
ATOM      7  C   UNL     1       6.507   5.921  18.205  0.00  0.00    +0.000 A 
ATOM      8  C   UNL     1       7.726   6.114  19.017  0.00  0.00    +0.000 A 
ATOM      9  O   UNL     1       8.101   5.259  19.815  0.00  0.00    +0.000 OA
ATOM     10  O   UNL     1       8.429   7.285  18.851  0.00  0.00    +0.000 OA
BRANCH   6  11
ATOM     11  O   UNL     1       4.924   6.859  16.673  0.00  0.00    +0.000 OA
ATOM     12  H   UNL     1       4.279   7.505  17.003  0.00  0.00    +0.000 HD
ENDBRANCH   6  11
ENDBRANCH   1   7
BRANCH   2  13
ATOM     13  N   UNL     1       4.593   2.873  17.471  0.00  0.00    +0.000 N 
ATOM     14  H   UNL     1       5.180   2.054  17.643  0.00  0.00    +0.000 HD
BRANCH  13  15
ATOM     15  C   UNL     1       3.386   2.875  18.220  0.00  0.00    +0.000 A 
ATOM     16  C   UNL     1       2.191   3.314  17.619  0.00  0.00    +0.000 A 
ATOM     17  C   UNL     1       0.978   3.304  18.307  0.00  0.00    +0.000 A 
ATOM     18  C   UNL     1       0.928   2.831  19.614  0.00  0.00    +0.000 A 
ATOM     19  C   UNL     1       2.093   2.373  20.229  0.00  0.00    +0.000 A 
ATOM     20  C   UNL     1       3.313   2.391  19.537  0.00  0.00    +0.000 A 
ATOM     21 CL   UNL     1       4.728   1.845  20.369  0.00  0.00    +0.000 Cl
ENDBRANCH  13  15
ENDBRANCH   2  13
TORSDOF 4
ENDMDL
MODEL 7
REMARK VINA RESULT:      -6.7      6.500      7.535
REMARK  Name = 
REMARK  5 active torsions:
REMARK  status: ('A' for Active; 'I' for Inactive)
REMARK    1  A    between atoms: C_1  and  C_2
REMARK    2  A    between atoms: C_4  and  O_5
REMARK    3  A    between atoms: C_6  and  C_7
REMARK    4  A    between atoms: N_8  and  N_9
REMARK    5  A    between atoms: N_9  and  C_10
REMARK                            x       y       z     vdW  Elec       q    Type
REMARK                         _______ _______ _______ _____ _____    ______ ____
ROOT
ATOM      1  C   UNL     1       1.312   8.772  21.377  0.00  0.00    +0.000 C 
ATOM      2  N   UNL     1       1.053   7.554  21.034  0.00  0.00    +0.000 NA
ENDROOT
BRANCH   1   7
ATOM      3  C   UNL     1      -2.554  13.039  21.794  0.00  0.00    +0.000 C 
ATOM      4  C   UNL     1      -1.600  11.906  21.593  0.00  0.00    +0.000 A 
ATOM      5  C   UNL     1      -1.215  11.449  20.401  0.00  0.00    +0.000 A 
ATOM      6  C   UNL     1      -0.261  10.375  20.326  0.00  0.00    +0.000 A 
ATOM      7  C   UNL     1       0.266   9.832  21.437  0.00  0.00    +0.000 A 
ATOM      8  C   UNL     1      -0.209  10.293  22.759  0.00  0.00    +0.000 A 
ATOM      9  O   UNL     1       0.190   9.769  23.796  0.00  0.00    +0.000 OA
ATOM     10  O   UNL     1      -1.113  11.329  22.789  0.00  0.00    +0.000 OA
BRANCH   6  11
ATOM     11  O   UNL     1       0.063   9.958  19.055  0.00  0.00    +0.000 OA
ATOM     12  H   UNL     1       0.365   9.035  19.066  0.00  0.00    +0.000 HD
ENDBRANCH   6  11
ENDBRANCH   1   7
BRANCH   2  13
ATOM     13  N   UNL     1       2.098   6.687  20.940  0.00  0.00    +0.000 N 
ATOM     14  H   UNL     1       2.638   6.444  21.773  0.00  0.00    +0.000 HD
BRANCH  13  15
ATOM     15  C   UNL     1       1.897   5.596  20.054  0.00  0.00    +0.000 A 
ATOM     16  C   UNL     1       1.256   4.430  20.514  0.00  0.00    +0.000 A 
ATOM     17  C   UNL     1       1.010   3.347  19.671  0.00  0.00    +0.000 A 
ATOM     18  C   UNL     1       1.382   3.414  18.332  0.00  0.00    +0.000 A 
ATOM     19  C   UNL     1       2.003   4.564  17.844  0.00  0.00    +0.000 A 
ATOM     20  C   UNL     1       2.256   5.649  18.697  0.00  0.00    +0.000 A 
ATOM     21 CL   UNL     1       3.062   7.030  18.037  0.00  0.00    +0.000 Cl
ENDBRANCH  13  15
ENDBRANCH   2  13
TORSDOF 4
ENDMDL
MODEL 8
REMARK VINA RESULT:      -6.7      2.222      3.208
REMARK  Name = 
REMARK  5 active torsions:
REMARK  status: ('A' for Active; 'I' for Inactive)
REMARK    1  A    between atoms: C_1  and  C_2
REMARK    2  A    between atoms: C_4  and  O_5
REMARK    3  A    between atoms: C_6  and  C_7
REMARK    4  A    between atoms: N_8  and  N_9
REMARK    5  A    between atoms: N_9  and  C_10
REMARK                            x       y       z     vdW  Elec       q    Type
REMARK                         _______ _______ _______ _____ _____    ______ ____
ROOT
ATOM      1  C   UNL     1       5.084   5.433  18.410  0.00  0.00    +0.000 C 
ATOM      2  N   UNL     1       3.906   5.933  18.584  0.00  0.00    +0.000 NA
ENDROOT
BRANCH   1   7
ATOM      3  C   UNL     1       7.818   4.938  13.350  0.00  0.00    +0.000 C 
ATOM      4  C   UNL     1       7.019   5.040  14.609  0.00  0.00    +0.000 A 
ATOM      5  C   UNL     1       5.921   4.328  14.863  0.00  0.00    +0.000 A 
ATOM      6  C   UNL     1       5.250   4.481  16.126  0.00  0.00    +0.000 A 
ATOM      7  C   UNL     1       5.720   5.319  17.067  0.00  0.00    +0.000 A 
ATOM      8  C   UNL     1       6.899   6.157  16.761  0.00  0.00    +0.000 A 
ATOM      9  O   UNL     1       7.313   6.989  17.564  0.00  0.00    +0.000 OA
ATOM     10  O   UNL     1       7.518   5.973  15.547  0.00  0.00    +0.000 OA
BRANCH   6  11
ATOM     11  O   UNL     1       4.116   3.720  16.292  0.00  0.00    +0.000 OA
ATOM     12  H   UNL     1       3.563   4.083  17.002  0.00  0.00    +0.000 HD
ENDBRANCH   6  11
ENDBRANCH   1   7
BRANCH   2  13
ATOM     13  N   UNL     1       3.392   5.919  19.844  0.00  0.00    +0.000 N 
ATOM     14  H   UNL     1       3.038   6.782  20.263  0.00  0.00    +0.000 HD
BRANCH  13  15
ATOM     15  C   UNL     1       2.618   4.772  20.165  0.00  0.00    +0.000 A 
ATOM     16  C   UNL     1       2.771   4.156  21.422  0.00  0.00    +0.000 A 
ATOM     17  C   UNL     1       2.010   3.047  21.792  0.00  0.00    +0.000 A 
ATOM     18  C   UNL     1       1.058   2.538  20.916  0.00  0.00    +0.000 A 
ATOM     19  C   UNL     1       0.872   3.139  19.670  0.00  0.00    +0.000 A 
ATOM     20  C   UNL     1       1.644   4.250  19.299  0.00  0.00    +0.000 A 
ATOM     21 CL   UNL     1       1.391   4.926  17.726  0.00  0.00    +0.000 Cl
ENDBRANCH  13  15
ENDBRANCH   2  13
TORSDOF 4
ENDMDL
MODEL 9
REMARK VINA RESULT:      -6.7      2.672      3.663
REMARK  Name = 
REMARK  5 active torsions:
REMARK  status: ('A' for Active; 'I' for Inactive)
REMARK    1  A    between atoms: C_1  and  C_2
REMARK    2  A    between atoms: C_4  and  O_5
REMARK    3  A    between atoms: C_6  and  C_7
REMARK    4  A    between atoms: N_8  and  N_9
REMARK    5  A    between atoms: N_9  and  C_10
REMARK                            x       y       z     vdW  Elec       q    Type
REMARK                         _______ _______ _______ _____ _____    ______ ____
ROOT
ATOM      1  C   UNL     1       5.645   5.112  17.945  0.00  0.00    +0.000 C 
ATOM      2  N   UNL     1       4.553   5.690  18.322  0.00  0.00    +0.000 NA
ENDROOT
BRANCH   1   7
ATOM      3  C   UNL     1       7.530   4.699  12.505  0.00  0.00    +0.000 C 
ATOM      4  C   UNL     1       6.943   4.786  13.876  0.00  0.00    +0.000 A 
ATOM      5  C   UNL     1       5.865   4.112  14.277  0.00  0.00    +0.000 A 
ATOM      6  C   UNL     1       5.407   4.244  15.634  0.00  0.00    +0.000 A 
ATOM      7  C   UNL     1       6.058   5.024  16.516  0.00  0.00    +0.000 A 
ATOM      8  C   UNL     1       7.214   5.821  16.055  0.00  0.00    +0.000 A 
ATOM      9  O   UNL     1       7.788   6.604  16.809  0.00  0.00    +0.000 OA
ATOM     10  O   UNL     1       7.627   5.659  14.754  0.00  0.00    +0.000 OA
BRANCH   6  11
ATOM     11  O   UNL     1       4.278   3.526  15.952  0.00  0.00    +0.000 OA
ATOM     12  H   UNL     1       4.245   3.346  16.906  0.00  0.00    +0.000 HD
ENDBRANCH   6  11
ENDBRANCH   1   7
BRANCH   2  13
ATOM     13  N   UNL     1       4.237   5.646  19.644  0.00  0.00    +0.000 N 
ATOM     14  H   UNL     1       4.229   6.505  20.198  0.00  0.00    +0.000 HD
BRANCH  13  15
ATOM     15  C   UNL     1       3.198   4.740  19.985  0.00  0.00    +0.000 A 
ATOM     16  C   UNL     1       3.427   3.353  19.910  0.00  0.00    +0.000 A 
ATOM     17  C   UNL     1       2.447   2.427  20.265  0.00  0.00    +0.000 A 
ATOM     18  C   UNL     1       1.212   2.871  20.727  0.00  0.00    +0.000 A 
ATOM     19  C   UNL     1       0.962   4.240  20.829  0.00  0.00    +0.000 A 
ATOM     20  C   UNL     1       1.949   5.168  20.464  0.00  0.00    +0.000 A 
ATOM     21 CL   UNL     1       1.563   6.850  20.579  0.00  0.00    +0.000 Cl
ENDBRANCH  13  15
ENDBRANCH   2  13
TORSDOF 4
ENDMDL
