MODEL 1
REMARK VINA RESULT:      -7.3      0.000      0.000
REMARK  Name = 
REMARK  6 active torsions:
REMARK  status: ('A' for Active; 'I' for Inactive)
REMARK    1  A    between atoms: C_1  and  O_2
REMARK    2  A    between atoms: O_2  and  C_3
REMARK    3  A    between atoms: C_6  and  C_7
REMARK    4  A    between atoms: N_12  and  C_13
REMARK    5  A    between atoms: C_13  and  C_14
REMARK    6  A    between atoms: C_19  and  C_20
REMARK                            x       y       z     vdW  Elec       q    Type
REMARK                         _______ _______ _______ _____ _____    ______ ____
ROOT
ATOM      1  C   UNL     1       3.289   5.745  19.229  0.00  0.00    +0.000 C 
ATOM      2  O   UNL     1       3.200   4.999  20.206  0.00  0.00    +0.000 OA
ATOM      3  N   UNL     1       2.486   6.872  19.057  0.00  0.00    +0.000 N 
ATOM      4  C   UNL     1       1.646   7.353  20.157  0.00  0.00    +0.000 C 
ATOM      5  C   UNL     1       1.616   8.904  20.211  0.00  0.00    +0.000 C 
ATOM      6  N   UNL     1       1.386   9.613  18.925  0.00  0.00    +0.000 NA
ATOM      7  C   UNL     1       2.290   9.033  17.897  0.00  0.00    +0.000 C 
ATOM      8  C   UNL     1       2.181   7.500  17.772  0.00  0.00    +0.000 C 
ENDROOT
BRANCH   1  12
ATOM      9  C   UNL     1       6.364   4.882  16.342  0.00  0.00    +0.000 A 
ATOM     10  C   UNL     1       6.482   5.986  17.193  0.00  0.00    +0.000 A 
ATOM     11  C   UNL     1       5.489   6.278  18.141  0.00  0.00    +0.000 A 
ATOM     12  C   UNL     1       4.356   5.465  18.224  0.00  0.00    +0.000 A 
ATOM     13  C   UNL     1       4.199   4.418  17.307  0.00  0.00    +0.000 A 
ATOM     14  C   UNL     1       5.212   4.101  16.400  0.00  0.00    +0.000 A 
BRANCH   9  16
ATOM     15  C   UNL     1       7.084   4.849  14.081  0.00  0.00    +0.000 C 
ATOM     16  O   UNL     1       7.394   4.693  15.464  0.00  0.00    +0.000 OA
ENDBRANCH   9  16
ENDBRANCH   1  12
BRANCH   6  17
ATOM     17  C   UNL     1       0.003   9.558  18.430  0.00  0.00    +0.000 C 
BRANCH  17  18
ATOM     18  C   UNL     1      -0.915  10.661  18.914  0.00  0.00    +0.000 A 
ATOM     19  C   UNL     1      -0.445  11.458  19.979  0.00  0.00    +0.000 A 
ATOM     20  C   UNL     1      -1.227  12.470  20.530  0.00  0.00    +0.000 A 
ATOM     21  C   UNL     1      -2.485  12.730  20.008  0.00  0.00    +0.000 A 
ATOM     22  C   UNL     1      -2.972  11.951  18.960  0.00  0.00    +0.000 A 
ATOM     23  C   UNL     1      -2.217  10.886  18.416  0.00  0.00    +0.000 A 
BRANCH  23  24
ATOM     24  C   UNL     1      -2.907  10.033  17.372  0.00  0.00    +0.000 C 
ATOM     25  F   UNL     1      -2.127   9.567  16.361  0.00  0.00    +0.000 F 
ATOM     26  F   UNL     1      -3.445   8.907  17.937  0.00  0.00    +0.000 F 
ATOM     27  F   UNL     1      -3.960  10.669  16.783  0.00  0.00    +0.000 F 
ENDBRANCH  23  24
ENDBRANCH  17  18
ENDBRANCH   6  17
TORSDOF 5
ENDMDL
MODEL 2
REMARK VINA RESULT:      -7.3      0.583      1.286
REMARK  Name = 
REMARK  6 active torsions:
REMARK  status: ('A' for Active; 'I' for Inactive)
REMARK    1  A    between atoms: C_1  and  O_2
REMARK    2  A    between atoms: O_2  and  C_3
REMARK    3  A    between atoms: C_6  and  C_7
REMARK    4  A    between atoms: N_12  and  C_13
REMARK    5  A    between atoms: C_13  and  C_14
REMARK    6  A    between atoms: C_19  and  C_20
REMARK                            x       y       z     vdW  Elec       q    Type
REMARK                         _______ _______ _______ _____ _____    ______ ____
ROOT
ATOM      1  C   UNL     1       3.206   5.258  19.357  0.00  0.00    +0.000 C 
ATOM      2  O   UNL     1       3.049   4.355  20.181  0.00  0.00    +0.000 OA
ATOM      3  N   UNL     1       2.438   6.422  19.350  0.00  0.00    +0.000 N 
ATOM      4  C   UNL     1       1.554   6.728  20.477  0.00  0.00    +0.000 C 
ATOM      5  C   UNL     1       1.556   8.246  20.804  0.00  0.00    +0.000 C 
ATOM      6  N   UNL     1       1.410   9.177  19.655  0.00  0.00    +0.000 NA
ATOM      7  C   UNL     1       2.353   8.760  18.585  0.00  0.00    +0.000 C 
ATOM      8  C   UNL     1       2.217   7.277  18.184  0.00  0.00    +0.000 C 
ENDROOT
BRANCH   1  12
ATOM      9  C   UNL     1       6.428   4.931  16.521  0.00  0.00    +0.000 A 
ATOM     10  C   UNL     1       5.177   4.370  16.239  0.00  0.00    +0.000 A 
ATOM     11  C   UNL     1       4.117   4.472  17.154  0.00  0.00    +0.000 A 
ATOM     12  C   UNL     1       4.318   5.126  18.371  0.00  0.00    +0.000 A 
ATOM     13  C   UNL     1       5.597   5.602  18.687  0.00  0.00    +0.000 A 
ATOM     14  C   UNL     1       6.634   5.544  17.755  0.00  0.00    +0.000 A 
BRANCH   9  16
ATOM     15  C   UNL     1       6.917   4.722  14.208  0.00  0.00    +0.000 C 
ATOM     16  O   UNL     1       7.382   4.775  15.555  0.00  0.00    +0.000 OA
ENDBRANCH   9  16
ENDBRANCH   1  12
BRANCH   6  17
ATOM     17  C   UNL     1       0.053   9.254  19.093  0.00  0.00    +0.000 C 
BRANCH  17  18
ATOM     18  C   UNL     1      -0.742  10.491  19.455  0.00  0.00    +0.000 A 
ATOM     19  C   UNL     1      -0.340  11.188  20.614  0.00  0.00    +0.000 A 
ATOM     20  C   UNL     1      -1.029  12.312  21.062  0.00  0.00    +0.000 A 
ATOM     21  C   UNL     1      -2.118  12.785  20.344  0.00  0.00    +0.000 A 
ATOM     22  C   UNL     1      -2.535  12.108  19.199  0.00  0.00    +0.000 A 
ATOM     23  C   UNL     1      -1.882  10.936  18.752  0.00  0.00    +0.000 A 
BRANCH  23  24
ATOM     24  C   UNL     1      -2.510  10.221  17.573  0.00  0.00    +0.000 C 
ATOM     25  F   UNL     1      -3.211   9.091  17.856  0.00  0.00    +0.000 F 
ATOM     26  F   UNL     1      -3.409  11.030  16.931  0.00  0.00    +0.000 F 
ATOM     27  F   UNL     1      -1.598   9.879  16.618  0.00  0.00    +0.000 F 
ENDBRANCH  23  24
ENDBRANCH  17  18
ENDBRANCH   6  17
TORSDOF 5
ENDMDL
MODEL 3
REMARK VINA RESULT:      -7.1      2.321      3.122
REMARK  Name = 
REMARK  6 active torsions:
REMARK  status: ('A' for Active; 'I' for Inactive)
REMARK    1  A    between atoms: C_1  and  O_2
REMARK    2  A    between atoms: O_2  and  C_3
REMARK    3  A    between atoms: C_6  and  C_7
REMARK    4  A    between atoms: N_12  and  C_13
REMARK    5  A    between atoms: C_13  and  C_14
REMARK    6  A    between atoms: C_19  and  C_20
REMARK                            x       y       z     vdW  Elec       q    Type
REMARK                         _______ _______ _______ _____ _____    ______ ____
ROOT
ATOM      1  C   UNL     1       3.581   3.811  17.567  0.00  0.00    +0.000 C 
ATOM      2  O   UNL     1       3.245   2.625  17.611  0.00  0.00    +0.000 OA
ATOM      3  N   UNL     1       2.949   4.807  18.312  0.00  0.00    +0.000 N 
ATOM      4  C   UNL     1       1.998   4.448  19.366  0.00  0.00    +0.000 C 
ATOM      5  C   UNL     1       2.135   5.384  20.597  0.00  0.00    +0.000 C 
ATOM      6  N   UNL     1       2.205   6.843  20.323  0.00  0.00    +0.000 NA
ATOM      7  C   UNL     1       3.197   7.073  19.239  0.00  0.00    +0.000 C 
ATOM      8  C   UNL     1       2.938   6.230  17.974  0.00  0.00    +0.000 C 
ENDROOT
BRANCH   1  12
ATOM      9  C   UNL     1       7.001   4.912  15.197  0.00  0.00    +0.000 A 
ATOM     10  C   UNL     1       5.785   4.597  14.581  0.00  0.00    +0.000 A 
ATOM     11  C   UNL     1       4.661   4.239  15.342  0.00  0.00    +0.000 A 
ATOM     12  C   UNL     1       4.762   4.179  16.733  0.00  0.00    +0.000 A 
ATOM     13  C   UNL     1       6.005   4.403  17.338  0.00  0.00    +0.000 A 
ATOM     14  C   UNL     1       7.107   4.808  16.582  0.00  0.00    +0.000 A 
BRANCH   9  16
ATOM     15  C   UNL     1       7.736   5.213  12.961  0.00  0.00    +0.000 C 
ATOM     16  O   UNL     1       8.024   5.252  14.357  0.00  0.00    +0.000 OA
ENDBRANCH   9  16
ENDBRANCH   1  12
BRANCH   6  17
ATOM     17  C   UNL     1       0.926   7.460  19.939  0.00  0.00    +0.000 C 
BRANCH  17  18
ATOM     18  C   UNL     1       0.520   8.683  20.732  0.00  0.00    +0.000 A 
ATOM     19  C   UNL     1       0.085   8.466  22.057  0.00  0.00    +0.000 A 
ATOM     20  C   UNL     1      -0.353   9.516  22.860  0.00  0.00    +0.000 A 
ATOM     21  C   UNL     1      -0.337  10.813  22.368  0.00  0.00    +0.000 A 
ATOM     22  C   UNL     1       0.083  11.049  21.060  0.00  0.00    +0.000 A 
ATOM     23  C   UNL     1       0.485   9.994  20.209  0.00  0.00    +0.000 A 
BRANCH  23  24
ATOM     24  C   UNL     1       0.793  10.364  18.773  0.00  0.00    +0.000 C 
ATOM     25  F   UNL     1       2.024  10.018  18.311  0.00  0.00    +0.000 F 
ATOM     26  F   UNL     1      -0.079   9.753  17.912  0.00  0.00    +0.000 F 
ATOM     27  F   UNL     1       0.652  11.698  18.530  0.00  0.00    +0.000 F 
ENDBRANCH  23  24
ENDBRANCH  17  18
ENDBRANCH   6  17
TORSDOF 5
ENDMDL
MODEL 4
REMARK VINA RESULT:      -7.1      2.275      3.052
REMARK  Name = 
REMARK  6 active torsions:
REMARK  status: ('A' for Active; 'I' for Inactive)
REMARK    1  A    between atoms: C_1  and  O_2
REMARK    2  A    between atoms: O_2  and  C_3
REMARK    3  A    between atoms: C_6  and  C_7
REMARK    4  A    between atoms: N_12  and  C_13
REMARK    5  A    between atoms: C_13  and  C_14
REMARK    6  A    between atoms: C_19  and  C_20
REMARK                            x       y       z     vdW  Elec       q    Type
REMARK                         _______ _______ _______ _____ _____    ______ ____
ROOT
ATOM      1  C   UNL     1       3.534   3.815  17.673  0.00  0.00    +0.000 C 
ATOM      2  O   UNL     1       3.232   2.621  17.724  0.00  0.00    +0.000 OA
ATOM      3  N   UNL     1       2.885   4.795  18.423  0.00  0.00    +0.000 N 
ATOM      4  C   UNL     1       1.958   4.413  19.490  0.00  0.00    +0.000 C 
ATOM      5  C   UNL     1       2.085   5.356  20.717  0.00  0.00    +0.000 C 
ATOM      6  N   UNL     1       2.111   6.816  20.438  0.00  0.00    +0.000 NA
ATOM      7  C   UNL     1       3.082   7.070  19.341  0.00  0.00    +0.000 C 
ATOM      8  C   UNL     1       2.830   6.217  18.082  0.00  0.00    +0.000 C 
ENDROOT
BRANCH   1  12
ATOM      9  C   UNL     1       6.868   4.919  15.184  0.00  0.00    +0.000 A 
ATOM     10  C   UNL     1       6.992   4.927  16.578  0.00  0.00    +0.000 A 
ATOM     11  C   UNL     1       5.914   4.566  17.401  0.00  0.00    +0.000 A 
ATOM     12  C   UNL     1       4.694   4.213  16.822  0.00  0.00    +0.000 A 
ATOM     13  C   UNL     1       4.547   4.298  15.432  0.00  0.00    +0.000 A 
ATOM     14  C   UNL     1       5.636   4.608  14.615  0.00  0.00    +0.000 A 
BRANCH   9  16
ATOM     15  C   UNL     1       7.865   5.296  13.063  0.00  0.00    +0.000 C 
ATOM     16  O   UNL     1       7.985   5.283  14.485  0.00  0.00    +0.000 OA
ENDBRANCH   9  16
ENDBRANCH   1  12
BRANCH   6  17
ATOM     17  C   UNL     1       0.811   7.396  20.069  0.00  0.00    +0.000 C 
BRANCH  17  18
ATOM     18  C   UNL     1       0.421   8.661  20.804  0.00  0.00    +0.000 A 
ATOM     19  C   UNL     1       0.006   8.516  22.145  0.00  0.00    +0.000 A 
ATOM     20  C   UNL     1      -0.416   9.609  22.898  0.00  0.00    +0.000 A 
ATOM     21  C   UNL     1      -0.403  10.878  22.338  0.00  0.00    +0.000 A 
ATOM     22  C   UNL     1      -0.002  11.043  21.013  0.00  0.00    +0.000 A 
ATOM     23  C   UNL     1       0.384   9.943  20.214  0.00  0.00    +0.000 A 
BRANCH  23  24
ATOM     24  C   UNL     1       0.672  10.236  18.755  0.00  0.00    +0.000 C 
ATOM     25  F   UNL     1      -0.118   9.607  17.845  0.00  0.00    +0.000 F 
ATOM     26  F   UNL     1       0.512  11.569  18.482  0.00  0.00    +0.000 F 
ATOM     27  F   UNL     1       1.960   9.956  18.406  0.00  0.00    +0.000 F 
ENDBRANCH  23  24
ENDBRANCH  17  18
ENDBRANCH   6  17
TORSDOF 5
ENDMDL
MODEL 5
REMARK VINA RESULT:      -6.9      4.062      8.726
REMARK  Name = 
REMARK  6 active torsions:
REMARK  status: ('A' for Active; 'I' for Inactive)
REMARK    1  A    between atoms: C_1  and  O_2
REMARK    2  A    between atoms: O_2  and  C_3
REMARK    3  A    between atoms: C_6  and  C_7
REMARK    4  A    between atoms: N_12  and  C_13
REMARK    5  A    between atoms: C_13  and  C_14
REMARK    6  A    between atoms: C_19  and  C_20
REMARK                            x       y       z     vdW  Elec       q    Type
REMARK                         _______ _______ _______ _____ _____    ______ ____
ROOT
ATOM      1  C   UNL     1       1.010   8.657  20.683  0.00  0.00    +0.000 C 
ATOM      2  O   UNL     1       0.596   8.422  21.820  0.00  0.00    +0.000 OA
ATOM      3  N   UNL     1       1.819   7.772  19.971  0.00  0.00    +0.000 N 
ATOM      4  C   UNL     1       2.026   6.406  20.460  0.00  0.00    +0.000 C 
ATOM      5  C   UNL     1       2.059   5.384  19.292  0.00  0.00    +0.000 C 
ATOM      6  N   UNL     1       2.901   5.737  18.119  0.00  0.00    +0.000 NA
ATOM      7  C   UNL     1       2.601   7.139  17.725  0.00  0.00    +0.000 C 
ATOM      8  C   UNL     1       2.724   8.147  18.885  0.00  0.00    +0.000 C 
ENDROOT
BRANCH   1  12
ATOM      9  C   UNL     1      -0.282  12.257  18.710  0.00  0.00    +0.000 A 
ATOM     10  C   UNL     1       0.686  12.311  19.718  0.00  0.00    +0.000 A 
ATOM     11  C   UNL     1       1.119  11.145  20.368  0.00  0.00    +0.000 A 
ATOM     12  C   UNL     1       0.561   9.914  20.016  0.00  0.00    +0.000 A 
ATOM     13  C   UNL     1      -0.474   9.877  19.074  0.00  0.00    +0.000 A 
ATOM     14  C   UNL     1      -0.865  11.033  18.395  0.00  0.00    +0.000 A 
BRANCH   9  16
ATOM     15  C   UNL     1      -0.157  14.625  18.815  0.00  0.00    +0.000 C 
ATOM     16  O   UNL     1      -0.621  13.455  18.144  0.00  0.00    +0.000 OA
ENDBRANCH   9  16
ENDBRANCH   1  12
BRANCH   6  17
ATOM     17  C   UNL     1       4.349   5.603  18.337  0.00  0.00    +0.000 C 
BRANCH  17  18
ATOM     18  C   UNL     1       5.166   5.213  17.123  0.00  0.00    +0.000 A 
ATOM     19  C   UNL     1       4.714   4.100  16.383  0.00  0.00    +0.000 A 
ATOM     20  C   UNL     1       5.414   3.629  15.276  0.00  0.00    +0.000 A 
ATOM     21  C   UNL     1       6.567   4.281  14.862  0.00  0.00    +0.000 A 
ATOM     22  C   UNL     1       7.035   5.379  15.582  0.00  0.00    +0.000 A 
ATOM     23  C   UNL     1       6.369   5.845  16.739  0.00  0.00    +0.000 A 
BRANCH  23  24
ATOM     24  C   UNL     1       7.047   6.961  17.506  0.00  0.00    +0.000 C 
ATOM     25  F   UNL     1       8.124   7.537  16.910  0.00  0.00    +0.000 F 
ATOM     26  F   UNL     1       6.181   8.000  17.726  0.00  0.00    +0.000 F 
ATOM     27  F   UNL     1       7.455   6.575  18.748  0.00  0.00    +0.000 F 
ENDBRANCH  23  24
ENDBRANCH  17  18
ENDBRANCH   6  17
TORSDOF 5
ENDMDL
MODEL 6
REMARK VINA RESULT:      -6.9      0.989      1.255
REMARK  Name = 
REMARK  6 active torsions:
REMARK  status: ('A' for Active; 'I' for Inactive)
REMARK    1  A    between atoms: C_1  and  O_2
REMARK    2  A    between atoms: O_2  and  C_3
REMARK    3  A    between atoms: C_6  and  C_7
REMARK    4  A    between atoms: N_12  and  C_13
REMARK    5  A    between atoms: C_13  and  C_14
REMARK    6  A    between atoms: C_19  and  C_20
REMARK                            x       y       z     vdW  Elec       q    Type
REMARK                         _______ _______ _______ _____ _____    ______ ____
ROOT
ATOM      1  C   UNL     1       3.027   5.000  19.491  0.00  0.00    +0.000 C 
ATOM      2  O   UNL     1       2.801   4.056  20.251  0.00  0.00    +0.000 OA
ATOM      3  N   UNL     1       2.331   6.207  19.552  0.00  0.00    +0.000 N 
ATOM      4  C   UNL     1       1.448   6.492  20.685  0.00  0.00    +0.000 C 
ATOM      5  C   UNL     1       1.536   7.982  21.112  0.00  0.00    +0.000 C 
ATOM      6  N   UNL     1       1.466   8.994  20.026  0.00  0.00    +0.000 NA
ATOM      7  C   UNL     1       2.400   8.590  18.941  0.00  0.00    +0.000 C 
ATOM      8  C   UNL     1       2.181   7.148  18.442  0.00  0.00    +0.000 C 
ENDROOT
BRANCH   1  12
ATOM      9  C   UNL     1       6.238   4.555  16.660  0.00  0.00    +0.000 A 
ATOM     10  C   UNL     1       6.433   5.276  17.843  0.00  0.00    +0.000 A 
ATOM     11  C   UNL     1       5.395   5.426  18.776  0.00  0.00    +0.000 A 
ATOM     12  C   UNL     1       4.145   4.864  18.512  0.00  0.00    +0.000 A 
ATOM     13  C   UNL     1       3.929   4.225  17.285  0.00  0.00    +0.000 A 
ATOM     14  C   UNL     1       4.977   4.034  16.382  0.00  0.00    +0.000 A 
BRANCH   9  16
ATOM     15  C   UNL     1       7.119   4.892  14.481  0.00  0.00    +0.000 C 
ATOM     16  O   UNL     1       7.320   4.469  15.829  0.00  0.00    +0.000 OA
ENDBRANCH   9  16
ENDBRANCH   1  12
BRANCH   6  17
ATOM     17  C   UNL     1       0.126   9.191  19.452  0.00  0.00    +0.000 C 
BRANCH  17  18
ATOM     18  C   UNL     1      -0.302  10.630  19.255  0.00  0.00    +0.000 A 
ATOM     19  C   UNL     1       0.274  11.588  20.116  0.00  0.00    +0.000 A 
ATOM     20  C   UNL     1      -0.083  12.933  20.051  0.00  0.00    +0.000 A 
ATOM     21  C   UNL     1      -1.001  13.356  19.101  0.00  0.00    +0.000 A 
ATOM     22  C   UNL     1      -1.586  12.425  18.244  0.00  0.00    +0.000 A 
ATOM     23  C   UNL     1      -1.277  11.048  18.324  0.00  0.00    +0.000 A 
BRANCH  23  24
ATOM     24  C   UNL     1      -2.075  10.123  17.428  0.00  0.00    +0.000 C 
ATOM     25  F   UNL     1      -2.995   9.332  18.042  0.00  0.00    +0.000 F 
ATOM     26  F   UNL     1      -2.798  10.835  16.508  0.00  0.00    +0.000 F 
ATOM     27  F   UNL     1      -1.285   9.293  16.690  0.00  0.00    +0.000 F 
ENDBRANCH  23  24
ENDBRANCH  17  18
ENDBRANCH   6  17
TORSDOF 5
ENDMDL
MODEL 7
REMARK VINA RESULT:      -6.9      3.309      4.413
REMARK  Name = 
REMARK  6 active torsions:
REMARK  status: ('A' for Active; 'I' for Inactive)
REMARK    1  A    between atoms: C_1  and  O_2
REMARK    2  A    between atoms: O_2  and  C_3
REMARK    3  A    between atoms: C_6  and  C_7
REMARK    4  A    between atoms: N_12  and  C_13
REMARK    5  A    between atoms: C_13  and  C_14
REMARK    6  A    between atoms: C_19  and  C_20
REMARK                            x       y       z     vdW  Elec       q    Type
REMARK                         _______ _______ _______ _____ _____    ______ ____
ROOT
ATOM      1  C   UNL     1       2.414   7.823  18.285  0.00  0.00    +0.000 C 
ATOM      2  O   UNL     1       2.841   8.266  17.217  0.00  0.00    +0.000 OA
ATOM      3  N   UNL     1       1.687   8.595  19.192  0.00  0.00    +0.000 N 
ATOM      4  C   UNL     1       1.196   9.919  18.804  0.00  0.00    +0.000 C 
ATOM      5  C   UNL     1      -0.219  10.191  19.383  0.00  0.00    +0.000 C 
ATOM      6  N   UNL     1      -0.427   9.870  20.819  0.00  0.00    +0.000 NA
ATOM      7  C   UNL     1       0.114   8.510  21.082  0.00  0.00    +0.000 C 
ATOM      8  C   UNL     1       1.575   8.326  20.625  0.00  0.00    +0.000 C 
ENDROOT
BRANCH   1  12
ATOM      9  C   UNL     1       2.970   3.645  19.157  0.00  0.00    +0.000 A 
ATOM     10  C   UNL     1       3.930   4.584  19.551  0.00  0.00    +0.000 A 
ATOM     11  C   UNL     1       3.760   5.950  19.276  0.00  0.00    +0.000 A 
ATOM     12  C   UNL     1       2.626   6.376  18.583  0.00  0.00    +0.000 A 
ATOM     13  C   UNL     1       1.716   5.423  18.109  0.00  0.00    +0.000 A 
ATOM     14  C   UNL     1       1.863   4.071  18.428  0.00  0.00    +0.000 A 
BRANCH   9  16
ATOM     15  C   UNL     1       3.594   1.482  18.406  0.00  0.00    +0.000 C 
ATOM     16  O   UNL     1       3.239   2.345  19.484  0.00  0.00    +0.000 OA
ENDBRANCH   9  16
ENDBRANCH   1  12
BRANCH   6  17
ATOM     17  C   UNL     1       0.189  10.818  21.758  0.00  0.00    +0.000 C 
BRANCH  17  18
ATOM     18  C   UNL     1      -0.716  11.916  22.275  0.00  0.00    +0.000 A 
ATOM     19  C   UNL     1      -1.831  11.514  23.040  0.00  0.00    +0.000 A 
ATOM     20  C   UNL     1      -2.752  12.439  23.526  0.00  0.00    +0.000 A 
ATOM     21  C   UNL     1      -2.562  13.791  23.286  0.00  0.00    +0.000 A 
ATOM     22  C   UNL     1      -1.470  14.211  22.527  0.00  0.00    +0.000 A 
ATOM     23  C   UNL     1      -0.549  13.288  21.981  0.00  0.00    +0.000 A 
BRANCH  23  24
ATOM     24  C   UNL     1       0.517  13.856  21.068  0.00  0.00    +0.000 C 
ATOM     25  F   UNL     1       0.500  13.427  19.779  0.00  0.00    +0.000 F 
ATOM     26  F   UNL     1       0.408  15.219  20.976  0.00  0.00    +0.000 F 
ATOM     27  F   UNL     1       1.780  13.634  21.531  0.00  0.00    +0.000 F 
ENDBRANCH  23  24
ENDBRANCH  17  18
ENDBRANCH   6  17
TORSDOF 5
ENDMDL
MODEL 8
REMARK VINA RESULT:      -6.8      4.056      8.755
REMARK  Name = 
REMARK  6 active torsions:
REMARK  status: ('A' for Active; 'I' for Inactive)
REMARK    1  A    between atoms: C_1  and  O_2
REMARK    2  A    between atoms: O_2  and  C_3
REMARK    3  A    between atoms: C_6  and  C_7
REMARK    4  A    between atoms: N_12  and  C_13
REMARK    5  A    between atoms: C_13  and  C_14
REMARK    6  A    between atoms: C_19  and  C_20
REMARK                            x       y       z     vdW  Elec       q    Type
REMARK                         _______ _______ _______ _____ _____    ______ ____
ROOT
ATOM      1  C   UNL     1       1.007   8.503  20.751  0.00  0.00    +0.000 C 
ATOM      2  O   UNL     1       0.586   8.242  21.879  0.00  0.00    +0.000 OA
ATOM      3  N   UNL     1       1.814   7.631  20.020  0.00  0.00    +0.000 N 
ATOM      4  C   UNL     1       2.008   6.252  20.474  0.00  0.00    +0.000 C 
ATOM      5  C   UNL     1       2.040   5.261  19.280  0.00  0.00    +0.000 C 
ATOM      6  N   UNL     1       2.891   5.637  18.121  0.00  0.00    +0.000 NA
ATOM      7  C   UNL     1       2.603   7.051  17.762  0.00  0.00    +0.000 C 
ATOM      8  C   UNL     1       2.728   8.028  18.949  0.00  0.00    +0.000 C 
ENDROOT
BRANCH   1  12
ATOM      9  C   UNL     1      -0.256  12.211  18.968  0.00  0.00    +0.000 A 
ATOM     10  C   UNL     1      -0.690  10.990  18.442  0.00  0.00    +0.000 A 
ATOM     11  C   UNL     1      -0.289   9.773  19.016  0.00  0.00    +0.000 A 
ATOM     12  C   UNL     1       0.572   9.781  20.115  0.00  0.00    +0.000 A 
ATOM     13  C   UNL     1       1.078  11.003  20.578  0.00  0.00    +0.000 A 
ATOM     14  C   UNL     1       0.636  12.212  20.037  0.00  0.00    +0.000 A 
BRANCH   9  16
ATOM     15  C   UNL     1      -0.126  14.569  18.723  0.00  0.00    +0.000 C 
ATOM     16  O   UNL     1      -0.716  13.331  18.331  0.00  0.00    +0.000 OA
ENDBRANCH   9  16
ENDBRANCH   1  12
BRANCH   6  17
ATOM     17  C   UNL     1       4.337   5.487  18.344  0.00  0.00    +0.000 C 
BRANCH  17  18
ATOM     18  C   UNL     1       5.161   5.146  17.120  0.00  0.00    +0.000 A 
ATOM     19  C   UNL     1       4.757   4.017  16.375  0.00  0.00    +0.000 A 
ATOM     20  C   UNL     1       5.469   3.590  15.258  0.00  0.00    +0.000 A 
ATOM     21  C   UNL     1       6.585   4.299  14.840  0.00  0.00    +0.000 A 
ATOM     22  C   UNL     1       7.005   5.414  15.564  0.00  0.00    +0.000 A 
ATOM     23  C   UNL     1       6.328   5.838  16.729  0.00  0.00    +0.000 A 
BRANCH  23  24
ATOM     24  C   UNL     1       6.957   6.981  17.499  0.00  0.00    +0.000 C 
ATOM     25  F   UNL     1       6.153   8.043  17.769  0.00  0.00    +0.000 F 
ATOM     26  F   UNL     1       7.394   6.562  18.728  0.00  0.00    +0.000 F 
ATOM     27  F   UNL     1       8.065   7.484  16.884  0.00  0.00    +0.000 F 
ENDBRANCH  23  24
ENDBRANCH  17  18
ENDBRANCH   6  17
TORSDOF 5
ENDMDL
MODEL 9
REMARK VINA RESULT:      -6.8      2.304      2.877
REMARK  Name = 
REMARK  6 active torsions:
REMARK  status: ('A' for Active; 'I' for Inactive)
REMARK    1  A    between atoms: C_1  and  O_2
REMARK    2  A    between atoms: O_2  and  C_3
REMARK    3  A    between atoms: C_6  and  C_7
REMARK    4  A    between atoms: N_12  and  C_13
REMARK    5  A    between atoms: C_13  and  C_14
REMARK    6  A    between atoms: C_19  and  C_20
REMARK                            x       y       z     vdW  Elec       q    Type
REMARK                         _______ _______ _______ _____ _____    ______ ____
ROOT
ATOM      1  C   UNL     1       3.459   4.981  18.946  0.00  0.00    +0.000 C 
ATOM      2  O   UNL     1       3.376   3.938  19.597  0.00  0.00    +0.000 OA
ATOM      3  N   UNL     1       2.665   6.099  19.198  0.00  0.00    +0.000 N 
ATOM      4  C   UNL     1       1.847   6.164  20.412  0.00  0.00    +0.000 C 
ATOM      5  C   UNL     1       1.835   7.595  21.012  0.00  0.00    +0.000 C 
ATOM      6  N   UNL     1       1.593   8.715  20.065  0.00  0.00    +0.000 NA
ATOM      7  C   UNL     1       2.475   8.533  18.882  0.00  0.00    +0.000 C 
ATOM      8  C   UNL     1       2.348   7.144  18.225  0.00  0.00    +0.000 C 
ENDROOT
BRANCH   1  12
ATOM      9  C   UNL     1       6.488   5.293  15.904  0.00  0.00    +0.000 A 
ATOM     10  C   UNL     1       5.355   4.499  15.695  0.00  0.00    +0.000 A 
ATOM     11  C   UNL     1       4.358   4.391  16.677  0.00  0.00    +0.000 A 
ATOM     12  C   UNL     1       4.508   5.070  17.888  0.00  0.00    +0.000 A 
ATOM     13  C   UNL     1       5.687   5.786  18.128  0.00  0.00    +0.000 A 
ATOM     14  C   UNL     1       6.652   5.932  17.130  0.00  0.00    +0.000 A 
BRANCH   9  16
ATOM     15  C   UNL     1       6.986   4.702  13.660  0.00  0.00    +0.000 C 
ATOM     16  O   UNL     1       7.389   5.327  14.876  0.00  0.00    +0.000 OA
ENDBRANCH   9  16
ENDBRANCH   1  12
BRANCH   6  17
ATOM     17  C   UNL     1       0.202   8.846  19.607  0.00  0.00    +0.000 C 
BRANCH  17  18
ATOM     18  C   UNL     1      -0.438  10.201  19.822  0.00  0.00    +0.000 A 
ATOM     19  C   UNL     1      -0.575  11.027  18.687  0.00  0.00    +0.000 A 
ATOM     20  C   UNL     1      -1.110  12.310  18.780  0.00  0.00    +0.000 A 
ATOM     21  C   UNL     1      -1.549  12.785  20.006  0.00  0.00    +0.000 A 
ATOM     22  C   UNL     1      -1.418  11.988  21.143  0.00  0.00    +0.000 A 
ATOM     23  C   UNL     1      -0.834  10.702  21.082  0.00  0.00    +0.000 A 
BRANCH  23  24
ATOM     24  C   UNL     1      -0.628   9.989  22.403  0.00  0.00    +0.000 C 
ATOM     25  F   UNL     1      -0.923   8.663  22.426  0.00  0.00    +0.000 F 
ATOM     26  F   UNL     1       0.682  10.055  22.796  0.00  0.00    +0.000 F 
ATOM     27  F   UNL     1      -1.331  10.558  23.423  0.00  0.00    +0.000 F 
ENDBRANCH  23  24
ENDBRANCH  17  18
ENDBRANCH   6  17
TORSDOF 5
ENDMDL
