MODEL 1
REMARK VINA RESULT:      -7.9      0.000      0.000
REMARK  Name = 
REMARK  6 active torsions:
REMARK  status: ('A' for Active; 'I' for Inactive)
REMARK    1  A    between atoms: C_1  and  O_2
REMARK    2  A    between atoms: O_2  and  C_3
REMARK    3  A    between atoms: C_11  and  N_12
REMARK    4  A    between atoms: N_15  and  C_16
REMARK    5  A    between atoms: C_16  and  C_17
REMARK    6  A    between atoms: C_16  and  C_18
REMARK                            x       y       z     vdW  Elec       q    Type
REMARK                         _______ _______ _______ _____ _____    ______ ____
ROOT
ATOM      1  C   UNL     1       4.782   4.367  16.644  0.00  0.00    +0.000 C 
ATOM      2  O   UNL     1       5.390   5.011  17.488  0.00  0.00    +0.000 OA
ATOM      3  N   UNL     1       3.505   3.885  16.751  0.00  0.00    +0.000 N 
ATOM      4  C   UNL     1       2.775   4.065  17.899  0.00  0.00    +0.000 A 
ATOM      5  N   UNL     1       2.046   3.071  18.419  0.00  0.00    +0.000 NA
ATOM      6  N   UNL     1       1.608   3.576  19.591  0.00  0.00    +0.000 N 
ATOM      7  C   UNL     1       1.867   4.909  19.758  0.00  0.00    +0.000 A 
ATOM      8  C   UNL     1       1.519   5.838  20.754  0.00  0.00    +0.000 A 
ATOM      9  C   UNL     1       1.922   7.148  20.499  0.00  0.00    +0.000 A 
ATOM     10  N   UNL     1       2.623   7.501  19.395  0.00  0.00    +0.000 NA
ATOM     11  C   UNL     1       3.002   6.582  18.485  0.00  0.00    +0.000 A 
ATOM     12  C   UNL     1       2.623   5.257  18.648  0.00  0.00    +0.000 A 
ATOM     13  H   UNL     1       3.287   3.081  16.191  0.00  0.00    +0.000 HD
ATOM     14  H   UNL     1       1.110   2.955  20.219  0.00  0.00    +0.000 HD
ENDROOT
BRANCH   9  15
ATOM     15  N   UNL     1       1.570   8.168  21.397  0.00  0.00    +0.000 N 
ATOM     16  C   UNL     1       0.891   9.334  21.113  0.00  0.00    +0.000 C 
ATOM     17  O   UNL     1       0.594  10.115  22.007  0.00  0.00    +0.000 OA
ATOM     18  N   UNL     1       0.576   9.524  19.804  0.00  0.00    +0.000 N 
ATOM     19  H   UNL     1       1.786   8.053  22.377  0.00  0.00    +0.000 HD
ATOM     20  H   UNL     1       0.850   8.761  19.193  0.00  0.00    +0.000 HD
BRANCH  18  21
ATOM     21  C   UNL     1      -0.272  10.549  19.250  0.00  0.00    +0.000 C 
ATOM     22  C   UNL     1      -1.025  10.035  18.017  0.00  0.00    +0.000 C 
BRANCH  21  23
ATOM     23  C   UNL     1       0.572  11.769  18.893  0.00  0.00    +0.000 A 
ATOM     24  C   UNL     1       1.878  11.602  18.403  0.00  0.00    +0.000 A 
ATOM     25  C   UNL     1       2.692  12.709  18.138  0.00  0.00    +0.000 A 
ATOM     26  C   UNL     1       2.205  14.000  18.344  0.00  0.00    +0.000 A 
ATOM     27 CL   UNL     1       3.237  15.351  18.074  0.00  0.00    +0.000 Cl
ATOM     28  C   UNL     1       0.896  14.180  18.776  0.00  0.00    +0.000 A 
ATOM     29  F   UNL     1       0.395  15.412  18.958  0.00  0.00    +0.000 F 
ATOM     30  C   UNL     1       0.080  13.081  19.042  0.00  0.00    +0.000 A 
ENDBRANCH  21  23
ENDBRANCH  18  21
ENDBRANCH   9  15
BRANCH   1  32
ATOM     31  C   UNL     1       6.672   4.397  15.266  0.00  0.00    +0.000 C 
ATOM     32  O   UNL     1       5.327   3.954  15.468  0.00  0.00    +0.000 OA
ENDBRANCH   1  32
TORSDOF 4
ENDMDL
MODEL 2
REMARK VINA RESULT:      -7.8      0.993      1.006
REMARK  Name = 
REMARK  6 active torsions:
REMARK  status: ('A' for Active; 'I' for Inactive)
REMARK    1  A    between atoms: C_1  and  O_2
REMARK    2  A    between atoms: O_2  and  C_3
REMARK    3  A    between atoms: C_11  and  N_12
REMARK    4  A    between atoms: N_15  and  C_16
REMARK    5  A    between atoms: C_16  and  C_17
REMARK    6  A    between atoms: C_16  and  C_18
REMARK                            x       y       z     vdW  Elec       q    Type
REMARK                         _______ _______ _______ _____ _____    ______ ____
ROOT
ATOM      1  C   UNL     1       5.426   6.006  16.388  0.00  0.00    +0.000 C 
ATOM      2  O   UNL     1       5.731   6.817  17.251  0.00  0.00    +0.000 OA
ATOM      3  N   UNL     1       4.455   5.045  16.480  0.00  0.00    +0.000 N 
ATOM      4  C   UNL     1       3.728   4.883  17.632  0.00  0.00    +0.000 A 
ATOM      5  N   UNL     1       3.470   3.665  18.123  0.00  0.00    +0.000 NA
ATOM      6  N   UNL     1       2.879   3.917  19.309  0.00  0.00    +0.000 N 
ATOM      7  C   UNL     1       2.578   5.235  19.515  0.00  0.00    +0.000 A 
ATOM      8  C   UNL     1       1.895   5.916  20.539  0.00  0.00    +0.000 A 
ATOM      9  C   UNL     1       1.730   7.283  20.323  0.00  0.00    +0.000 A 
ATOM     10  N   UNL     1       2.215   7.920  19.230  0.00  0.00    +0.000 NA
ATOM     11  C   UNL     1       2.923   7.259  18.293  0.00  0.00    +0.000 A 
ATOM     12  C   UNL     1       3.115   5.890  18.417  0.00  0.00    +0.000 A 
ATOM     13  H   UNL     1       4.574   4.237  15.897  0.00  0.00    +0.000 HD
ATOM     14  H   UNL     1       2.682   3.131  19.919  0.00  0.00    +0.000 HD
ENDROOT
BRANCH   9  15
ATOM     15  N   UNL     1       1.005   8.049  21.250  0.00  0.00    +0.000 N 
ATOM     16  C   UNL     1       0.217   9.150  20.992  0.00  0.00    +0.000 C 
ATOM     17  O   UNL     1      -0.413   9.690  21.891  0.00  0.00    +0.000 OA
ATOM     18  N   UNL     1       0.185   9.555  19.694  0.00  0.00    +0.000 N 
ATOM     19  H   UNL     1       1.005   7.769  22.221  0.00  0.00    +0.000 HD
ATOM     20  H   UNL     1       0.724   8.972  19.061  0.00  0.00    +0.000 HD
BRANCH  18  21
ATOM     21  C   UNL     1      -0.678  10.551  19.112  0.00  0.00    +0.000 C 
ATOM     22  C   UNL     1      -1.290  10.050  17.798  0.00  0.00    +0.000 C 
BRANCH  21  23
ATOM     23  C   UNL     1       0.113  11.836  18.878  0.00  0.00    +0.000 A 
ATOM     24  C   UNL     1       1.511  11.789  18.761  0.00  0.00    +0.000 A 
ATOM     25  C   UNL     1       2.259  12.964  18.619  0.00  0.00    +0.000 A 
ATOM     26  C   UNL     1       1.615  14.200  18.576  0.00  0.00    +0.000 A 
ATOM     27 CL   UNL     1       2.550  15.641  18.464  0.00  0.00    +0.000 Cl
ATOM     28  C   UNL     1       0.227  14.256  18.635  0.00  0.00    +0.000 A 
ATOM     29  F   UNL     1      -0.417  15.431  18.571  0.00  0.00    +0.000 F 
ATOM     30  C   UNL     1      -0.522  13.089  18.778  0.00  0.00    +0.000 A 
ENDBRANCH  21  23
ENDBRANCH  18  21
ENDBRANCH   9  15
BRANCH   1  32
ATOM     31  C   UNL     1       6.964   4.759  15.142  0.00  0.00    +0.000 C 
ATOM     32  O   UNL     1       6.077   5.881  15.201  0.00  0.00    +0.000 OA
ENDBRANCH   1  32
TORSDOF 4
ENDMDL
MODEL 3
REMARK VINA RESULT:      -7.8      0.837      1.234
REMARK  Name = 
REMARK  6 active torsions:
REMARK  status: ('A' for Active; 'I' for Inactive)
REMARK    1  A    between atoms: C_1  and  O_2
REMARK    2  A    between atoms: O_2  and  C_3
REMARK    3  A    between atoms: C_11  and  N_12
REMARK    4  A    between atoms: N_15  and  C_16
REMARK    5  A    between atoms: C_16  and  C_17
REMARK    6  A    between atoms: C_16  and  C_18
REMARK                            x       y       z     vdW  Elec       q    Type
REMARK                         _______ _______ _______ _____ _____    ______ ____
ROOT
ATOM      1  C   UNL     1       4.856   4.398  16.624  0.00  0.00    +0.000 C 
ATOM      2  O   UNL     1       5.443   5.076  17.455  0.00  0.00    +0.000 OA
ATOM      3  N   UNL     1       3.598   3.871  16.745  0.00  0.00    +0.000 N 
ATOM      4  C   UNL     1       2.867   4.043  17.893  0.00  0.00    +0.000 A 
ATOM      5  N   UNL     1       2.177   3.030  18.432  0.00  0.00    +0.000 NA
ATOM      6  N   UNL     1       1.726   3.537  19.599  0.00  0.00    +0.000 N 
ATOM      7  C   UNL     1       1.936   4.881  19.743  0.00  0.00    +0.000 A 
ATOM      8  C   UNL     1       1.559   5.812  20.727  0.00  0.00    +0.000 A 
ATOM      9  C   UNL     1       1.912   7.132  20.449  0.00  0.00    +0.000 A 
ATOM     10  N   UNL     1       2.594   7.493  19.336  0.00  0.00    +0.000 NA
ATOM     11  C   UNL     1       3.004   6.575  18.439  0.00  0.00    +0.000 A 
ATOM     12  C   UNL     1       2.675   5.239  18.625  0.00  0.00    +0.000 A 
ATOM     13  H   UNL     1       3.407   3.051  16.199  0.00  0.00    +0.000 HD
ATOM     14  H   UNL     1       1.254   2.909  20.239  0.00  0.00    +0.000 HD
ENDROOT
BRANCH   9  15
ATOM     15  N   UNL     1       1.526   8.153  21.332  0.00  0.00    +0.000 N 
ATOM     16  C   UNL     1       0.798   9.285  21.035  0.00  0.00    +0.000 C 
ATOM     17  O   UNL     1       0.477  10.069  21.919  0.00  0.00    +0.000 OA
ATOM     18  N   UNL     1       0.463   9.439  19.727  0.00  0.00    +0.000 N 
ATOM     19  H   UNL     1       1.756   8.064  22.313  0.00  0.00    +0.000 HD
ATOM     20  H   UNL     1       0.763   8.677  19.126  0.00  0.00    +0.000 HD
BRANCH  18  21
ATOM     21  C   UNL     1      -0.431  10.418  19.163  0.00  0.00    +0.000 C 
ATOM     22  C   UNL     1      -0.964   9.960  17.801  0.00  0.00    +0.000 C 
BRANCH  21  23
ATOM     23  C   UNL     1       0.296  11.754  19.033  0.00  0.00    +0.000 A 
ATOM     24  C   UNL     1      -0.379  12.952  19.318  0.00  0.00    +0.000 A 
ATOM     25  C   UNL     1       0.247  14.190  19.135  0.00  0.00    +0.000 A 
ATOM     26  C   UNL     1       1.564  14.246  18.679  0.00  0.00    +0.000 A 
ATOM     27 CL   UNL     1       2.302  15.775  18.397  0.00  0.00    +0.000 Cl
ATOM     28  C   UNL     1       2.261  13.066  18.445  0.00  0.00    +0.000 A 
ATOM     29  F   UNL     1       3.536  13.092  18.028  0.00  0.00    +0.000 F 
ATOM     30  C   UNL     1       1.642  11.830  18.625  0.00  0.00    +0.000 A 
ENDBRANCH  21  23
ENDBRANCH  18  21
ENDBRANCH   9  15
BRANCH   1  32
ATOM     31  C   UNL     1       6.639   4.645  15.130  0.00  0.00    +0.000 C 
ATOM     32  O   UNL     1       5.411   3.986  15.453  0.00  0.00    +0.000 OA
ENDBRANCH   1  32
TORSDOF 4
ENDMDL
MODEL 4
REMARK VINA RESULT:      -7.8      4.287      8.553
REMARK  Name = 
REMARK  6 active torsions:
REMARK  status: ('A' for Active; 'I' for Inactive)
REMARK    1  A    between atoms: C_1  and  O_2
REMARK    2  A    between atoms: O_2  and  C_3
REMARK    3  A    between atoms: C_11  and  N_12
REMARK    4  A    between atoms: N_15  and  C_16
REMARK    5  A    between atoms: C_16  and  C_17
REMARK    6  A    between atoms: C_16  and  C_18
REMARK                            x       y       z     vdW  Elec       q    Type
REMARK                         _______ _______ _______ _____ _____    ______ ____
ROOT
ATOM      1  C   UNL     1       0.517  10.378  21.588  0.00  0.00    +0.000 C 
ATOM      2  O   UNL     1       1.421   9.878  22.241  0.00  0.00    +0.000 OA
ATOM      3  N   UNL     1       0.253  10.159  20.262  0.00  0.00    +0.000 N 
ATOM      4  C   UNL     1       1.054   9.340  19.507  0.00  0.00    +0.000 A 
ATOM      5  N   UNL     1       1.428   9.687  18.270  0.00  0.00    +0.000 NA
ATOM      6  N   UNL     1       2.307   8.725  17.921  0.00  0.00    +0.000 N 
ATOM      7  C   UNL     1       2.371   7.679  18.801  0.00  0.00    +0.000 A 
ATOM      8  C   UNL     1       3.059   6.453  18.788  0.00  0.00    +0.000 A 
ATOM      9  C   UNL     1       2.781   5.615  19.867  0.00  0.00    +0.000 A 
ATOM     10  N   UNL     1       1.939   5.961  20.870  0.00  0.00    +0.000 NA
ATOM     11  C   UNL     1       1.341   7.168  20.895  0.00  0.00    +0.000 A 
ATOM     12  C   UNL     1       1.543   8.056  19.848  0.00  0.00    +0.000 A 
ATOM     13  H   UNL     1      -0.235  10.893  19.781  0.00  0.00    +0.000 HD
ATOM     14  H   UNL     1       2.809   8.834  17.047  0.00  0.00    +0.000 HD
ENDROOT
BRANCH   9  15
ATOM     15  N   UNL     1       3.364   4.339  19.921  0.00  0.00    +0.000 N 
ATOM     16  C   UNL     1       4.554   3.938  19.353  0.00  0.00    +0.000 C 
ATOM     17  O   UNL     1       4.978   2.803  19.529  0.00  0.00    +0.000 OA
ATOM     18  N   UNL     1       5.202   4.884  18.623  0.00  0.00    +0.000 N 
ATOM     19  H   UNL     1       2.908   3.616  20.460  0.00  0.00    +0.000 HD
ATOM     20  H   UNL     1       4.745   5.791  18.613  0.00  0.00    +0.000 HD
BRANCH  18  21
ATOM     21  C   UNL     1       6.531   4.803  18.072  0.00  0.00    +0.000 C 
ATOM     22  C   UNL     1       7.337   6.069  18.387  0.00  0.00    +0.000 C 
BRANCH  21  23
ATOM     23  C   UNL     1       6.444   4.586  16.564  0.00  0.00    +0.000 A 
ATOM     24  C   UNL     1       5.432   3.773  16.028  0.00  0.00    +0.000 A 
ATOM     25  C   UNL     1       5.379   3.504  14.656  0.00  0.00    +0.000 A 
ATOM     26  C   UNL     1       6.329   4.058  13.798  0.00  0.00    +0.000 A 
ATOM     27 CL   UNL     1       6.290   3.668  12.122  0.00  0.00    +0.000 Cl
ATOM     28  C   UNL     1       7.303   4.908  14.308  0.00  0.00    +0.000 A 
ATOM     29  F   UNL     1       8.214   5.473  13.501  0.00  0.00    +0.000 F 
ATOM     30  C   UNL     1       7.361   5.179  15.675  0.00  0.00    +0.000 A 
ENDBRANCH  21  23
ENDBRANCH  18  21
ENDBRANCH   9  15
BRANCH   1  32
ATOM     31  C   UNL     1      -0.159  12.616  21.508  0.00  0.00    +0.000 C 
ATOM     32  O   UNL     1      -0.342  11.314  22.073  0.00  0.00    +0.000 OA
ENDBRANCH   1  32
TORSDOF 4
ENDMDL
MODEL 5
REMARK VINA RESULT:      -7.8      2.644      3.333
REMARK  Name = 
REMARK  6 active torsions:
REMARK  status: ('A' for Active; 'I' for Inactive)
REMARK    1  A    between atoms: C_1  and  O_2
REMARK    2  A    between atoms: O_2  and  C_3
REMARK    3  A    between atoms: C_11  and  N_12
REMARK    4  A    between atoms: N_15  and  C_16
REMARK    5  A    between atoms: C_16  and  C_17
REMARK    6  A    between atoms: C_16  and  C_18
REMARK                            x       y       z     vdW  Elec       q    Type
REMARK                         _______ _______ _______ _____ _____    ______ ____
ROOT
ATOM      1  C   UNL     1       5.540   5.931  16.284  0.00  0.00    +0.000 C 
ATOM      2  O   UNL     1       5.784   6.818  17.089  0.00  0.00    +0.000 OA
ATOM      3  N   UNL     1       4.655   4.900  16.452  0.00  0.00    +0.000 N 
ATOM      4  C   UNL     1       3.956   4.752  17.623  0.00  0.00    +0.000 A 
ATOM      5  N   UNL     1       3.807   3.550  18.193  0.00  0.00    +0.000 NA
ATOM      6  N   UNL     1       3.210   3.827  19.371  0.00  0.00    +0.000 N 
ATOM      7  C   UNL     1       2.800   5.126  19.498  0.00  0.00    +0.000 A 
ATOM      8  C   UNL     1       2.072   5.811  20.487  0.00  0.00    +0.000 A 
ATOM      9  C   UNL     1       1.790   7.143  20.188  0.00  0.00    +0.000 A 
ATOM     10  N   UNL     1       2.208   7.747  19.049  0.00  0.00    +0.000 NA
ATOM     11  C   UNL     1       2.960   7.089  18.145  0.00  0.00    +0.000 A 
ATOM     12  C   UNL     1       3.269   5.751  18.352  0.00  0.00    +0.000 A 
ATOM     13  H   UNL     1       4.837   4.069  15.919  0.00  0.00    +0.000 HD
ATOM     14  H   UNL     1       3.086   3.068  20.032  0.00  0.00    +0.000 HD
ENDROOT
BRANCH   9  15
ATOM     15  N   UNL     1       1.012   7.903  21.076  0.00  0.00    +0.000 N 
ATOM     16  C   UNL     1       0.641   9.224  20.944  0.00  0.00    +0.000 C 
ATOM     17  O   UNL     1      -0.095   9.750  21.768  0.00  0.00    +0.000 OA
ATOM     18  N   UNL     1       1.130   9.862  19.847  0.00  0.00    +0.000 N 
ATOM     19  H   UNL     1       0.630   7.455  21.897  0.00  0.00    +0.000 HD
ATOM     20  H   UNL     1       1.686   9.274  19.234  0.00  0.00    +0.000 HD
BRANCH  18  21
ATOM     21  C   UNL     1       0.770  11.172  19.366  0.00  0.00    +0.000 C 
ATOM     22  C   UNL     1       0.947  12.229  20.462  0.00  0.00    +0.000 C 
BRANCH  21  23
ATOM     23  C   UNL     1      -0.673  11.152  18.868  0.00  0.00    +0.000 A 
ATOM     24  C   UNL     1      -1.618  12.032  19.418  0.00  0.00    +0.000 A 
ATOM     25  C   UNL     1      -2.961  11.980  19.026  0.00  0.00    +0.000 A 
ATOM     26  C   UNL     1      -3.372  11.057  18.065  0.00  0.00    +0.000 A 
ATOM     27 CL   UNL     1      -5.036  10.960  17.637  0.00  0.00    +0.000 Cl
ATOM     28  C   UNL     1      -2.436  10.217  17.473  0.00  0.00    +0.000 A 
ATOM     29  F   UNL     1      -2.802   9.336  16.529  0.00  0.00    +0.000 F 
ATOM     30  C   UNL     1      -1.097  10.264  17.861  0.00  0.00    +0.000 A 
ENDBRANCH  21  23
ENDBRANCH  18  21
ENDBRANCH   9  15
BRANCH   1  32
ATOM     31  C   UNL     1       6.548   4.433  14.796  0.00  0.00    +0.000 C 
ATOM     32  O   UNL     1       6.188   5.785  15.097  0.00  0.00    +0.000 OA
ENDBRANCH   1  32
TORSDOF 4
ENDMDL
MODEL 6
REMARK VINA RESULT:      -7.7      2.211      2.941
REMARK  Name = 
REMARK  6 active torsions:
REMARK  status: ('A' for Active; 'I' for Inactive)
REMARK    1  A    between atoms: C_1  and  O_2
REMARK    2  A    between atoms: O_2  and  C_3
REMARK    3  A    between atoms: C_11  and  N_12
REMARK    4  A    between atoms: N_15  and  C_16
REMARK    5  A    between atoms: C_16  and  C_17
REMARK    6  A    between atoms: C_16  and  C_18
REMARK                            x       y       z     vdW  Elec       q    Type
REMARK                         _______ _______ _______ _____ _____    ______ ____
ROOT
ATOM      1  C   UNL     1       5.136   4.312  16.752  0.00  0.00    +0.000 C 
ATOM      2  O   UNL     1       5.628   5.050  17.594  0.00  0.00    +0.000 OA
ATOM      3  N   UNL     1       3.908   3.710  16.813  0.00  0.00    +0.000 N 
ATOM      4  C   UNL     1       3.098   3.867  17.910  0.00  0.00    +0.000 A 
ATOM      5  N   UNL     1       2.440   2.828  18.439  0.00  0.00    +0.000 NA
ATOM      6  N   UNL     1       1.888   3.338  19.559  0.00  0.00    +0.000 N 
ATOM      7  C   UNL     1       2.005   4.696  19.673  0.00  0.00    +0.000 A 
ATOM      8  C   UNL     1       1.511   5.628  20.603  0.00  0.00    +0.000 A 
ATOM      9  C   UNL     1       1.799   6.960  20.305  0.00  0.00    +0.000 A 
ATOM     10  N   UNL     1       2.525   7.332  19.224  0.00  0.00    +0.000 NA
ATOM     11  C   UNL     1       3.045   6.417  18.382  0.00  0.00    +0.000 A 
ATOM     12  C   UNL     1       2.788   5.069  18.590  0.00  0.00    +0.000 A 
ATOM     13  H   UNL     1       3.802   2.864  16.283  0.00  0.00    +0.000 HD
ATOM     14  H   UNL     1       1.417   2.699  20.190  0.00  0.00    +0.000 HD
ENDROOT
BRANCH   9  15
ATOM     15  N   UNL     1       1.297   7.978  21.130  0.00  0.00    +0.000 N 
ATOM     16  C   UNL     1       1.006   9.277  20.773  0.00  0.00    +0.000 C 
ATOM     17  O   UNL     1       0.513  10.051  21.584  0.00  0.00    +0.000 OA
ATOM     18  N   UNL     1       1.286   9.606  19.484  0.00  0.00    +0.000 N 
ATOM     19  H   UNL     1       1.074   7.763  22.092  0.00  0.00    +0.000 HD
ATOM     20  H   UNL     1       1.646   8.839  18.926  0.00  0.00    +0.000 HD
BRANCH  18  21
ATOM     21  C   UNL     1       0.927  10.820  18.795  0.00  0.00    +0.000 C 
ATOM     22  C   UNL     1       1.338  12.056  19.605  0.00  0.00    +0.000 C 
BRANCH  21  23
ATOM     23  C   UNL     1      -0.576  10.829  18.529  0.00  0.00    +0.000 A 
ATOM     24  C   UNL     1      -1.121   9.983  17.550  0.00  0.00    +0.000 A 
ATOM     25  C   UNL     1      -2.485  10.029  17.241  0.00  0.00    +0.000 A 
ATOM     26  C   UNL     1      -3.326  10.911  17.920  0.00  0.00    +0.000 A 
ATOM     27 CL   UNL     1      -4.989  11.002  17.487  0.00  0.00    +0.000 Cl
ATOM     28  C   UNL     1      -2.809  11.715  18.929  0.00  0.00    +0.000 A 
ATOM     29  F   UNL     1      -3.600  12.555  19.613  0.00  0.00    +0.000 F 
ATOM     30  C   UNL     1      -1.450  11.674  19.240  0.00  0.00    +0.000 A 
ENDBRANCH  21  23
ENDBRANCH  18  21
ENDBRANCH   9  15
BRANCH   1  32
ATOM     31  C   UNL     1       7.024   4.583  15.397  0.00  0.00    +0.000 C 
ATOM     32  O   UNL     1       5.786   3.904  15.629  0.00  0.00    +0.000 OA
ENDBRANCH   1  32
TORSDOF 4
ENDMDL
MODEL 7
REMARK VINA RESULT:      -7.7      1.385      1.632
REMARK  Name = 
REMARK  6 active torsions:
REMARK  status: ('A' for Active; 'I' for Inactive)
REMARK    1  A    between atoms: C_1  and  O_2
REMARK    2  A    between atoms: O_2  and  C_3
REMARK    3  A    between atoms: C_11  and  N_12
REMARK    4  A    between atoms: N_15  and  C_16
REMARK    5  A    between atoms: C_16  and  C_17
REMARK    6  A    between atoms: C_16  and  C_18
REMARK                            x       y       z     vdW  Elec       q    Type
REMARK                         _______ _______ _______ _____ _____    ______ ____
ROOT
ATOM      1  C   UNL     1       5.660   5.626  16.042  0.00  0.00    +0.000 C 
ATOM      2  O   UNL     1       6.030   6.344  16.961  0.00  0.00    +0.000 OA
ATOM      3  N   UNL     1       4.657   4.695  16.090  0.00  0.00    +0.000 N 
ATOM      4  C   UNL     1       3.972   4.453  17.254  0.00  0.00    +0.000 A 
ATOM      5  N   UNL     1       3.689   3.204  17.643  0.00  0.00    +0.000 NA
ATOM      6  N   UNL     1       3.156   3.366  18.873  0.00  0.00    +0.000 N 
ATOM      7  C   UNL     1       2.914   4.670  19.210  0.00  0.00    +0.000 A 
ATOM      8  C   UNL     1       2.300   5.277  20.319  0.00  0.00    +0.000 A 
ATOM      9  C   UNL     1       2.178   6.663  20.235  0.00  0.00    +0.000 A 
ATOM     10  N   UNL     1       2.642   7.380  19.183  0.00  0.00    +0.000 NA
ATOM     11  C   UNL     1       3.286   6.784  18.161  0.00  0.00    +0.000 A 
ATOM     12  C   UNL     1       3.431   5.404  18.152  0.00  0.00    +0.000 A 
ATOM     13  H   UNL     1       4.723   3.940  15.432  0.00  0.00    +0.000 HD
ATOM     14  H   UNL     1       2.955   2.535  19.417  0.00  0.00    +0.000 HD
ENDROOT
BRANCH   9  15
ATOM     15  N   UNL     1       1.521   7.365  21.258  0.00  0.00    +0.000 N 
ATOM     16  C   UNL     1       0.824   8.549  21.146  0.00  0.00    +0.000 C 
ATOM     17  O   UNL     1       0.244   9.024  22.114  0.00  0.00    +0.000 OA
ATOM     18  N   UNL     1       0.822   9.112  19.909  0.00  0.00    +0.000 N 
ATOM     19  H   UNL     1       1.500   6.969  22.187  0.00  0.00    +0.000 HD
ATOM     20  H   UNL     1       1.309   8.570  19.202  0.00  0.00    +0.000 HD
BRANCH  18  21
ATOM     21  C   UNL     1       0.042  10.239  19.464  0.00  0.00    +0.000 C 
ATOM     22  C   UNL     1      -0.381  10.073  18.000  0.00  0.00    +0.000 C 
BRANCH  21  23
ATOM     23  C   UNL     1       0.850  11.521  19.646  0.00  0.00    +0.000 A 
ATOM     24  C   UNL     1       0.687  12.295  20.806  0.00  0.00    +0.000 A 
ATOM     25  C   UNL     1       1.365  13.511  20.958  0.00  0.00    +0.000 A 
ATOM     26  C   UNL     1       2.227  13.960  19.959  0.00  0.00    +0.000 A 
ATOM     27 CL   UNL     1       3.006  15.485  20.130  0.00  0.00    +0.000 Cl
ATOM     28  C   UNL     1       2.439  13.176  18.830  0.00  0.00    +0.000 A 
ATOM     29  F   UNL     1       3.282  13.574  17.865  0.00  0.00    +0.000 F 
ATOM     30  C   UNL     1       1.766  11.965  18.673  0.00  0.00    +0.000 A 
ENDBRANCH  21  23
ENDBRANCH  18  21
ENDBRANCH   9  15
BRANCH   1  32
ATOM     31  C   UNL     1       6.456   4.265  14.315  0.00  0.00    +0.000 C 
ATOM     32  O   UNL     1       6.257   5.588  14.821  0.00  0.00    +0.000 OA
ENDBRANCH   1  32
TORSDOF 4
ENDMDL
MODEL 8
REMARK VINA RESULT:      -7.7      1.317      1.366
REMARK  Name = 
REMARK  6 active torsions:
REMARK  status: ('A' for Active; 'I' for Inactive)
REMARK    1  A    between atoms: C_1  and  O_2
REMARK    2  A    between atoms: O_2  and  C_3
REMARK    3  A    between atoms: C_11  and  N_12
REMARK    4  A    between atoms: N_15  and  C_16
REMARK    5  A    between atoms: C_16  and  C_17
REMARK    6  A    between atoms: C_16  and  C_18
REMARK                            x       y       z     vdW  Elec       q    Type
REMARK                         _______ _______ _______ _____ _____    ______ ____
ROOT
ATOM      1  C   UNL     1       5.470   5.688  16.029  0.00  0.00    +0.000 C 
ATOM      2  O   UNL     1       5.844   6.441  16.917  0.00  0.00    +0.000 OA
ATOM      3  N   UNL     1       4.495   4.732  16.129  0.00  0.00    +0.000 N 
ATOM      4  C   UNL     1       3.847   4.505  17.317  0.00  0.00    +0.000 A 
ATOM      5  N   UNL     1       3.607   3.261  17.748  0.00  0.00    +0.000 NA
ATOM      6  N   UNL     1       3.103   3.444  18.986  0.00  0.00    +0.000 N 
ATOM      7  C   UNL     1       2.834   4.750  19.294  0.00  0.00    +0.000 A 
ATOM      8  C   UNL     1       2.232   5.371  20.402  0.00  0.00    +0.000 A 
ATOM      9  C   UNL     1       2.071   6.751  20.282  0.00  0.00    +0.000 A 
ATOM     10  N   UNL     1       2.487   7.450  19.199  0.00  0.00    +0.000 NA
ATOM     11  C   UNL     1       3.121   6.843  18.177  0.00  0.00    +0.000 A 
ATOM     12  C   UNL     1       3.303   5.466  18.203  0.00  0.00    +0.000 A 
ATOM     13  H   UNL     1       4.563   3.961  15.491  0.00  0.00    +0.000 HD
ATOM     14  H   UNL     1       2.938   2.623  19.559  0.00  0.00    +0.000 HD
ENDROOT
BRANCH   9  15
ATOM     15  N   UNL     1       1.421   7.463  21.303  0.00  0.00    +0.000 N 
ATOM     16  C   UNL     1       0.773   8.675  21.195  0.00  0.00    +0.000 C 
ATOM     17  O   UNL     1       0.192   9.159  22.158  0.00  0.00    +0.000 OA
ATOM     18  N   UNL     1       0.817   9.255  19.966  0.00  0.00    +0.000 N 
ATOM     19  H   UNL     1       1.367   7.056  22.226  0.00  0.00    +0.000 HD
ATOM     20  H   UNL     1       1.296   8.704  19.261  0.00  0.00    +0.000 HD
BRANCH  18  21
ATOM     21  C   UNL     1       0.089  10.417  19.522  0.00  0.00    +0.000 C 
ATOM     22  C   UNL     1      -0.502  10.197  18.125  0.00  0.00    +0.000 C 
BRANCH  21  23
ATOM     23  C   UNL     1       1.015  11.630  19.528  0.00  0.00    +0.000 A 
ATOM     24  C   UNL     1       1.771  11.943  18.386  0.00  0.00    +0.000 A 
ATOM     25  C   UNL     1       2.679  13.008  18.397  0.00  0.00    +0.000 A 
ATOM     26  C   UNL     1       2.831  13.785  19.545  0.00  0.00    +0.000 A 
ATOM     27 CL   UNL     1       3.996  15.052  19.565  0.00  0.00    +0.000 Cl
ATOM     28  C   UNL     1       2.049  13.520  20.663  0.00  0.00    +0.000 A 
ATOM     29  F   UNL     1       2.160  14.267  21.772  0.00  0.00    +0.000 F 
ATOM     30  C   UNL     1       1.144  12.459  20.659  0.00  0.00    +0.000 A 
ENDBRANCH  21  23
ENDBRANCH  18  21
ENDBRANCH   9  15
BRANCH   1  32
ATOM     31  C   UNL     1       6.726   4.406  14.529  0.00  0.00    +0.000 C 
ATOM     32  O   UNL     1       6.036   5.631  14.794  0.00  0.00    +0.000 OA
ENDBRANCH   1  32
TORSDOF 4
ENDMDL
MODEL 9
REMARK VINA RESULT:      -7.5      1.277      1.579
REMARK  Name = 
REMARK  6 active torsions:
REMARK  status: ('A' for Active; 'I' for Inactive)
REMARK    1  A    between atoms: C_1  and  O_2
REMARK    2  A    between atoms: O_2  and  C_3
REMARK    3  A    between atoms: C_11  and  N_12
REMARK    4  A    between atoms: N_15  and  C_16
REMARK    5  A    between atoms: C_16  and  C_17
REMARK    6  A    between atoms: C_16  and  C_18
REMARK                            x       y       z     vdW  Elec       q    Type
REMARK                         _______ _______ _______ _____ _____    ______ ____
ROOT
ATOM      1  C   UNL     1       5.398   6.156  16.388  0.00  0.00    +0.000 C 
ATOM      2  O   UNL     1       5.714   6.932  17.278  0.00  0.00    +0.000 OA
ATOM      3  N   UNL     1       4.405   5.215  16.444  0.00  0.00    +0.000 N 
ATOM      4  C   UNL     1       3.667   5.033  17.586  0.00  0.00    +0.000 A 
ATOM      5  N   UNL     1       3.378   3.806  18.036  0.00  0.00    +0.000 NA
ATOM      6  N   UNL     1       2.785   4.033  19.226  0.00  0.00    +0.000 N 
ATOM      7  C   UNL     1       2.512   5.351  19.472  0.00  0.00    +0.000 A 
ATOM      8  C   UNL     1       1.838   6.014  20.513  0.00  0.00    +0.000 A 
ATOM      9  C   UNL     1       1.705   7.391  20.339  0.00  0.00    +0.000 A 
ATOM     10  N   UNL     1       2.211   8.051  19.270  0.00  0.00    +0.000 NA
ATOM     11  C   UNL     1       2.911   7.404  18.317  0.00  0.00    +0.000 A 
ATOM     12  C   UNL     1       3.071   6.027  18.399  0.00  0.00    +0.000 A 
ATOM     13  H   UNL     1       4.510   4.423  15.836  0.00  0.00    +0.000 HD
ATOM     14  H   UNL     1       2.567   3.233  19.809  0.00  0.00    +0.000 HD
ENDROOT
BRANCH   9  15
ATOM     15  N   UNL     1       0.991   8.143  21.286  0.00  0.00    +0.000 N 
ATOM     16  C   UNL     1       0.165   9.221  21.047  0.00  0.00    +0.000 C 
ATOM     17  O   UNL     1      -0.449   9.750  21.965  0.00  0.00    +0.000 OA
ATOM     18  N   UNL     1       0.080   9.617  19.750  0.00  0.00    +0.000 N 
ATOM     19  H   UNL     1       1.029   7.869  22.258  0.00  0.00    +0.000 HD
ATOM     20  H   UNL     1       0.613   9.045  19.102  0.00  0.00    +0.000 HD
BRANCH  18  21
ATOM     21  C   UNL     1      -0.828  10.586  19.191  0.00  0.00    +0.000 C 
ATOM     22  C   UNL     1      -1.310  10.154  17.801  0.00  0.00    +0.000 C 
BRANCH  21  23
ATOM     23  C   UNL     1      -0.139  11.947  19.119  0.00  0.00    +0.000 A 
ATOM     24  C   UNL     1      -0.881  13.094  18.795  0.00  0.00    +0.000 A 
ATOM     25  C   UNL     1      -0.254  14.338  18.654  0.00  0.00    +0.000 A 
ATOM     26  C   UNL     1       1.122  14.453  18.851  0.00  0.00    +0.000 A 
ATOM     27 CL   UNL     1       1.890  15.975  18.613  0.00  0.00    +0.000 Cl
ATOM     28  C   UNL     1       1.859  13.336  19.226  0.00  0.00    +0.000 A 
ATOM     29  F   UNL     1       3.180  13.425  19.445  0.00  0.00    +0.000 F 
ATOM     30  C   UNL     1       1.240  12.094  19.367  0.00  0.00    +0.000 A 
ENDBRANCH  21  23
ENDBRANCH  18  21
ENDBRANCH   9  15
BRANCH   1  32
ATOM     31  C   UNL     1       6.574   4.746  14.939  0.00  0.00    +0.000 C 
ATOM     32  O   UNL     1       6.054   6.054  15.202  0.00  0.00    +0.000 OA
ENDBRANCH   1  32
TORSDOF 4
ENDMDL
