MODEL 1
REMARK VINA RESULT:      -7.8      0.000      0.000
REMARK  Name = 
REMARK  8 active torsions:
REMARK  status: ('A' for Active; 'I' for Inactive)
REMARK    1  A    between atoms: C_1  and  C_2
REMARK    2  A    between atoms: C_2  and  C_3
REMARK    3  A    between atoms: C_3  and  C_4
REMARK    4  A    between atoms: C_4  and  O_5
REMARK    5  A    between atoms: O_5  and  C_6
REMARK    6  A    between atoms: C_9  and  N_10
REMARK    7  A    between atoms: C_11  and  O_13
REMARK    8  A    between atoms: O_13  and  C_14
REMARK                            x       y       z     vdW  Elec       q    Type
REMARK                         _______ _______ _______ _____ _____    ______ ____
ROOT
ATOM      1  N   UNL     1       6.016   6.237  16.781  0.00  0.00    +0.000 N 
ATOM      2  C   UNL     1       7.107   5.437  16.517  0.00  0.00    +0.000 C 
ATOM      3  O   UNL     1       7.546   4.508  17.180  0.00  0.00    +0.000 OA
ATOM      4  H   UNL     1       5.852   6.961  16.097  0.00  0.00    +0.000 HD
ENDROOT
BRANCH   1   8
ATOM      5  C   UNL     1       2.984   5.591  19.657  0.00  0.00    +0.000 A 
ATOM      6  C   UNL     1       4.217   4.948  19.770  0.00  0.00    +0.000 A 
ATOM      7  C   UNL     1       5.227   5.161  18.835  0.00  0.00    +0.000 A 
ATOM      8  C   UNL     1       5.032   6.021  17.761  0.00  0.00    +0.000 A 
ATOM      9  C   UNL     1       3.792   6.663  17.631  0.00  0.00    +0.000 A 
ATOM     10  C   UNL     1       2.774   6.448  18.577  0.00  0.00    +0.000 A 
BRANCH   5  11
ATOM     11  O   UNL     1       1.944   5.434  20.545  0.00  0.00    +0.000 OA
BRANCH  11  12
ATOM     12  C   UNL     1       1.674   4.070  20.886  0.00  0.00    +0.000 C 
BRANCH  12  13
ATOM     13  C   UNL     1       0.872   3.361  19.804  0.00  0.00    +0.000 C 
BRANCH  13  15
ATOM     14  C   UNL     1       2.236   2.379  17.913  0.00  0.00    +0.000 C 
ATOM     15  C   UNL     1       1.666   2.152  19.299  0.00  0.00    +0.000 C 
ENDBRANCH  13  15
ENDBRANCH  12  13
ENDBRANCH  11  12
ENDBRANCH   5  11
ENDBRANCH   1   8
BRANCH   2  16
ATOM     16  O   UNL     1       7.653   5.831  15.303  0.00  0.00    +0.000 OA
BRANCH  16  17
ATOM     17  C   UNL     1       7.107   5.118  14.229  0.00  0.00    +0.000 A 
ATOM     18  C   UNL     1       5.998   4.309  14.465  0.00  0.00    +0.000 A 
ATOM     19  C   UNL     1       5.528   3.481  13.441  0.00  0.00    +0.000 A 
ATOM     20  C   UNL     1       6.164   3.464  12.195  0.00  0.00    +0.000 A 
ATOM     21  C   UNL     1       7.272   4.278  11.964  0.00  0.00    +0.000 A 
ATOM     22  C   UNL     1       7.744   5.092  12.985  0.00  0.00    +0.000 A 
ATOM     23  F   UNL     1       8.850   5.819  12.769  0.00  0.00    +0.000 F 
ENDBRANCH  16  17
ENDBRANCH   2  16
TORSDOF 7
ENDMDL
MODEL 2
REMARK VINA RESULT:      -7.7      0.375      1.088
REMARK  Name = 
REMARK  8 active torsions:
REMARK  status: ('A' for Active; 'I' for Inactive)
REMARK    1  A    between atoms: C_1  and  C_2
REMARK    2  A    between atoms: C_2  and  C_3
REMARK    3  A    between atoms: C_3  and  C_4
REMARK    4  A    between atoms: C_4  and  O_5
REMARK    5  A    between atoms: O_5  and  C_6
REMARK    6  A    between atoms: C_9  and  N_10
REMARK    7  A    between atoms: C_11  and  O_13
REMARK    8  A    between atoms: O_13  and  C_14
REMARK                            x       y       z     vdW  Elec       q    Type
REMARK                         _______ _______ _______ _____ _____    ______ ____
ROOT
ATOM      1  N   UNL     1       5.976   6.137  16.800  0.00  0.00    +0.000 N 
ATOM      2  C   UNL     1       7.097   5.387  16.516  0.00  0.00    +0.000 C 
ATOM      3  O   UNL     1       7.573   4.461  17.157  0.00  0.00    +0.000 OA
ATOM      4  H   UNL     1       5.782   6.869  16.132  0.00  0.00    +0.000 HD
ENDROOT
BRANCH   1   8
ATOM      5  C   UNL     1       3.123   5.301  19.807  0.00  0.00    +0.000 A 
ATOM      6  C   UNL     1       2.819   6.178  18.766  0.00  0.00    +0.000 A 
ATOM      7  C   UNL     1       3.747   6.454  17.764  0.00  0.00    +0.000 A 
ATOM      8  C   UNL     1       5.003   5.860  17.776  0.00  0.00    +0.000 A 
ATOM      9  C   UNL     1       5.323   4.984  18.824  0.00  0.00    +0.000 A 
ATOM     10  C   UNL     1       4.385   4.707  19.834  0.00  0.00    +0.000 A 
BRANCH   5  11
ATOM     11  O   UNL     1       2.256   4.977  20.826  0.00  0.00    +0.000 OA
BRANCH  11  12
ATOM     12  C   UNL     1       1.064   4.319  20.385  0.00  0.00    +0.000 C 
BRANCH  12  13
ATOM     13  C   UNL     1       1.285   2.831  20.158  0.00  0.00    +0.000 C 
BRANCH  13  15
ATOM     14  C   UNL     1       2.268   2.237  17.905  0.00  0.00    +0.000 C 
ATOM     15  C   UNL     1       0.999   2.495  18.692  0.00  0.00    +0.000 C 
ENDBRANCH  13  15
ENDBRANCH  12  13
ENDBRANCH  11  12
ENDBRANCH   5  11
ENDBRANCH   1   8
BRANCH   2  16
ATOM     16  O   UNL     1       7.625   5.830  15.311  0.00  0.00    +0.000 OA
BRANCH  16  17
ATOM     17  C   UNL     1       7.099   5.127  14.221  0.00  0.00    +0.000 A 
ATOM     18  C   UNL     1       5.977   4.328  14.426  0.00  0.00    +0.000 A 
ATOM     19  C   UNL     1       5.524   3.510  13.387  0.00  0.00    +0.000 A 
ATOM     20  C   UNL     1       6.189   3.493  12.156  0.00  0.00    +0.000 A 
ATOM     21  C   UNL     1       7.310   4.298  11.956  0.00  0.00    +0.000 A 
ATOM     22  C   UNL     1       7.765   5.102  12.993  0.00  0.00    +0.000 A 
ATOM     23  F   UNL     1       8.883   5.820  12.807  0.00  0.00    +0.000 F 
ENDBRANCH  16  17
ENDBRANCH   2  16
TORSDOF 7
ENDMDL
MODEL 3
REMARK VINA RESULT:      -7.6      1.270      2.108
REMARK  Name = 
REMARK  8 active torsions:
REMARK  status: ('A' for Active; 'I' for Inactive)
REMARK    1  A    between atoms: C_1  and  C_2
REMARK    2  A    between atoms: C_2  and  C_3
REMARK    3  A    between atoms: C_3  and  C_4
REMARK    4  A    between atoms: C_4  and  O_5
REMARK    5  A    between atoms: O_5  and  C_6
REMARK    6  A    between atoms: C_9  and  N_10
REMARK    7  A    between atoms: C_11  and  O_13
REMARK    8  A    between atoms: O_13  and  C_14
REMARK                            x       y       z     vdW  Elec       q    Type
REMARK                         _______ _______ _______ _____ _____    ______ ____
ROOT
ATOM      1  N   UNL     1       5.833   5.084  16.603  0.00  0.00    +0.000 N 
ATOM      2  C   UNL     1       7.174   4.860  16.381  0.00  0.00    +0.000 C 
ATOM      3  O   UNL     1       7.933   4.123  16.995  0.00  0.00    +0.000 OA
ATOM      4  H   UNL     1       5.411   5.754  15.976  0.00  0.00    +0.000 HD
ENDROOT
BRANCH   1   8
ATOM      5  C   UNL     1       3.304   2.936  19.224  0.00  0.00    +0.000 A 
ATOM      6  C   UNL     1       2.964   3.090  17.880  0.00  0.00    +0.000 A 
ATOM      7  C   UNL     1       3.794   3.787  17.004  0.00  0.00    +0.000 A 
ATOM      8  C   UNL     1       4.986   4.348  17.449  0.00  0.00    +0.000 A 
ATOM      9  C   UNL     1       5.331   4.209  18.801  0.00  0.00    +0.000 A 
ATOM     10  C   UNL     1       4.492   3.504  19.683  0.00  0.00    +0.000 A 
BRANCH   5  11
ATOM     11  O   UNL     1       2.537   2.257  20.143  0.00  0.00    +0.000 OA
BRANCH  11  12
ATOM     12  C   UNL     1       1.911   3.103  21.113  0.00  0.00    +0.000 C 
BRANCH  12  13
ATOM     13  C   UNL     1       1.080   4.198  20.461  0.00  0.00    +0.000 C 
BRANCH  13  15
ATOM     14  C   UNL     1       2.208   6.329  19.695  0.00  0.00    +0.000 C 
ATOM     15  C   UNL     1       1.635   5.565  20.872  0.00  0.00    +0.000 C 
ENDBRANCH  13  15
ENDBRANCH  12  13
ENDBRANCH  11  12
ENDBRANCH   5  11
ENDBRANCH   1   8
BRANCH   2  16
ATOM     16  O   UNL     1       7.563   5.602  15.274  0.00  0.00    +0.000 OA
BRANCH  16  17
ATOM     17  C   UNL     1       7.154   5.005  14.075  0.00  0.00    +0.000 A 
ATOM     18  C   UNL     1       6.119   4.074  14.117  0.00  0.00    +0.000 A 
ATOM     19  C   UNL     1       5.792   3.365  12.957  0.00  0.00    +0.000 A 
ATOM     20  C   UNL     1       6.498   3.587  11.769  0.00  0.00    +0.000 A 
ATOM     21  C   UNL     1       7.531   4.522  11.733  0.00  0.00    +0.000 A 
ATOM     22  C   UNL     1       7.861   5.218  12.888  0.00  0.00    +0.000 A 
ATOM     23  F   UNL     1       8.900   6.065  12.854  0.00  0.00    +0.000 F 
ENDBRANCH  16  17
ENDBRANCH   2  16
TORSDOF 7
ENDMDL
MODEL 4
REMARK VINA RESULT:      -7.5      4.062      7.721
REMARK  Name = 
REMARK  8 active torsions:
REMARK  status: ('A' for Active; 'I' for Inactive)
REMARK    1  A    between atoms: C_1  and  C_2
REMARK    2  A    between atoms: C_2  and  C_3
REMARK    3  A    between atoms: C_3  and  C_4
REMARK    4  A    between atoms: C_4  and  O_5
REMARK    5  A    between atoms: O_5  and  C_6
REMARK    6  A    between atoms: C_9  and  N_10
REMARK    7  A    between atoms: C_11  and  O_13
REMARK    8  A    between atoms: O_13  and  C_14
REMARK                            x       y       z     vdW  Elec       q    Type
REMARK                         _______ _______ _______ _____ _____    ______ ____
ROOT
ATOM      1  N   UNL     1       5.009   4.216  18.491  0.00  0.00    +0.000 N 
ATOM      2  C   UNL     1       4.288   3.462  17.591  0.00  0.00    +0.000 C 
ATOM      3  O   UNL     1       4.003   3.730  16.432  0.00  0.00    +0.000 OA
ATOM      4  H   UNL     1       5.104   3.799  19.406  0.00  0.00    +0.000 HD
ENDROOT
BRANCH   1   8
ATOM      5  C   UNL     1       7.373   7.617  17.638  0.00  0.00    +0.000 A 
ATOM      6  C   UNL     1       6.090   7.494  17.105  0.00  0.00    +0.000 A 
ATOM      7  C   UNL     1       5.298   6.384  17.387  0.00  0.00    +0.000 A 
ATOM      8  C   UNL     1       5.767   5.366  18.209  0.00  0.00    +0.000 A 
ATOM      9  C   UNL     1       7.060   5.473  18.740  0.00  0.00    +0.000 A 
ATOM     10  C   UNL     1       7.858   6.596  18.455  0.00  0.00    +0.000 A 
BRANCH   5  11
ATOM     11  O   UNL     1       8.209   8.687  17.408  0.00  0.00    +0.000 OA
BRANCH  11  12
ATOM     12  C   UNL     1       8.580   9.397  18.594  0.00  0.00    +0.000 C 
BRANCH  12  13
ATOM     13  C   UNL     1       9.356  10.667  18.277  0.00  0.00    +0.000 C 
BRANCH  13  15
ATOM     14  C   UNL     1      11.481  11.620  19.265  0.00  0.00    +0.000 C 
ATOM     15  C   UNL     1      10.065  11.155  19.544  0.00  0.00    +0.000 C 
ENDBRANCH  13  15
ENDBRANCH  12  13
ENDBRANCH  11  12
ENDBRANCH   5  11
ENDBRANCH   1   8
BRANCH   2  16
ATOM     16  O   UNL     1       3.938   2.267  18.205  0.00  0.00    +0.000 OA
BRANCH  16  17
ATOM     17  C   UNL     1       2.984   2.457  19.212  0.00  0.00    +0.000 A 
ATOM     18  C   UNL     1       1.717   2.906  18.849  0.00  0.00    +0.000 A 
ATOM     19  C   UNL     1       0.798   3.237  19.850  0.00  0.00    +0.000 A 
ATOM     20  C   UNL     1       1.147   3.119  21.200  0.00  0.00    +0.000 A 
ATOM     21  C   UNL     1       2.417   2.666  21.556  0.00  0.00    +0.000 A 
ATOM     22  C   UNL     1       3.332   2.348  20.561  0.00  0.00    +0.000 A 
ATOM     23  F   UNL     1       4.569   1.978  20.920  0.00  0.00    +0.000 F 
ENDBRANCH  16  17
ENDBRANCH   2  16
TORSDOF 7
ENDMDL
MODEL 5
REMARK VINA RESULT:      -7.4      3.967      7.641
REMARK  Name = 
REMARK  8 active torsions:
REMARK  status: ('A' for Active; 'I' for Inactive)
REMARK    1  A    between atoms: C_1  and  C_2
REMARK    2  A    between atoms: C_2  and  C_3
REMARK    3  A    between atoms: C_3  and  C_4
REMARK    4  A    between atoms: C_4  and  O_5
REMARK    5  A    between atoms: O_5  and  C_6
REMARK    6  A    between atoms: C_9  and  N_10
REMARK    7  A    between atoms: C_11  and  O_13
REMARK    8  A    between atoms: O_13  and  C_14
REMARK                            x       y       z     vdW  Elec       q    Type
REMARK                         _______ _______ _______ _____ _____    ______ ____
ROOT
ATOM      1  N   UNL     1       5.202   4.024  18.532  0.00  0.00    +0.000 N 
ATOM      2  C   UNL     1       4.308   3.418  17.677  0.00  0.00    +0.000 C 
ATOM      3  O   UNL     1       3.915   3.809  16.587  0.00  0.00    +0.000 OA
ATOM      4  H   UNL     1       5.364   3.522  19.394  0.00  0.00    +0.000 HD
ENDROOT
BRANCH   1   8
ATOM      5  C   UNL     1       7.612   7.384  17.647  0.00  0.00    +0.000 A 
ATOM      6  C   UNL     1       7.978   6.496  18.658  0.00  0.00    +0.000 A 
ATOM      7  C   UNL     1       7.198   5.380  18.952  0.00  0.00    +0.000 A 
ATOM      8  C   UNL     1       6.031   5.122  18.243  0.00  0.00    +0.000 A 
ATOM      9  C   UNL     1       5.647   6.014  17.232  0.00  0.00    +0.000 A 
ATOM     10  C   UNL     1       6.437   7.140  16.936  0.00  0.00    +0.000 A 
BRANCH   5  11
ATOM     11  O   UNL     1       8.336   8.502  17.297  0.00  0.00    +0.000 OA
BRANCH  11  12
ATOM     12  C   UNL     1       7.965   9.680  18.019  0.00  0.00    +0.000 C 
BRANCH  12  13
ATOM     13  C   UNL     1       9.149  10.293  18.754  0.00  0.00    +0.000 C 
BRANCH  13  15
ATOM     14  C   UNL     1      11.027  11.660  17.753  0.00  0.00    +0.000 C 
ATOM     15  C   UNL     1       9.545  11.604  18.068  0.00  0.00    +0.000 C 
ENDBRANCH  13  15
ENDBRANCH  12  13
ENDBRANCH  11  12
ENDBRANCH   5  11
ENDBRANCH   1   8
BRANCH   2  16
ATOM     16  O   UNL     1       3.917   2.210  18.238  0.00  0.00    +0.000 OA
BRANCH  16  17
ATOM     17  C   UNL     1       2.984   2.390  19.266  0.00  0.00    +0.000 A 
ATOM     18  C   UNL     1       1.687   2.767  18.926  0.00  0.00    +0.000 A 
ATOM     19  C   UNL     1       0.782   3.088  19.942  0.00  0.00    +0.000 A 
ATOM     20  C   UNL     1       1.174   3.034  21.285  0.00  0.00    +0.000 A 
ATOM     21  C   UNL     1       2.474   2.653  21.618  0.00  0.00    +0.000 A 
ATOM     22  C   UNL     1       3.374   2.343  20.608  0.00  0.00    +0.000 A 
ATOM     23  F   UNL     1       4.638   2.044  20.942  0.00  0.00    +0.000 F 
ENDBRANCH  16  17
ENDBRANCH   2  16
TORSDOF 7
ENDMDL
MODEL 6
REMARK VINA RESULT:      -7.4      1.428      1.952
REMARK  Name = 
REMARK  8 active torsions:
REMARK  status: ('A' for Active; 'I' for Inactive)
REMARK    1  A    between atoms: C_1  and  C_2
REMARK    2  A    between atoms: C_2  and  C_3
REMARK    3  A    between atoms: C_3  and  C_4
REMARK    4  A    between atoms: C_4  and  O_5
REMARK    5  A    between atoms: O_5  and  C_6
REMARK    6  A    between atoms: C_9  and  N_10
REMARK    7  A    between atoms: C_11  and  O_13
REMARK    8  A    between atoms: O_13  and  C_14
REMARK                            x       y       z     vdW  Elec       q    Type
REMARK                         _______ _______ _______ _____ _____    ______ ____
ROOT
ATOM      1  N   UNL     1       5.920   5.150  16.630  0.00  0.00    +0.000 N 
ATOM      2  C   UNL     1       7.252   4.933  16.354  0.00  0.00    +0.000 C 
ATOM      3  O   UNL     1       8.035   4.189  16.929  0.00  0.00    +0.000 OA
ATOM      4  H   UNL     1       5.473   5.829  16.030  0.00  0.00    +0.000 HD
ENDROOT
BRANCH   1   8
ATOM      5  C   UNL     1       3.460   2.822  19.161  0.00  0.00    +0.000 A 
ATOM      6  C   UNL     1       4.561   3.505  19.677  0.00  0.00    +0.000 A 
ATOM      7  C   UNL     1       5.373   4.283  18.855  0.00  0.00    +0.000 A 
ATOM      8  C   UNL     1       5.106   4.400  17.496  0.00  0.00    +0.000 A 
ATOM      9  C   UNL     1       4.008   3.707  16.965  0.00  0.00    +0.000 A 
ATOM     10  C   UNL     1       3.188   2.923  17.797  0.00  0.00    +0.000 A 
BRANCH   5  11
ATOM     11  O   UNL     1       2.611   2.040  19.913  0.00  0.00    +0.000 OA
BRANCH  11  12
ATOM     12  C   UNL     1       2.644   2.332  21.314  0.00  0.00    +0.000 C 
BRANCH  12  13
ATOM     13  C   UNL     1       1.454   3.175  21.748  0.00  0.00    +0.000 C 
BRANCH  13  15
ATOM     14  C   UNL     1       1.565   5.471  20.692  0.00  0.00    +0.000 C 
ATOM     15  C   UNL     1       1.012   4.064  20.581  0.00  0.00    +0.000 C 
ENDBRANCH  13  15
ENDBRANCH  12  13
ENDBRANCH  11  12
ENDBRANCH   5  11
ENDBRANCH   1   8
BRANCH   2  16
ATOM     16  O   UNL     1       7.597   5.692  15.245  0.00  0.00    +0.000 OA
BRANCH  16  17
ATOM     17  C   UNL     1       7.208   5.078  14.049  0.00  0.00    +0.000 A 
ATOM     18  C   UNL     1       6.173   4.146  14.089  0.00  0.00    +0.000 A 
ATOM     19  C   UNL     1       5.865   3.419  12.934  0.00  0.00    +0.000 A 
ATOM     20  C   UNL     1       6.588   3.624  11.754  0.00  0.00    +0.000 A 
ATOM     21  C   UNL     1       7.621   4.561  11.721  0.00  0.00    +0.000 A 
ATOM     22  C   UNL     1       7.932   5.275  12.870  0.00  0.00    +0.000 A 
ATOM     23  F   UNL     1       8.970   6.122  12.840  0.00  0.00    +0.000 F 
ENDBRANCH  16  17
ENDBRANCH   2  16
TORSDOF 7
ENDMDL
MODEL 7
REMARK VINA RESULT:      -7.3      2.826      7.102
REMARK  Name = 
REMARK  8 active torsions:
REMARK  status: ('A' for Active; 'I' for Inactive)
REMARK    1  A    between atoms: C_1  and  C_2
REMARK    2  A    between atoms: C_2  and  C_3
REMARK    3  A    between atoms: C_3  and  C_4
REMARK    4  A    between atoms: C_4  and  O_5
REMARK    5  A    between atoms: O_5  and  C_6
REMARK    6  A    between atoms: C_9  and  N_10
REMARK    7  A    between atoms: C_11  and  O_13
REMARK    8  A    between atoms: O_13  and  C_14
REMARK                            x       y       z     vdW  Elec       q    Type
REMARK                         _______ _______ _______ _____ _____    ______ ____
ROOT
ATOM      1  N   UNL     1       4.260   5.549  18.819  0.00  0.00    +0.000 N 
ATOM      2  C   UNL     1       3.191   6.413  18.910  0.00  0.00    +0.000 C 
ATOM      3  O   UNL     1       2.912   7.356  18.182  0.00  0.00    +0.000 OA
ATOM      4  H   UNL     1       4.298   4.852  19.549  0.00  0.00    +0.000 HD
ENDROOT
BRANCH   1   8
ATOM      5  C   UNL     1       6.915   5.263  15.541  0.00  0.00    +0.000 A 
ATOM      6  C   UNL     1       7.240   4.685  16.768  0.00  0.00    +0.000 A 
ATOM      7  C   UNL     1       6.369   4.764  17.852  0.00  0.00    +0.000 A 
ATOM      8  C   UNL     1       5.151   5.423  17.739  0.00  0.00    +0.000 A 
ATOM      9  C   UNL     1       4.820   6.018  16.514  0.00  0.00    +0.000 A 
ATOM     10  C   UNL     1       5.700   5.937  15.419  0.00  0.00    +0.000 A 
BRANCH   5  11
ATOM     11  O   UNL     1       7.723   5.220  14.426  0.00  0.00    +0.000 OA
BRANCH  11  12
ATOM     12  C   UNL     1       7.029   4.882  13.222  0.00  0.00    +0.000 C 
BRANCH  12  13
ATOM     13  C   UNL     1       6.236   3.590  13.365  0.00  0.00    +0.000 C 
BRANCH  13  15
ATOM     14  C   UNL     1       4.433   3.275  11.619  0.00  0.00    +0.000 C 
ATOM     15  C   UNL     1       5.890   3.053  11.973  0.00  0.00    +0.000 C 
ENDBRANCH  13  15
ENDBRANCH  12  13
ENDBRANCH  11  12
ENDBRANCH   5  11
ENDBRANCH   1   8
BRANCH   2  16
ATOM     16  O   UNL     1       2.404   6.023  19.985  0.00  0.00    +0.000 OA
BRANCH  16  17
ATOM     17  C   UNL     1       2.015   4.682  19.888  0.00  0.00    +0.000 A 
ATOM     18  C   UNL     1       1.503   4.227  18.675  0.00  0.00    +0.000 A 
ATOM     19  C   UNL     1       0.978   2.932  18.599  0.00  0.00    +0.000 A 
ATOM     20  C   UNL     1       0.966   2.105  19.728  0.00  0.00    +0.000 A 
ATOM     21  C   UNL     1       1.483   2.567  20.938  0.00  0.00    +0.000 A 
ATOM     22  C   UNL     1       1.994   3.856  21.015  0.00  0.00    +0.000 A 
ATOM     23  F   UNL     1       2.426   4.307  22.201  0.00  0.00    +0.000 F 
ENDBRANCH  16  17
ENDBRANCH   2  16
TORSDOF 7
ENDMDL
MODEL 8
REMARK VINA RESULT:      -7.3      3.918      7.563
REMARK  Name = 
REMARK  8 active torsions:
REMARK  status: ('A' for Active; 'I' for Inactive)
REMARK    1  A    between atoms: C_1  and  C_2
REMARK    2  A    between atoms: C_2  and  C_3
REMARK    3  A    between atoms: C_3  and  C_4
REMARK    4  A    between atoms: C_4  and  O_5
REMARK    5  A    between atoms: O_5  and  C_6
REMARK    6  A    between atoms: C_9  and  N_10
REMARK    7  A    between atoms: C_11  and  O_13
REMARK    8  A    between atoms: O_13  and  C_14
REMARK                            x       y       z     vdW  Elec       q    Type
REMARK                         _______ _______ _______ _____ _____    ______ ____
ROOT
ATOM      1  N   UNL     1       5.151   4.271  18.563  0.00  0.00    +0.000 N 
ATOM      2  C   UNL     1       4.405   3.562  17.648  0.00  0.00    +0.000 C 
ATOM      3  O   UNL     1       4.193   3.827  16.473  0.00  0.00    +0.000 OA
ATOM      4  H   UNL     1       5.171   3.868  19.489  0.00  0.00    +0.000 HD
ENDROOT
BRANCH   1   8
ATOM      5  C   UNL     1       7.674   7.563  17.740  0.00  0.00    +0.000 A 
ATOM      6  C   UNL     1       8.047   6.602  18.679  0.00  0.00    +0.000 A 
ATOM      7  C   UNL     1       7.230   5.508  18.951  0.00  0.00    +0.000 A 
ATOM      8  C   UNL     1       6.017   5.345  18.293  0.00  0.00    +0.000 A 
ATOM      9  C   UNL     1       5.626   6.312  17.356  0.00  0.00    +0.000 A 
ATOM     10  C   UNL     1       6.453   7.416  17.081  0.00  0.00    +0.000 A 
BRANCH   5  11
ATOM     11  O   UNL     1       8.433   8.665  17.416  0.00  0.00    +0.000 OA
BRANCH  11  12
ATOM     12  C   UNL     1       8.181   9.805  18.244  0.00  0.00    +0.000 C 
BRANCH  12  13
ATOM     13  C   UNL     1       9.314  10.054  19.230  0.00  0.00    +0.000 C 
BRANCH  13  15
ATOM     14  C   UNL     1       9.329  12.165  17.836  0.00  0.00    +0.000 C 
ATOM     15  C   UNL     1      10.118  11.277  18.777  0.00  0.00    +0.000 C 
ENDBRANCH  13  15
ENDBRANCH  12  13
ENDBRANCH  11  12
ENDBRANCH   5  11
ENDBRANCH   1   8
BRANCH   2  16
ATOM     16  O   UNL     1       3.928   2.415  18.268  0.00  0.00    +0.000 OA
BRANCH  16  17
ATOM     17  C   UNL     1       3.035   2.715  19.304  0.00  0.00    +0.000 A 
ATOM     18  C   UNL     1       3.435   2.468  20.615  0.00  0.00    +0.000 A 
ATOM     19  C   UNL     1       2.509   2.627  21.652  0.00  0.00    +0.000 A 
ATOM     20  C   UNL     1       1.197   3.028  21.375  0.00  0.00    +0.000 A 
ATOM     21  C   UNL     1       0.805   3.276  20.060  0.00  0.00    +0.000 A 
ATOM     22  C   UNL     1       1.722   3.108  19.031  0.00  0.00    +0.000 A 
ATOM     23  F   UNL     1       1.311   3.286  17.767  0.00  0.00    +0.000 F 
ENDBRANCH  16  17
ENDBRANCH   2  16
TORSDOF 7
ENDMDL
MODEL 9
REMARK VINA RESULT:      -7.2      2.432      7.048
REMARK  Name = 
REMARK  8 active torsions:
REMARK  status: ('A' for Active; 'I' for Inactive)
REMARK    1  A    between atoms: C_1  and  C_2
REMARK    2  A    between atoms: C_2  and  C_3
REMARK    3  A    between atoms: C_3  and  C_4
REMARK    4  A    between atoms: C_4  and  O_5
REMARK    5  A    between atoms: O_5  and  C_6
REMARK    6  A    between atoms: C_9  and  N_10
REMARK    7  A    between atoms: C_11  and  O_13
REMARK    8  A    between atoms: O_13  and  C_14
REMARK                            x       y       z     vdW  Elec       q    Type
REMARK                         _______ _______ _______ _____ _____    ______ ____
ROOT
ATOM      1  N   UNL     1       4.008   5.541  18.894  0.00  0.00    +0.000 N 
ATOM      2  C   UNL     1       3.010   6.492  18.884  0.00  0.00    +0.000 C 
ATOM      3  O   UNL     1       2.826   7.391  18.076  0.00  0.00    +0.000 OA
ATOM      4  H   UNL     1       3.972   4.904  19.677  0.00  0.00    +0.000 HD
ENDROOT
BRANCH   1   8
ATOM      5  C   UNL     1       6.652   4.720  15.698  0.00  0.00    +0.000 A 
ATOM      6  C   UNL     1       7.135   5.226  16.905  0.00  0.00    +0.000 A 
ATOM      7  C   UNL     1       6.275   5.491  17.968  0.00  0.00    +0.000 A 
ATOM      8  C   UNL     1       4.910   5.257  17.854  0.00  0.00    +0.000 A 
ATOM      9  C   UNL     1       4.412   4.760  16.641  0.00  0.00    +0.000 A 
ATOM     10  C   UNL     1       5.282   4.492  15.569  0.00  0.00    +0.000 A 
BRANCH   5  11
ATOM     11  O   UNL     1       7.442   4.429  14.609  0.00  0.00    +0.000 OA
BRANCH  11  12
ATOM     12  C   UNL     1       6.961   4.983  13.380  0.00  0.00    +0.000 C 
BRANCH  12  13
ATOM     13  C   UNL     1       7.085   3.999  12.225  0.00  0.00    +0.000 C 
BRANCH  13  15
ATOM     14  C   UNL     1       4.663   3.461  11.732  0.00  0.00    +0.000 C 
ATOM     15  C   UNL     1       5.965   2.960  12.324  0.00  0.00    +0.000 C 
ENDBRANCH  13  15
ENDBRANCH  12  13
ENDBRANCH  11  12
ENDBRANCH   5  11
ENDBRANCH   1   8
BRANCH   2  16
ATOM     16  O   UNL     1       2.170   6.253  19.963  0.00  0.00    +0.000 OA
BRANCH  16  17
ATOM     17  C   UNL     1       1.859   4.894  20.093  0.00  0.00    +0.000 A 
ATOM     18  C   UNL     1       2.203   4.246  21.277  0.00  0.00    +0.000 A 
ATOM     19  C   UNL     1       2.031   2.862  21.371  0.00  0.00    +0.000 A 
ATOM     20  C   UNL     1       1.522   2.135  20.288  0.00  0.00    +0.000 A 
ATOM     21  C   UNL     1       1.177   2.791  19.107  0.00  0.00    +0.000 A 
ATOM     22  C   UNL     1       1.358   4.164  19.011  0.00  0.00    +0.000 A 
ATOM     23  F   UNL     1       1.085   4.769  17.846  0.00  0.00    +0.000 F 
ENDBRANCH  16  17
ENDBRANCH   2  16
TORSDOF 7
ENDMDL
