MODEL 1
REMARK VINA RESULT:      -8.2      0.000      0.000
REMARK  Name = 
REMARK  10 active torsions:
REMARK  status: ('A' for Active; 'I' for Inactive)
REMARK    1  A    between atoms: C_1  and  O_2
REMARK    2  A    between atoms: O_2  and  C_3
REMARK    3  A    between atoms: C_3  and  C_5
REMARK    4  A    between atoms: C_7  and  N_8
REMARK    5  A    between atoms: C_9  and  C_11
REMARK    6  A    between atoms: C_12  and  C_13
REMARK    7  A    between atoms: C_13  and  O_15
REMARK    8  A    between atoms: C_22  and  C_23
REMARK    9  A    between atoms: C_25  and  C_26
REMARK   10  A    between atoms: C_29  and  C_30
REMARK                            x       y       z     vdW  Elec       q    Type
REMARK                         _______ _______ _______ _____ _____    ______ ____
ROOT
ATOM      1  C   UNL     1       6.192   3.940  13.667  0.00  0.00    +0.000 A 
ATOM      2  S   UNL     1       4.923   3.325  14.624  0.00  0.00    +0.000 S 
ATOM      3  C   UNL     1       5.448   4.104  16.023  0.00  0.00    +0.000 A 
ATOM      4  C   UNL     1       6.577   4.873  15.791  0.00  0.00    +0.000 A 
ATOM      5  C   UNL     1       7.024   4.782  14.409  0.00  0.00    +0.000 A 
ATOM      6  C   UNL     1       8.240   5.446  13.836  0.00  0.00    +0.000 C 
ENDROOT
BRANCH   4   7
ATOM      7  C   UNL     1       7.205   5.741  16.863  0.00  0.00    +0.000 A 
ATOM      8  N   UNL     1       7.429   7.024  16.674  0.00  0.00    +0.000 NA
ATOM      9  C   UNL     1       7.855   7.621  17.851  0.00  0.00    +0.000 A 
ATOM     10  C   UNL     1       8.032   9.094  17.890  0.00  0.00    +0.000 C 
ATOM     11  C   UNL     1       8.053   6.751  18.903  0.00  0.00    +0.000 A 
ATOM     12  S   UNL     1       7.623   5.167  18.436  0.00  0.00    +0.000 S 
ENDBRANCH   4   7
BRANCH   3  13
ATOM     13  N   UNL     1       4.726   3.984  17.203  0.00  0.00    +0.000 N 
ATOM     14  C   UNL     1       3.414   3.610  17.329  0.00  0.00    +0.000 C 
ATOM     15  O   UNL     1       2.668   3.225  16.435  0.00  0.00    +0.000 OA
ATOM     16  H   UNL     1       5.258   4.171  18.041  0.00  0.00    +0.000 HD
BRANCH  14  17
ATOM     17  C   UNL     1       2.888   3.634  18.713  0.00  0.00    +0.000 C 
ATOM     18  C   UNL     1       3.284   2.747  19.667  0.00  0.00    +0.000 C 
ATOM     19  C   UNL     1       2.457   2.834  20.958  0.00  0.00    +0.000 C 
ATOM     20  C   UNL     1       2.622   4.264  21.511  0.00  0.00    +0.000 C 
ATOM     21  C   UNL     1       2.208   5.284  20.434  0.00  0.00    +0.000 C 
ATOM     22  C   UNL     1       1.758   4.551  19.150  0.00  0.00    +0.000 C 
ATOM     23  C   UNL     1       0.560   3.647  19.494  0.00  0.00    +0.000 C 
ATOM     24  C   UNL     1       0.966   2.641  20.587  0.00  0.00    +0.000 C 
BRANCH  18  25
ATOM     25  C   UNL     1       4.351   1.717  19.645  0.00  0.00    +0.000 C 
ATOM     26  O   UNL     1       5.268   1.722  20.452  0.00  0.00    +0.000 OA
BRANCH  25  27
ATOM     27  O   UNL     1       4.362   0.916  18.563  0.00  0.00    +0.000 OA
ATOM     28  H   UNL     1       4.161   1.403  17.734  0.00  0.00    +0.000 HD
ENDBRANCH  25  27
ENDBRANCH  18  25
ENDBRANCH  14  17
ENDBRANCH   3  13
BRANCH   1  29
ATOM     29  C   UNL     1       6.290   3.550  12.262  0.00  0.00    +0.000 C 
ATOM     30  O   UNL     1       7.076   4.017  11.446  0.00  0.00    +0.000 OA
BRANCH  29  32
ATOM     31  C   UNL     1       5.912   1.411  11.315  0.00  0.00    +0.000 C 
ATOM     32  O   UNL     1       5.388   2.568  11.966  0.00  0.00    +0.000 OA
ENDBRANCH  29  32
ENDBRANCH   1  29
TORSDOF 7
ENDMDL
MODEL 2
REMARK VINA RESULT:      -7.6     10.139     12.486
REMARK  Name = 
REMARK  10 active torsions:
REMARK  status: ('A' for Active; 'I' for Inactive)
REMARK    1  A    between atoms: C_1  and  O_2
REMARK    2  A    between atoms: O_2  and  C_3
REMARK    3  A    between atoms: C_3  and  C_5
REMARK    4  A    between atoms: C_7  and  N_8
REMARK    5  A    between atoms: C_9  and  C_11
REMARK    6  A    between atoms: C_12  and  C_13
REMARK    7  A    between atoms: C_13  and  O_15
REMARK    8  A    between atoms: C_22  and  C_23
REMARK    9  A    between atoms: C_25  and  C_26
REMARK   10  A    between atoms: C_29  and  C_30
REMARK                            x       y       z     vdW  Elec       q    Type
REMARK                         _______ _______ _______ _____ _____    ______ ____
ROOT
ATOM      1  C   UNL     1       0.367  10.372  18.994  0.00  0.00    +0.000 A 
ATOM      2  S   UNL     1       0.649  11.342  20.366  0.00  0.00    +0.000 S 
ATOM      3  C   UNL     1      -0.903  11.998  20.363  0.00  0.00    +0.000 A 
ATOM      4  C   UNL     1      -1.681  11.475  19.343  0.00  0.00    +0.000 A 
ATOM      5  C   UNL     1      -0.943  10.519  18.532  0.00  0.00    +0.000 A 
ATOM      6  C   UNL     1      -1.470   9.808  17.320  0.00  0.00    +0.000 C 
ENDROOT
BRANCH   4   7
ATOM      7  C   UNL     1      -3.142  11.836  19.168  0.00  0.00    +0.000 A 
ATOM      8  N   UNL     1      -3.796  12.541  20.065  0.00  0.00    +0.000 NA
ATOM      9  C   UNL     1      -5.059  12.871  19.598  0.00  0.00    +0.000 A 
ATOM     10  C   UNL     1      -5.910  13.782  20.402  0.00  0.00    +0.000 C 
ATOM     11  C   UNL     1      -5.389  12.314  18.380  0.00  0.00    +0.000 A 
ATOM     12  S   UNL     1      -4.068  11.425  17.769  0.00  0.00    +0.000 S 
ENDBRANCH   4   7
BRANCH   3  13
ATOM     13  N   UNL     1      -1.283  12.898  21.350  0.00  0.00    +0.000 N 
ATOM     14  C   UNL     1      -1.371  12.654  22.696  0.00  0.00    +0.000 C 
ATOM     15  O   UNL     1      -1.040  11.628  23.281  0.00  0.00    +0.000 OA
ATOM     16  H   UNL     1      -1.484  13.829  21.014  0.00  0.00    +0.000 HD
BRANCH  14  17
ATOM     17  C   UNL     1      -1.871  13.788  23.505  0.00  0.00    +0.000 C 
ATOM     18  C   UNL     1      -3.090  13.781  24.110  0.00  0.00    +0.000 C 
ATOM     19  C   UNL     1      -3.475  15.138  24.718  0.00  0.00    +0.000 C 
ATOM     20  C   UNL     1      -2.402  15.489  25.768  0.00  0.00    +0.000 C 
ATOM     21  C   UNL     1      -1.011  15.471  25.109  0.00  0.00    +0.000 C 
ATOM     22  C   UNL     1      -1.134  15.113  23.611  0.00  0.00    +0.000 C 
ATOM     23  C   UNL     1      -2.018  16.169  22.924  0.00  0.00    +0.000 C 
ATOM     24  C   UNL     1      -3.404  16.204  23.597  0.00  0.00    +0.000 C 
BRANCH  18  25
ATOM     25  C   UNL     1      -4.093  12.697  24.250  0.00  0.00    +0.000 C 
ATOM     26  O   UNL     1      -4.669  12.223  23.282  0.00  0.00    +0.000 OA
BRANCH  25  27
ATOM     27  O   UNL     1      -4.479  12.422  25.509  0.00  0.00    +0.000 OA
ATOM     28  H   UNL     1      -4.123  11.564  25.832  0.00  0.00    +0.000 HD
ENDBRANCH  25  27
ENDBRANCH  18  25
ENDBRANCH  14  17
ENDBRANCH   3  13
BRANCH   1  29
ATOM     29  C   UNL     1       1.446   9.542  18.463  0.00  0.00    +0.000 C 
ATOM     30  O   UNL     1       2.053   9.745  17.418  0.00  0.00    +0.000 OA
BRANCH  29  32
ATOM     31  C   UNL     1       2.465   7.421  18.741  0.00  0.00    +0.000 C 
ATOM     32  O   UNL     1       1.713   8.497  19.301  0.00  0.00    +0.000 OA
ENDBRANCH  29  32
ENDBRANCH   1  29
TORSDOF 7
ENDMDL
MODEL 3
REMARK VINA RESULT:      -7.5      4.281      6.551
REMARK  Name = 
REMARK  10 active torsions:
REMARK  status: ('A' for Active; 'I' for Inactive)
REMARK    1  A    between atoms: C_1  and  O_2
REMARK    2  A    between atoms: O_2  and  C_3
REMARK    3  A    between atoms: C_3  and  C_5
REMARK    4  A    between atoms: C_7  and  N_8
REMARK    5  A    between atoms: C_9  and  C_11
REMARK    6  A    between atoms: C_12  and  C_13
REMARK    7  A    between atoms: C_13  and  O_15
REMARK    8  A    between atoms: C_22  and  C_23
REMARK    9  A    between atoms: C_25  and  C_26
REMARK   10  A    between atoms: C_29  and  C_30
REMARK                            x       y       z     vdW  Elec       q    Type
REMARK                         _______ _______ _______ _____ _____    ______ ____
ROOT
ATOM      1  C   UNL     1       5.315   5.696  16.661  0.00  0.00    +0.000 A 
ATOM      2  S   UNL     1       4.742   7.149  17.343  0.00  0.00    +0.000 S 
ATOM      3  C   UNL     1       3.523   6.388  18.223  0.00  0.00    +0.000 A 
ATOM      4  C   UNL     1       3.541   5.014  18.047  0.00  0.00    +0.000 A 
ATOM      5  C   UNL     1       4.590   4.597  17.129  0.00  0.00    +0.000 A 
ATOM      6  C   UNL     1       4.854   3.190  16.681  0.00  0.00    +0.000 C 
ENDROOT
BRANCH   4   7
ATOM      7  C   UNL     1       2.603   4.085  18.791  0.00  0.00    +0.000 A 
ATOM      8  N   UNL     1       2.806   3.753  20.047  0.00  0.00    +0.000 NA
ATOM      9  C   UNL     1       1.730   3.031  20.540  0.00  0.00    +0.000 A 
ATOM     10  C   UNL     1       1.697   2.676  21.980  0.00  0.00    +0.000 C 
ATOM     11  C   UNL     1       0.759   2.732  19.607  0.00  0.00    +0.000 A 
ATOM     12  S   UNL     1       1.160   3.432  18.104  0.00  0.00    +0.000 S 
ENDBRANCH   4   7
BRANCH   3  13
ATOM     13  N   UNL     1       2.693   7.130  19.053  0.00  0.00    +0.000 N 
ATOM     14  C   UNL     1       1.999   8.264  18.721  0.00  0.00    +0.000 C 
ATOM     15  O   UNL     1       1.911   8.774  17.609  0.00  0.00    +0.000 OA
ATOM     16  H   UNL     1       2.588   6.756  19.985  0.00  0.00    +0.000 HD
BRANCH  14  17
ATOM     17  C   UNL     1       1.244   8.883  19.833  0.00  0.00    +0.000 C 
ATOM     18  C   UNL     1       0.848  10.186  19.821  0.00  0.00    +0.000 C 
ATOM     19  C   UNL     1       0.265  10.656  21.162  0.00  0.00    +0.000 C 
ATOM     20  C   UNL     1      -0.959   9.769  21.465  0.00  0.00    +0.000 C 
ATOM     21  C   UNL     1      -0.537   8.288  21.452  0.00  0.00    +0.000 C 
ATOM     22  C   UNL     1       0.973   8.165  21.145  0.00  0.00    +0.000 C 
ATOM     23  C   UNL     1       1.759   8.918  22.234  0.00  0.00    +0.000 C 
ATOM     24  C   UNL     1       1.321  10.395  22.263  0.00  0.00    +0.000 C 
BRANCH  18  25
ATOM     25  C   UNL     1       0.912  11.204  18.745  0.00  0.00    +0.000 C 
ATOM     26  O   UNL     1       1.713  12.126  18.778  0.00  0.00    +0.000 OA
BRANCH  25  27
ATOM     27  O   UNL     1      -0.095  11.171  17.853  0.00  0.00    +0.000 OA
ATOM     28  H   UNL     1      -0.702  10.411  18.000  0.00  0.00    +0.000 HD
ENDBRANCH  25  27
ENDBRANCH  18  25
ENDBRANCH  14  17
ENDBRANCH   3  13
BRANCH   1  29
ATOM     29  C   UNL     1       6.426   5.733  15.713  0.00  0.00    +0.000 C 
ATOM     30  O   UNL     1       7.596   5.966  15.995  0.00  0.00    +0.000 OA
BRANCH  29  32
ATOM     31  C   UNL     1       6.718   4.442  13.748  0.00  0.00    +0.000 C 
ATOM     32  O   UNL     1       5.995   5.454  14.447  0.00  0.00    +0.000 OA
ENDBRANCH  29  32
ENDBRANCH   1  29
TORSDOF 7
ENDMDL
MODEL 4
REMARK VINA RESULT:      -7.5      1.332      2.194
REMARK  Name = 
REMARK  10 active torsions:
REMARK  status: ('A' for Active; 'I' for Inactive)
REMARK    1  A    between atoms: C_1  and  O_2
REMARK    2  A    between atoms: O_2  and  C_3
REMARK    3  A    between atoms: C_3  and  C_5
REMARK    4  A    between atoms: C_7  and  N_8
REMARK    5  A    between atoms: C_9  and  C_11
REMARK    6  A    between atoms: C_12  and  C_13
REMARK    7  A    between atoms: C_13  and  O_15
REMARK    8  A    between atoms: C_22  and  C_23
REMARK    9  A    between atoms: C_25  and  C_26
REMARK   10  A    between atoms: C_29  and  C_30
REMARK                            x       y       z     vdW  Elec       q    Type
REMARK                         _______ _______ _______ _____ _____    ______ ____
ROOT
ATOM      1  C   UNL     1       6.242   3.942  13.582  0.00  0.00    +0.000 A 
ATOM      2  S   UNL     1       4.885   3.427  14.475  0.00  0.00    +0.000 S 
ATOM      3  C   UNL     1       5.381   4.198  15.890  0.00  0.00    +0.000 A 
ATOM      4  C   UNL     1       6.568   4.889  15.710  0.00  0.00    +0.000 A 
ATOM      5  C   UNL     1       7.083   4.744  14.358  0.00  0.00    +0.000 A 
ATOM      6  C   UNL     1       8.370   5.319  13.843  0.00  0.00    +0.000 C 
ENDROOT
BRANCH   4   7
ATOM      7  C   UNL     1       7.190   5.736  16.802  0.00  0.00    +0.000 A 
ATOM      8  N   UNL     1       7.428   7.019  16.635  0.00  0.00    +0.000 NA
ATOM      9  C   UNL     1       7.845   7.595  17.826  0.00  0.00    +0.000 A 
ATOM     10  C   UNL     1       8.035   9.065  17.888  0.00  0.00    +0.000 C 
ATOM     11  C   UNL     1       8.022   6.707  18.867  0.00  0.00    +0.000 A 
ATOM     12  S   UNL     1       7.584   5.135  18.372  0.00  0.00    +0.000 S 
ENDBRANCH   4   7
BRANCH   3  13
ATOM     13  N   UNL     1       4.589   4.145  17.029  0.00  0.00    +0.000 N 
ATOM     14  C   UNL     1       3.277   3.755  17.101  0.00  0.00    +0.000 C 
ATOM     15  O   UNL     1       2.595   3.293  16.193  0.00  0.00    +0.000 OA
ATOM     16  H   UNL     1       5.065   4.401  17.883  0.00  0.00    +0.000 HD
BRANCH  14  17
ATOM     17  C   UNL     1       2.666   3.864  18.445  0.00  0.00    +0.000 C 
ATOM     18  C   UNL     1       2.625   5.032  19.143  0.00  0.00    +0.000 C 
ATOM     19  C   UNL     1       2.133   4.859  20.588  0.00  0.00    +0.000 C 
ATOM     20  C   UNL     1       0.708   4.273  20.518  0.00  0.00    +0.000 C 
ATOM     21  C   UNL     1       0.728   2.966  19.703  0.00  0.00    +0.000 C 
ATOM     22  C   UNL     1       2.164   2.659  19.223  0.00  0.00    +0.000 C 
ATOM     23  C   UNL     1       3.075   2.514  20.455  0.00  0.00    +0.000 C 
ATOM     24  C   UNL     1       3.039   3.813  21.283  0.00  0.00    +0.000 C 
BRANCH  18  25
ATOM     25  C   UNL     1       2.997   6.410  18.743  0.00  0.00    +0.000 C 
ATOM     26  O   UNL     1       4.089   6.668  18.258  0.00  0.00    +0.000 OA
BRANCH  25  27
ATOM     27  O   UNL     1       2.150   7.378  19.140  0.00  0.00    +0.000 OA
ATOM     28  H   UNL     1       1.266   7.299  18.718  0.00  0.00    +0.000 HD
ENDBRANCH  25  27
ENDBRANCH  18  25
ENDBRANCH  14  17
ENDBRANCH   3  13
BRANCH   1  29
ATOM     29  C   UNL     1       6.391   3.521  12.191  0.00  0.00    +0.000 C 
ATOM     30  O   UNL     1       7.177   4.002  11.382  0.00  0.00    +0.000 OA
BRANCH  29  32
ATOM     31  C   UNL     1       6.111   1.389  11.198  0.00  0.00    +0.000 C 
ATOM     32  O   UNL     1       5.541   2.493  11.900  0.00  0.00    +0.000 OA
ENDBRANCH  29  32
ENDBRANCH   1  29
TORSDOF 7
ENDMDL
MODEL 5
REMARK VINA RESULT:      -7.4      3.968      7.960
REMARK  Name = 
REMARK  10 active torsions:
REMARK  status: ('A' for Active; 'I' for Inactive)
REMARK    1  A    between atoms: C_1  and  O_2
REMARK    2  A    between atoms: O_2  and  C_3
REMARK    3  A    between atoms: C_3  and  C_5
REMARK    4  A    between atoms: C_7  and  N_8
REMARK    5  A    between atoms: C_9  and  C_11
REMARK    6  A    between atoms: C_12  and  C_13
REMARK    7  A    between atoms: C_13  and  O_15
REMARK    8  A    between atoms: C_22  and  C_23
REMARK    9  A    between atoms: C_25  and  C_26
REMARK   10  A    between atoms: C_29  and  C_30
REMARK                            x       y       z     vdW  Elec       q    Type
REMARK                         _______ _______ _______ _____ _____    ______ ____
ROOT
ATOM      1  C   UNL     1       1.121   9.276  20.092  0.00  0.00    +0.000 A 
ATOM      2  S   UNL     1       2.175   9.131  18.762  0.00  0.00    +0.000 S 
ATOM      3  C   UNL     1       2.374   7.469  18.954  0.00  0.00    +0.000 A 
ATOM      4  C   UNL     1       1.623   6.979  20.010  0.00  0.00    +0.000 A 
ATOM      5  C   UNL     1       0.884   8.034  20.687  0.00  0.00    +0.000 A 
ATOM      6  C   UNL     1       0.015   7.857  21.897  0.00  0.00    +0.000 C 
ENDROOT
BRANCH   4   7
ATOM      7  C   UNL     1       1.557   5.503  20.347  0.00  0.00    +0.000 A 
ATOM      8  N   UNL     1       0.919   4.644  19.581  0.00  0.00    +0.000 NA
ATOM      9  C   UNL     1       1.143   3.347  20.016  0.00  0.00    +0.000 A 
ATOM     10  C   UNL     1       0.625   2.215  19.208  0.00  0.00    +0.000 C 
ATOM     11  C   UNL     1       1.870   3.245  21.184  0.00  0.00    +0.000 A 
ATOM     12  S   UNL     1       2.351   4.796  21.707  0.00  0.00    +0.000 S 
ENDBRANCH   4   7
BRANCH   3  13
ATOM     13  N   UNL     1       3.165   6.752  18.065  0.00  0.00    +0.000 N 
ATOM     14  C   UNL     1       4.303   6.049  18.360  0.00  0.00    +0.000 C 
ATOM     15  O   UNL     1       4.777   5.847  19.473  0.00  0.00    +0.000 OA
ATOM     16  H   UNL     1       2.824   6.744  17.114  0.00  0.00    +0.000 HD
BRANCH  14  17
ATOM     17  C   UNL     1       4.978   5.435  17.194  0.00  0.00    +0.000 C 
ATOM     18  C   UNL     1       5.050   4.088  17.009  0.00  0.00    +0.000 C 
ATOM     19  C   UNL     1       5.970   3.683  15.848  0.00  0.00    +0.000 C 
ATOM     20  C   UNL     1       5.402   4.330  14.568  0.00  0.00    +0.000 C 
ATOM     21  C   UNL     1       5.283   5.852  14.769  0.00  0.00    +0.000 C 
ATOM     22  C   UNL     1       5.773   6.244  16.182  0.00  0.00    +0.000 C 
ATOM     23  C   UNL     1       7.244   5.816  16.329  0.00  0.00    +0.000 C 
ATOM     24  C   UNL     1       7.368   4.296  16.105  0.00  0.00    +0.000 C 
BRANCH  18  25
ATOM     25  C   UNL     1       4.411   2.976  17.753  0.00  0.00    +0.000 C 
ATOM     26  O   UNL     1       3.374   2.456  17.369  0.00  0.00    +0.000 OA
BRANCH  25  27
ATOM     27  O   UNL     1       4.923   2.724  18.972  0.00  0.00    +0.000 OA
ATOM     28  H   UNL     1       4.295   2.235  19.548  0.00  0.00    +0.000 HD
ENDBRANCH  25  27
ENDBRANCH  18  25
ENDBRANCH  14  17
ENDBRANCH   3  13
BRANCH   1  29
ATOM     29  C   UNL     1       0.607  10.591  20.466  0.00  0.00    +0.000 C 
ATOM     30  O   UNL     1       1.180  11.403  21.183  0.00  0.00    +0.000 OA
BRANCH  29  32
ATOM     31  C   UNL     1      -0.631  11.752  18.813  0.00  0.00    +0.000 C 
ATOM     32  O   UNL     1      -0.611  10.818  19.891  0.00  0.00    +0.000 OA
ENDBRANCH  29  32
ENDBRANCH   1  29
TORSDOF 7
ENDMDL
MODEL 6
REMARK VINA RESULT:      -7.3      1.056      1.455
REMARK  Name = 
REMARK  10 active torsions:
REMARK  status: ('A' for Active; 'I' for Inactive)
REMARK    1  A    between atoms: C_1  and  O_2
REMARK    2  A    between atoms: O_2  and  C_3
REMARK    3  A    between atoms: C_3  and  C_5
REMARK    4  A    between atoms: C_7  and  N_8
REMARK    5  A    between atoms: C_9  and  C_11
REMARK    6  A    between atoms: C_12  and  C_13
REMARK    7  A    between atoms: C_13  and  O_15
REMARK    8  A    between atoms: C_22  and  C_23
REMARK    9  A    between atoms: C_25  and  C_26
REMARK   10  A    between atoms: C_29  and  C_30
REMARK                            x       y       z     vdW  Elec       q    Type
REMARK                         _______ _______ _______ _____ _____    ______ ____
ROOT
ATOM      1  C   UNL     1       6.231   3.930  13.751  0.00  0.00    +0.000 A 
ATOM      2  S   UNL     1       4.887   3.263  14.559  0.00  0.00    +0.000 S 
ATOM      3  C   UNL     1       5.309   3.928  16.049  0.00  0.00    +0.000 A 
ATOM      4  C   UNL     1       6.459   4.696  15.962  0.00  0.00    +0.000 A 
ATOM      5  C   UNL     1       7.010   4.703  14.616  0.00  0.00    +0.000 A 
ATOM      6  C   UNL     1       8.272   5.391  14.189  0.00  0.00    +0.000 C 
ENDROOT
BRANCH   4   7
ATOM      7  C   UNL     1       7.009   5.474  17.142  0.00  0.00    +0.000 A 
ATOM      8  N   UNL     1       7.341   4.882  18.269  0.00  0.00    +0.000 NA
ATOM      9  C   UNL     1       7.964   5.779  19.123  0.00  0.00    +0.000 A 
ATOM     10  C   UNL     1       8.541   5.282  20.396  0.00  0.00    +0.000 C 
ATOM     11  C   UNL     1       8.000   7.081  18.668  0.00  0.00    +0.000 A 
ATOM     12  S   UNL     1       7.314   7.172  17.109  0.00  0.00    +0.000 S 
ENDBRANCH   4   7
BRANCH   3  13
ATOM     13  N   UNL     1       4.497   3.730  17.158  0.00  0.00    +0.000 N 
ATOM     14  C   UNL     1       3.717   4.666  17.783  0.00  0.00    +0.000 C 
ATOM     15  O   UNL     1       3.520   5.821  17.422  0.00  0.00    +0.000 OA
ATOM     16  H   UNL     1       4.481   2.779  17.501  0.00  0.00    +0.000 HD
BRANCH  14  17
ATOM     17  C   UNL     1       3.007   4.182  18.989  0.00  0.00    +0.000 C 
ATOM     18  C   UNL     1       3.195   2.937  19.505  0.00  0.00    +0.000 C 
ATOM     19  C   UNL     1       2.205   2.588  20.627  0.00  0.00    +0.000 C 
ATOM     20  C   UNL     1       2.402   3.626  21.750  0.00  0.00    +0.000 C 
ATOM     21  C   UNL     1       2.224   5.045  21.178  0.00  0.00    +0.000 C 
ATOM     22  C   UNL     1       1.901   4.975  19.668  0.00  0.00    +0.000 C 
ATOM     23  C   UNL     1       0.601   4.174  19.479  0.00  0.00    +0.000 C 
ATOM     24  C   UNL     1       0.770   2.761  20.072  0.00  0.00    +0.000 C 
BRANCH  18  25
ATOM     25  C   UNL     1       4.170   1.880  19.146  0.00  0.00    +0.000 C 
ATOM     26  O   UNL     1       3.882   0.969  18.384  0.00  0.00    +0.000 OA
BRANCH  25  27
ATOM     27  O   UNL     1       5.306   1.868  19.868  0.00  0.00    +0.000 OA
ATOM     28  H   UNL     1       5.319   2.567  20.558  0.00  0.00    +0.000 HD
ENDBRANCH  25  27
ENDBRANCH  18  25
ENDBRANCH  14  17
ENDBRANCH   3  13
BRANCH   1  29
ATOM     29  C   UNL     1       6.433   3.645  12.332  0.00  0.00    +0.000 C 
ATOM     30  O   UNL     1       7.233   4.215  11.598  0.00  0.00    +0.000 OA
BRANCH  29  32
ATOM     31  C   UNL     1       6.251   1.558  11.226  0.00  0.00    +0.000 C 
ATOM     32  O   UNL     1       5.616   2.633  11.918  0.00  0.00    +0.000 OA
ENDBRANCH  29  32
ENDBRANCH   1  29
TORSDOF 7
ENDMDL
MODEL 7
REMARK VINA RESULT:      -7.2      9.823     11.771
REMARK  Name = 
REMARK  10 active torsions:
REMARK  status: ('A' for Active; 'I' for Inactive)
REMARK    1  A    between atoms: C_1  and  O_2
REMARK    2  A    between atoms: O_2  and  C_3
REMARK    3  A    between atoms: C_3  and  C_5
REMARK    4  A    between atoms: C_7  and  N_8
REMARK    5  A    between atoms: C_9  and  C_11
REMARK    6  A    between atoms: C_12  and  C_13
REMARK    7  A    between atoms: C_13  and  O_15
REMARK    8  A    between atoms: C_22  and  C_23
REMARK    9  A    between atoms: C_25  and  C_26
REMARK   10  A    between atoms: C_29  and  C_30
REMARK                            x       y       z     vdW  Elec       q    Type
REMARK                         _______ _______ _______ _____ _____    ______ ____
ROOT
ATOM      1  C   UNL     1       0.974  10.463  19.022  0.00  0.00    +0.000 A 
ATOM      2  S   UNL     1      -0.418  10.255  19.982  0.00  0.00    +0.000 S 
ATOM      3  C   UNL     1      -0.590  11.903  20.290  0.00  0.00    +0.000 A 
ATOM      4  C   UNL     1       0.383  12.651  19.648  0.00  0.00    +0.000 A 
ATOM      5  C   UNL     1       1.309  11.814  18.900  0.00  0.00    +0.000 A 
ATOM      6  C   UNL     1       2.505  12.297  18.135  0.00  0.00    +0.000 C 
ENDROOT
BRANCH   4   7
ATOM      7  C   UNL     1       0.406  14.166  19.692  0.00  0.00    +0.000 A 
ATOM      8  N   UNL     1      -0.646  14.887  19.368  0.00  0.00    +0.000 NA
ATOM      9  C   UNL     1      -0.421  16.226  19.646  0.00  0.00    +0.000 A 
ATOM     10  C   UNL     1      -1.534  17.193  19.481  0.00  0.00    +0.000 C 
ATOM     11  C   UNL     1       0.853  16.521  20.083  0.00  0.00    +0.000 A 
ATOM     12  S   UNL     1       1.766  15.087  20.225  0.00  0.00    +0.000 S 
ENDBRANCH   4   7
BRANCH   3  13
ATOM     13  N   UNL     1      -1.655  12.364  21.053  0.00  0.00    +0.000 N 
ATOM     14  C   UNL     1      -1.818  12.225  22.406  0.00  0.00    +0.000 C 
ATOM     15  O   UNL     1      -1.011  11.753  23.200  0.00  0.00    +0.000 OA
ATOM     16  H   UNL     1      -2.354  12.874  20.532  0.00  0.00    +0.000 HD
BRANCH  14  17
ATOM     17  C   UNL     1      -3.090  12.760  22.941  0.00  0.00    +0.000 C 
ATOM     18  C   UNL     1      -4.068  13.272  22.143  0.00  0.00    +0.000 C 
ATOM     19  C   UNL     1      -5.199  13.952  22.928  0.00  0.00    +0.000 C 
ATOM     20  C   UNL     1      -5.821  12.884  23.851  0.00  0.00    +0.000 C 
ATOM     21  C   UNL     1      -4.723  12.270  24.741  0.00  0.00    +0.000 C 
ATOM     22  C   UNL     1      -3.357  12.921  24.428  0.00  0.00    +0.000 C 
ATOM     23  C   UNL     1      -3.458  14.432  24.701  0.00  0.00    +0.000 C 
ATOM     24  C   UNL     1      -4.571  15.044  23.828  0.00  0.00    +0.000 C 
BRANCH  18  25
ATOM     25  C   UNL     1      -4.195  13.295  20.666  0.00  0.00    +0.000 C 
ATOM     26  O   UNL     1      -4.622  12.336  20.041  0.00  0.00    +0.000 OA
BRANCH  25  27
ATOM     27  O   UNL     1      -3.617  14.343  20.050  0.00  0.00    +0.000 OA
ATOM     28  H   UNL     1      -2.698  14.147  19.760  0.00  0.00    +0.000 HD
ENDBRANCH  25  27
ENDBRANCH  18  25
ENDBRANCH  14  17
ENDBRANCH   3  13
BRANCH   1  29
ATOM     29  C   UNL     1       1.645   9.292  18.461  0.00  0.00    +0.000 C 
ATOM     30  O   UNL     1       1.944   9.138  17.283  0.00  0.00    +0.000 OA
BRANCH  29  32
ATOM     31  C   UNL     1       2.464   7.133  18.993  0.00  0.00    +0.000 C 
ATOM     32  O   UNL     1       1.920   8.376  19.436  0.00  0.00    +0.000 OA
ENDBRANCH  29  32
ENDBRANCH   1  29
TORSDOF 7
ENDMDL
MODEL 8
REMARK VINA RESULT:      -7.2      9.791     13.311
REMARK  Name = 
REMARK  10 active torsions:
REMARK  status: ('A' for Active; 'I' for Inactive)
REMARK    1  A    between atoms: C_1  and  O_2
REMARK    2  A    between atoms: O_2  and  C_3
REMARK    3  A    between atoms: C_3  and  C_5
REMARK    4  A    between atoms: C_7  and  N_8
REMARK    5  A    between atoms: C_9  and  C_11
REMARK    6  A    between atoms: C_12  and  C_13
REMARK    7  A    between atoms: C_13  and  O_15
REMARK    8  A    between atoms: C_22  and  C_23
REMARK    9  A    between atoms: C_25  and  C_26
REMARK   10  A    between atoms: C_29  and  C_30
REMARK                            x       y       z     vdW  Elec       q    Type
REMARK                         _______ _______ _______ _____ _____    ______ ____
ROOT
ATOM      1  C   UNL     1       6.014  13.729  25.014  0.00  0.00    +0.000 A 
ATOM      2  S   UNL     1       6.998  12.574  24.239  0.00  0.00    +0.000 S 
ATOM      3  C   UNL     1       7.096  13.452  22.804  0.00  0.00    +0.000 A 
ATOM      4  C   UNL     1       6.413  14.654  22.888  0.00  0.00    +0.000 A 
ATOM      5  C   UNL     1       5.772  14.826  24.183  0.00  0.00    +0.000 A 
ATOM      6  C   UNL     1       4.913  15.988  24.588  0.00  0.00    +0.000 C 
ENDROOT
BRANCH   4   7
ATOM      7  C   UNL     1       6.412  15.671  21.764  0.00  0.00    +0.000 A 
ATOM      8  N   UNL     1       5.705  15.493  20.669  0.00  0.00    +0.000 NA
ATOM      9  C   UNL     1       5.747  16.629  19.875  0.00  0.00    +0.000 A 
ATOM     10  C   UNL     1       4.903  16.689  18.656  0.00  0.00    +0.000 C 
ATOM     11  C   UNL     1       6.582  17.626  20.334  0.00  0.00    +0.000 A 
ATOM     12  S   UNL     1       7.268  17.168  21.828  0.00  0.00    +0.000 S 
ENDBRANCH   4   7
BRANCH   3  13
ATOM     13  N   UNL     1       7.854  12.975  21.743  0.00  0.00    +0.000 N 
ATOM     14  C   UNL     1       9.114  13.378  21.386  0.00  0.00    +0.000 C 
ATOM     15  O   UNL     1       9.835  14.163  21.992  0.00  0.00    +0.000 OA
ATOM     16  H   UNL     1       7.415  12.234  21.214  0.00  0.00    +0.000 HD
BRANCH  14  17
ATOM     17  C   UNL     1       9.652  12.738  20.164  0.00  0.00    +0.000 C 
ATOM     18  C   UNL     1       9.350  13.173  18.910  0.00  0.00    +0.000 C 
ATOM     19  C   UNL     1       9.854  12.234  17.804  0.00  0.00    +0.000 C 
ATOM     20  C   UNL     1      11.387  12.146  17.942  0.00  0.00    +0.000 C 
ATOM     21  C   UNL     1      11.750  11.685  19.366  0.00  0.00    +0.000 C 
ATOM     22  C   UNL     1      10.467  11.455  20.196  0.00  0.00    +0.000 C 
ATOM     23  C   UNL     1       9.619  10.374  19.503  0.00  0.00    +0.000 C 
ATOM     24  C   UNL     1       9.274  10.823  18.070  0.00  0.00    +0.000 C 
BRANCH  18  25
ATOM     25  C   UNL     1       8.607  14.373  18.457  0.00  0.00    +0.000 C 
ATOM     26  O   UNL     1       9.071  15.499  18.567  0.00  0.00    +0.000 OA
BRANCH  25  27
ATOM     27  O   UNL     1       7.320  14.166  18.120  0.00  0.00    +0.000 OA
ATOM     28  H   UNL     1       6.723  14.169  18.901  0.00  0.00    +0.000 HD
ENDBRANCH  25  27
ENDBRANCH  18  25
ENDBRANCH  14  17
ENDBRANCH   3  13
BRANCH   1  29
ATOM     29  C   UNL     1       5.542  13.479  26.374  0.00  0.00    +0.000 C 
ATOM     30  O   UNL     1       4.549  12.827  26.675  0.00  0.00    +0.000 OA
BRANCH  29  32
ATOM     31  C   UNL     1       7.181  13.170  28.057  0.00  0.00    +0.000 C 
ATOM     32  O   UNL     1       6.371  14.061  27.290  0.00  0.00    +0.000 OA
ENDBRANCH  29  32
ENDBRANCH   1  29
TORSDOF 7
ENDMDL
MODEL 9
REMARK VINA RESULT:      -7.2     11.850     14.432
REMARK  Name = 
REMARK  10 active torsions:
REMARK  status: ('A' for Active; 'I' for Inactive)
REMARK    1  A    between atoms: C_1  and  O_2
REMARK    2  A    between atoms: O_2  and  C_3
REMARK    3  A    between atoms: C_3  and  C_5
REMARK    4  A    between atoms: C_7  and  N_8
REMARK    5  A    between atoms: C_9  and  C_11
REMARK    6  A    between atoms: C_12  and  C_13
REMARK    7  A    between atoms: C_13  and  O_15
REMARK    8  A    between atoms: C_22  and  C_23
REMARK    9  A    between atoms: C_25  and  C_26
REMARK   10  A    between atoms: C_29  and  C_30
REMARK                            x       y       z     vdW  Elec       q    Type
REMARK                         _______ _______ _______ _____ _____    ______ ____
ROOT
ATOM      1  C   UNL     1      -2.901  11.435  18.154  0.00  0.00    +0.000 A 
ATOM      2  S   UNL     1      -1.890  12.446  19.081  0.00  0.00    +0.000 S 
ATOM      3  C   UNL     1      -3.146  12.992  20.063  0.00  0.00    +0.000 A 
ATOM      4  C   UNL     1      -4.353  12.398  19.733  0.00  0.00    +0.000 A 
ATOM      5  C   UNL     1      -4.221  11.482  18.611  0.00  0.00    +0.000 A 
ATOM      6  C   UNL     1      -5.339  10.714  17.969  0.00  0.00    +0.000 C 
ENDROOT
BRANCH   4   7
ATOM      7  C   UNL     1      -5.626  12.653  20.516  0.00  0.00    +0.000 A 
ATOM      8  N   UNL     1      -5.797  12.187  21.734  0.00  0.00    +0.000 NA
ATOM      9  C   UNL     1      -6.965  12.690  22.287  0.00  0.00    +0.000 A 
ATOM     10  C   UNL     1      -7.275  12.397  23.708  0.00  0.00    +0.000 C 
ATOM     11  C   UNL     1      -7.728  13.455  21.430  0.00  0.00    +0.000 A 
ATOM     12  S   UNL     1      -6.934  13.615  19.929  0.00  0.00    +0.000 S 
ENDBRANCH   4   7
BRANCH   3  13
ATOM     13  N   UNL     1      -2.887  13.880  21.099  0.00  0.00    +0.000 N 
ATOM     14  C   UNL     1      -2.620  13.564  22.405  0.00  0.00    +0.000 C 
ATOM     15  O   UNL     1      -2.468  12.442  22.875  0.00  0.00    +0.000 OA
ATOM     16  H   UNL     1      -2.876  14.853  20.825  0.00  0.00    +0.000 HD
BRANCH  14  17
ATOM     17  C   UNL     1      -2.449  14.726  23.306  0.00  0.00    +0.000 C 
ATOM     18  C   UNL     1      -3.454  15.605  23.575  0.00  0.00    +0.000 C 
ATOM     19  C   UNL     1      -2.988  16.836  24.366  0.00  0.00    +0.000 C 
ATOM     20  C   UNL     1      -2.404  16.329  25.700  0.00  0.00    +0.000 C 
ATOM     21  C   UNL     1      -1.286  15.308  25.417  0.00  0.00    +0.000 C 
ATOM     22  C   UNL     1      -1.105  15.123  23.893  0.00  0.00    +0.000 C 
ATOM     23  C   UNL     1      -0.733  16.482  23.274  0.00  0.00    +0.000 C 
ATOM     24  C   UNL     1      -1.841  17.511  23.575  0.00  0.00    +0.000 C 
BRANCH  18  25
ATOM     25  C   UNL     1      -4.890  15.570  23.210  0.00  0.00    +0.000 C 
ATOM     26  O   UNL     1      -5.275  15.832  22.079  0.00  0.00    +0.000 OA
BRANCH  25  27
ATOM     27  O   UNL     1      -5.748  15.443  24.239  0.00  0.00    +0.000 OA
ATOM     28  H   UNL     1      -5.549  14.660  24.799  0.00  0.00    +0.000 HD
ENDBRANCH  25  27
ENDBRANCH  18  25
ENDBRANCH  14  17
ENDBRANCH   3  13
BRANCH   1  29
ATOM     29  C   UNL     1      -2.336  10.674  17.042  0.00  0.00    +0.000 C 
ATOM     30  O   UNL     1      -1.669   9.650  17.146  0.00  0.00    +0.000 OA
BRANCH  29  32
ATOM     31  C   UNL     1      -3.287  10.387  14.891  0.00  0.00    +0.000 C 
ATOM     32  O   UNL     1      -2.663  11.245  15.845  0.00  0.00    +0.000 OA
ENDBRANCH  29  32
ENDBRANCH   1  29
TORSDOF 7
ENDMDL
