MODEL 1
REMARK VINA RESULT:      -8.4      0.000      0.000
REMARK  Name = 
REMARK  3 active torsions:
REMARK  status: ('A' for Active; 'I' for Inactive)
REMARK    1  A    between atoms: C_8  and  C_9
REMARK    2  A    between atoms: C_9  and  C_10
REMARK    3  A    between atoms: C_13  and  N_14
REMARK                            x       y       z     vdW  Elec       q    Type
REMARK                         _______ _______ _______ _____ _____    ______ ____
ROOT
ATOM      1  N   UNL     1       3.974   0.707  18.600  0.00  0.00    +0.000 N 
ATOM      2  C   UNL     1       3.448   1.980  18.674  0.00  0.00    +0.000 A 
ATOM      3  N   UNL     1       2.277   2.124  19.290  0.00  0.00    +0.000 NA
ATOM      4  C   UNL     1       1.760   3.353  19.305  0.00  0.00    +0.000 A 
ATOM      5  N   UNL     1       0.538   3.477  19.978  0.00  0.00    +0.000 N 
ATOM      6  C   UNL     1       2.400   4.450  18.733  0.00  0.00    +0.000 A 
ATOM      7  C   UNL     1       1.886   5.768  18.691  0.00  0.00    +0.000 A 
ATOM      8  C   UNL     1       2.622   6.786  18.092  0.00  0.00    +0.000 A 
ATOM      9  C   UNL     1       3.860   6.429  17.588  0.00  0.00    +0.000 A 
ATOM     10  N   UNL     1       4.365   5.174  17.622  0.00  0.00    +0.000 NA
ATOM     11  C   UNL     1       3.646   4.189  18.169  0.00  0.00    +0.000 A 
ATOM     12  N   UNL     1       4.161   2.968  18.144  0.00  0.00    +0.000 NA
ATOM     13  H   UNL     1       3.613   0.129  19.345  0.00  0.00    +0.000 HD
ATOM     14  H   UNL     1       4.978   0.753  18.484  0.00  0.00    +0.000 HD
ATOM     15  H   UNL     1       0.264   2.542  20.273  0.00  0.00    +0.000 HD
ATOM     16  H   UNL     1      -0.173   3.901  19.394  0.00  0.00    +0.000 HD
ENDROOT
BRANCH   8  17
ATOM     17  C   UNL     1       2.099   8.190  17.989  0.00  0.00    +0.000 C 
BRANCH  17  18
ATOM     18  C   UNL     1       1.524   8.740  19.278  0.00  0.00    +0.000 A 
ATOM     19  C   UNL     1       0.713   9.886  19.267  0.00  0.00    +0.000 A 
ATOM     20  C   UNL     1       0.129  10.360  20.446  0.00  0.00    +0.000 A 
ATOM     21  C   UNL     1       0.363   9.687  21.651  0.00  0.00    +0.000 A 
ATOM     22  C   UNL     1       1.196   8.564  21.685  0.00  0.00    +0.000 A 
ATOM     23  C   UNL     1       1.778   8.098  20.501  0.00  0.00    +0.000 A 
BRANCH  21  24
ATOM     24  N   UNL     1      -0.288  10.150  22.884  0.00  0.00    +0.000 N 
ATOM     25  O   UNL     1      -1.265  10.905  22.771  0.00  0.00    +0.000 OA
ATOM     26  O   UNL     1       0.168   9.748  23.962  0.00  0.00    +0.000 OA
ENDBRANCH  21  24
ENDBRANCH  17  18
ENDBRANCH   8  17
TORSDOF 3
ENDMDL
MODEL 2
REMARK VINA RESULT:      -8.1      1.032      1.062
REMARK  Name = 
REMARK  3 active torsions:
REMARK  status: ('A' for Active; 'I' for Inactive)
REMARK    1  A    between atoms: C_8  and  C_9
REMARK    2  A    between atoms: C_9  and  C_10
REMARK    3  A    between atoms: C_13  and  N_14
REMARK                            x       y       z     vdW  Elec       q    Type
REMARK                         _______ _______ _______ _____ _____    ______ ____
ROOT
ATOM      1  N   UNL     1       5.156   1.413  20.107  0.00  0.00    +0.000 N 
ATOM      2  C   UNL     1       4.403   2.539  19.845  0.00  0.00    +0.000 A 
ATOM      3  N   UNL     1       3.121   2.514  20.201  0.00  0.00    +0.000 NA
ATOM      4  C   UNL     1       2.397   3.591  19.892  0.00  0.00    +0.000 A 
ATOM      5  N   UNL     1       1.058   3.545  20.297  0.00  0.00    +0.000 N 
ATOM      6  C   UNL     1       2.934   4.705  19.249  0.00  0.00    +0.000 A 
ATOM      7  C   UNL     1       2.209   5.859  18.868  0.00  0.00    +0.000 A 
ATOM      8  C   UNL     1       2.859   6.912  18.232  0.00  0.00    +0.000 A 
ATOM      9  C   UNL     1       4.220   6.762  18.036  0.00  0.00    +0.000 A 
ATOM     10  N   UNL     1       4.926   5.665  18.396  0.00  0.00    +0.000 NA
ATOM     11  C   UNL     1       4.299   4.639  18.979  0.00  0.00    +0.000 A 
ATOM     12  N   UNL     1       5.020   3.569  19.276  0.00  0.00    +0.000 NA
ATOM     13  H   UNL     1       4.754   0.887  20.870  0.00  0.00    +0.000 HD
ATOM     14  H   UNL     1       6.135   1.657  20.168  0.00  0.00    +0.000 HD
ATOM     15  H   UNL     1       0.902   2.627  20.708  0.00  0.00    +0.000 HD
ATOM     16  H   UNL     1       0.423   3.715  19.525  0.00  0.00    +0.000 HD
ENDROOT
BRANCH   8  17
ATOM     17  C   UNL     1       2.123   8.139  17.774  0.00  0.00    +0.000 C 
BRANCH  17  18
ATOM     18  C   UNL     1       1.471   8.930  18.889  0.00  0.00    +0.000 A 
ATOM     19  C   UNL     1       0.760  10.108  18.609  0.00  0.00    +0.000 A 
ATOM     20  C   UNL     1       0.103  10.806  19.628  0.00  0.00    +0.000 A 
ATOM     21  C   UNL     1       0.163  10.328  20.942  0.00  0.00    +0.000 A 
ATOM     22  C   UNL     1       0.896   9.175  21.244  0.00  0.00    +0.000 A 
ATOM     23  C   UNL     1       1.551   8.484  20.219  0.00  0.00    +0.000 A 
BRANCH  21  24
ATOM     24  N   UNL     1      -0.566  11.029  22.007  0.00  0.00    +0.000 N 
ATOM     25  O   UNL     1      -1.443  11.837  21.669  0.00  0.00    +0.000 OA
ATOM     26  O   UNL     1      -0.272  10.761  23.180  0.00  0.00    +0.000 OA
ENDBRANCH  21  24
ENDBRANCH  17  18
ENDBRANCH   8  17
TORSDOF 3
ENDMDL
MODEL 3
REMARK VINA RESULT:      -8.0      1.082      1.593
REMARK  Name = 
REMARK  3 active torsions:
REMARK  status: ('A' for Active; 'I' for Inactive)
REMARK    1  A    between atoms: C_8  and  C_9
REMARK    2  A    between atoms: C_9  and  C_10
REMARK    3  A    between atoms: C_13  and  N_14
REMARK                            x       y       z     vdW  Elec       q    Type
REMARK                         _______ _______ _______ _____ _____    ______ ____
ROOT
ATOM      1  N   UNL     1       5.202   1.373  20.076  0.00  0.00    +0.000 N 
ATOM      2  C   UNL     1       4.434   2.492  19.829  0.00  0.00    +0.000 A 
ATOM      3  N   UNL     1       3.139   2.423  20.127  0.00  0.00    +0.000 NA
ATOM      4  C   UNL     1       2.403   3.496  19.832  0.00  0.00    +0.000 A 
ATOM      5  N   UNL     1       1.049   3.402  20.177  0.00  0.00    +0.000 N 
ATOM      6  C   UNL     1       2.939   4.648  19.261  0.00  0.00    +0.000 A 
ATOM      7  C   UNL     1       2.204   5.801  18.898  0.00  0.00    +0.000 A 
ATOM      8  C   UNL     1       2.854   6.895  18.335  0.00  0.00    +0.000 A 
ATOM      9  C   UNL     1       4.225   6.784  18.192  0.00  0.00    +0.000 A 
ATOM     10  N   UNL     1       4.942   5.688  18.536  0.00  0.00    +0.000 NA
ATOM     11  C   UNL     1       4.316   4.624  19.047  0.00  0.00    +0.000 A 
ATOM     12  N   UNL     1       5.050   3.559  19.331  0.00  0.00    +0.000 NA
ATOM     13  H   UNL     1       4.782   0.805  20.797  0.00  0.00    +0.000 HD
ATOM     14  H   UNL     1       6.172   1.636  20.190  0.00  0.00    +0.000 HD
ATOM     15  H   UNL     1       0.898   2.464  20.542  0.00  0.00    +0.000 HD
ATOM     16  H   UNL     1       0.444   3.591  19.386  0.00  0.00    +0.000 HD
ENDROOT
BRANCH   8  17
ATOM     17  C   UNL     1       2.109   8.124  17.898  0.00  0.00    +0.000 C 
BRANCH  17  18
ATOM     18  C   UNL     1       1.489   8.916  19.031  0.00  0.00    +0.000 A 
ATOM     19  C   UNL     1       1.526   8.429  20.347  0.00  0.00    +0.000 A 
ATOM     20  C   UNL     1       1.010   9.188  21.403  0.00  0.00    +0.000 A 
ATOM     21  C   UNL     1       0.444  10.441  21.142  0.00  0.00    +0.000 A 
ATOM     22  C   UNL     1       0.368  10.925  19.832  0.00  0.00    +0.000 A 
ATOM     23  C   UNL     1       0.885  10.159  18.781  0.00  0.00    +0.000 A 
BRANCH  21  24
ATOM     24  N   UNL     1      -0.053  11.263  22.253  0.00  0.00    +0.000 N 
ATOM     25  O   UNL     1      -0.352  10.685  23.309  0.00  0.00    +0.000 OA
ATOM     26  O   UNL     1      -0.132  12.486  22.075  0.00  0.00    +0.000 OA
ENDBRANCH  21  24
ENDBRANCH  17  18
ENDBRANCH   8  17
TORSDOF 3
ENDMDL
MODEL 4
REMARK VINA RESULT:      -8.0      5.483      7.671
REMARK  Name = 
REMARK  3 active torsions:
REMARK  status: ('A' for Active; 'I' for Inactive)
REMARK    1  A    between atoms: C_8  and  C_9
REMARK    2  A    between atoms: C_9  and  C_10
REMARK    3  A    between atoms: C_13  and  N_14
REMARK                            x       y       z     vdW  Elec       q    Type
REMARK                         _______ _______ _______ _____ _____    ______ ____
ROOT
ATOM      1  N   UNL     1       1.087   2.526  22.358  0.00  0.00    +0.000 N 
ATOM      2  C   UNL     1       2.016   2.958  21.436  0.00  0.00    +0.000 A 
ATOM      3  N   UNL     1       3.001   2.121  21.120  0.00  0.00    +0.000 NA
ATOM      4  C   UNL     1       3.919   2.576  20.266  0.00  0.00    +0.000 A 
ATOM      5  N   UNL     1       4.930   1.665  19.937  0.00  0.00    +0.000 N 
ATOM      6  C   UNL     1       3.864   3.850  19.705  0.00  0.00    +0.000 A 
ATOM      7  C   UNL     1       4.824   4.398  18.820  0.00  0.00    +0.000 A 
ATOM      8  C   UNL     1       4.658   5.685  18.321  0.00  0.00    +0.000 A 
ATOM      9  C   UNL     1       3.511   6.351  18.715  0.00  0.00    +0.000 A 
ATOM     10  N   UNL     1       2.584   5.840  19.559  0.00  0.00    +0.000 NA
ATOM     11  C   UNL     1       2.757   4.615  20.065  0.00  0.00    +0.000 A 
ATOM     12  N   UNL     1       1.847   4.170  20.918  0.00  0.00    +0.000 NA
ATOM     13  H   UNL     1       1.045   1.517  22.375  0.00  0.00    +0.000 HD
ATOM     14  H   UNL     1       0.219   3.031  22.239  0.00  0.00    +0.000 HD
ATOM     15  H   UNL     1       4.772   0.829  20.496  0.00  0.00    +0.000 HD
ATOM     16  H   UNL     1       5.854   2.049  20.103  0.00  0.00    +0.000 HD
ENDROOT
BRANCH   8  17
ATOM     17  C   UNL     1       5.670   6.322  17.412  0.00  0.00    +0.000 C 
BRANCH  17  18
ATOM     18  C   UNL     1       5.917   5.567  16.123  0.00  0.00    +0.000 A 
ATOM     19  C   UNL     1       4.848   4.998  15.412  0.00  0.00    +0.000 A 
ATOM     20  C   UNL     1       5.066   4.354  14.189  0.00  0.00    +0.000 A 
ATOM     21  C   UNL     1       6.364   4.270  13.674  0.00  0.00    +0.000 A 
ATOM     22  C   UNL     1       7.445   4.802  14.387  0.00  0.00    +0.000 A 
ATOM     23  C   UNL     1       7.219   5.442  15.610  0.00  0.00    +0.000 A 
BRANCH  21  24
ATOM     24  N   UNL     1       6.591   3.640  12.367  0.00  0.00    +0.000 N 
ATOM     25  O   UNL     1       5.937   2.622  12.096  0.00  0.00    +0.000 OA
ATOM     26  O   UNL     1       7.412   4.171  11.606  0.00  0.00    +0.000 OA
ENDBRANCH  21  24
ENDBRANCH  17  18
ENDBRANCH   8  17
TORSDOF 3
ENDMDL
MODEL 5
REMARK VINA RESULT:      -8.0      3.528      7.651
REMARK  Name = 
REMARK  3 active torsions:
REMARK  status: ('A' for Active; 'I' for Inactive)
REMARK    1  A    between atoms: C_8  and  C_9
REMARK    2  A    between atoms: C_9  and  C_10
REMARK    3  A    between atoms: C_13  and  N_14
REMARK                            x       y       z     vdW  Elec       q    Type
REMARK                         _______ _______ _______ _____ _____    ______ ____
ROOT
ATOM      1  N   UNL     1      -1.523  11.498  22.817  0.00  0.00    +0.000 N 
ATOM      2  C   UNL     1      -0.786  11.009  21.759  0.00  0.00    +0.000 A 
ATOM      3  N   UNL     1      -0.841  11.681  20.612  0.00  0.00    +0.000 NA
ATOM      4  C   UNL     1      -0.164  11.164  19.585  0.00  0.00    +0.000 A 
ATOM      5  N   UNL     1      -0.223  11.904  18.399  0.00  0.00    +0.000 N 
ATOM      6  C   UNL     1       0.585   9.993  19.687  0.00  0.00    +0.000 A 
ATOM      7  C   UNL     1       1.296   9.382  18.627  0.00  0.00    +0.000 A 
ATOM      8  C   UNL     1       2.013   8.211  18.852  0.00  0.00    +0.000 A 
ATOM      9  C   UNL     1       2.003   7.728  20.148  0.00  0.00    +0.000 A 
ATOM     10  N   UNL     1       1.330   8.303  21.172  0.00  0.00    +0.000 NA
ATOM     11  C   UNL     1       0.614   9.409  20.951  0.00  0.00    +0.000 A 
ATOM     12  N   UNL     1      -0.063   9.915  21.971  0.00  0.00    +0.000 NA
ATOM     13  H   UNL     1      -1.685  12.489  22.709  0.00  0.00    +0.000 HD
ATOM     14  H   UNL     1      -1.130  11.178  23.691  0.00  0.00    +0.000 HD
ATOM     15  H   UNL     1      -0.852  12.687  18.566  0.00  0.00    +0.000 HD
ATOM     16  H   UNL     1      -0.538  11.341  17.617  0.00  0.00    +0.000 HD
ENDROOT
BRANCH   8  17
ATOM     17  C   UNL     1       2.749   7.505  17.749  0.00  0.00    +0.000 C 
BRANCH  17  18
ATOM     18  C   UNL     1       3.128   6.073  18.066  0.00  0.00    +0.000 A 
ATOM     19  C   UNL     1       4.442   5.747  18.438  0.00  0.00    +0.000 A 
ATOM     20  C   UNL     1       4.779   4.436  18.792  0.00  0.00    +0.000 A 
ATOM     21  C   UNL     1       3.797   3.439  18.767  0.00  0.00    +0.000 A 
ATOM     22  C   UNL     1       2.492   3.741  18.365  0.00  0.00    +0.000 A 
ATOM     23  C   UNL     1       2.163   5.054  18.011  0.00  0.00    +0.000 A 
BRANCH  21  24
ATOM     24  N   UNL     1       4.134   2.072  19.186  0.00  0.00    +0.000 N 
ATOM     25  O   UNL     1       4.819   1.936  20.211  0.00  0.00    +0.000 OA
ATOM     26  O   UNL     1       3.703   1.136  18.500  0.00  0.00    +0.000 OA
ENDBRANCH  21  24
ENDBRANCH  17  18
ENDBRANCH   8  17
TORSDOF 3
ENDMDL
MODEL 6
REMARK VINA RESULT:      -7.9      0.692      1.241
REMARK  Name = 
REMARK  3 active torsions:
REMARK  status: ('A' for Active; 'I' for Inactive)
REMARK    1  A    between atoms: C_8  and  C_9
REMARK    2  A    between atoms: C_9  and  C_10
REMARK    3  A    between atoms: C_13  and  N_14
REMARK                            x       y       z     vdW  Elec       q    Type
REMARK                         _______ _______ _______ _____ _____    ______ ____
ROOT
ATOM      1  N   UNL     1       4.436   0.677  18.934  0.00  0.00    +0.000 N 
ATOM      2  C   UNL     1       3.801   1.895  18.820  0.00  0.00    +0.000 A 
ATOM      3  N   UNL     1       2.470   1.893  18.815  0.00  0.00    +0.000 NA
ATOM      4  C   UNL     1       1.873   3.075  18.650  0.00  0.00    +0.000 A 
ATOM      5  N   UNL     1       0.474   3.044  18.670  0.00  0.00    +0.000 N 
ATOM      6  C   UNL     1       2.582   4.267  18.510  0.00  0.00    +0.000 A 
ATOM      7  C   UNL     1       2.006   5.543  18.302  0.00  0.00    +0.000 A 
ATOM      8  C   UNL     1       2.820   6.664  18.180  0.00  0.00    +0.000 A 
ATOM      9  C   UNL     1       4.181   6.448  18.303  0.00  0.00    +0.000 A 
ATOM     10  N   UNL     1       4.746   5.235  18.504  0.00  0.00    +0.000 NA
ATOM     11  C   UNL     1       3.968   4.152  18.590  0.00  0.00    +0.000 A 
ATOM     12  N   UNL     1       4.565   2.979  18.745  0.00  0.00    +0.000 NA
ATOM     13  H   UNL     1       3.835   0.003  19.386  0.00  0.00    +0.000 HD
ATOM     14  H   UNL     1       5.366   0.804  19.310  0.00  0.00    +0.000 HD
ATOM     15  H   UNL     1       0.198   2.068  18.748  0.00  0.00    +0.000 HD
ATOM     16  H   UNL     1       0.075   3.474  17.843  0.00  0.00    +0.000 HD
ENDROOT
BRANCH   8  17
ATOM     17  C   UNL     1       2.256   8.031  17.918  0.00  0.00    +0.000 C 
BRANCH  17  18
ATOM     18  C   UNL     1       1.549   8.654  19.105  0.00  0.00    +0.000 A 
ATOM     19  C   UNL     1       1.672   8.093  20.386  0.00  0.00    +0.000 A 
ATOM     20  C   UNL     1       1.073   8.702  21.493  0.00  0.00    +0.000 A 
ATOM     21  C   UNL     1       0.336   9.879  21.319  0.00  0.00    +0.000 A 
ATOM     22  C   UNL     1       0.175  10.432  20.045  0.00  0.00    +0.000 A 
ATOM     23  C   UNL     1       0.776   9.816  18.942  0.00  0.00    +0.000 A 
BRANCH  21  24
ATOM     24  N   UNL     1      -0.253  10.550  22.486  0.00  0.00    +0.000 N 
ATOM     25  O   UNL     1      -0.117  11.779  22.573  0.00  0.00    +0.000 OA
ATOM     26  O   UNL     1      -0.862   9.850  23.306  0.00  0.00    +0.000 OA
ENDBRANCH  21  24
ENDBRANCH  17  18
ENDBRANCH   8  17
TORSDOF 3
ENDMDL
MODEL 7
REMARK VINA RESULT:      -7.9      5.586      7.790
REMARK  Name = 
REMARK  3 active torsions:
REMARK  status: ('A' for Active; 'I' for Inactive)
REMARK    1  A    between atoms: C_8  and  C_9
REMARK    2  A    between atoms: C_9  and  C_10
REMARK    3  A    between atoms: C_13  and  N_14
REMARK                            x       y       z     vdW  Elec       q    Type
REMARK                         _______ _______ _______ _____ _____    ______ ____
ROOT
ATOM      1  N   UNL     1       1.100   2.531  22.270  0.00  0.00    +0.000 N 
ATOM      2  C   UNL     1       2.084   2.923  21.387  0.00  0.00    +0.000 A 
ATOM      3  N   UNL     1       3.132   2.117  21.241  0.00  0.00    +0.000 NA
ATOM      4  C   UNL     1       4.099   2.538  20.424  0.00  0.00    +0.000 A 
ATOM      5  N   UNL     1       5.178   1.659  20.274  0.00  0.00    +0.000 N 
ATOM      6  C   UNL     1       4.030   3.745  19.732  0.00  0.00    +0.000 A 
ATOM      7  C   UNL     1       5.036   4.258  18.878  0.00  0.00    +0.000 A 
ATOM      8  C   UNL     1       4.851   5.479  18.236  0.00  0.00    +0.000 A 
ATOM      9  C   UNL     1       3.643   6.112  18.465  0.00  0.00    +0.000 A 
ATOM     10  N   UNL     1       2.672   5.634  19.277  0.00  0.00    +0.000 NA
ATOM     11  C   UNL     1       2.860   4.477  19.919  0.00  0.00    +0.000 A 
ATOM     12  N   UNL     1       1.901   4.067  20.736  0.00  0.00    +0.000 NA
ATOM     13  H   UNL     1       1.106   1.528  22.386  0.00  0.00    +0.000 HD
ATOM     14  H   UNL     1       0.222   2.971  22.028  0.00  0.00    +0.000 HD
ATOM     15  H   UNL     1       5.013   0.874  20.901  0.00  0.00    +0.000 HD
ATOM     16  H   UNL     1       6.063   2.110  20.475  0.00  0.00    +0.000 HD
ENDROOT
BRANCH   8  17
ATOM     17  C   UNL     1       5.907   6.081  17.354  0.00  0.00    +0.000 C 
BRANCH  17  18
ATOM     18  C   UNL     1       6.030   5.429  15.992  0.00  0.00    +0.000 A 
ATOM     19  C   UNL     1       7.246   5.462  15.291  0.00  0.00    +0.000 A 
ATOM     20  C   UNL     1       7.380   4.808  14.062  0.00  0.00    +0.000 A 
ATOM     21  C   UNL     1       6.287   4.120  13.522  0.00  0.00    +0.000 A 
ATOM     22  C   UNL     1       5.058   4.107  14.191  0.00  0.00    +0.000 A 
ATOM     23  C   UNL     1       4.932   4.766  15.419  0.00  0.00    +0.000 A 
BRANCH  21  24
ATOM     24  N   UNL     1       6.437   3.389  12.257  0.00  0.00    +0.000 N 
ATOM     25  O   UNL     1       7.434   3.637  11.563  0.00  0.00    +0.000 OA
ATOM     26  O   UNL     1       5.566   2.559  11.965  0.00  0.00    +0.000 OA
ENDBRANCH  21  24
ENDBRANCH  17  18
ENDBRANCH   8  17
TORSDOF 3
ENDMDL
MODEL 8
REMARK VINA RESULT:      -7.8      2.666      4.099
REMARK  Name = 
REMARK  3 active torsions:
REMARK  status: ('A' for Active; 'I' for Inactive)
REMARK    1  A    between atoms: C_8  and  C_9
REMARK    2  A    between atoms: C_9  and  C_10
REMARK    3  A    between atoms: C_13  and  N_14
REMARK                            x       y       z     vdW  Elec       q    Type
REMARK                         _______ _______ _______ _____ _____    ______ ____
ROOT
ATOM      1  N   UNL     1       7.022   3.777  13.635  0.00  0.00    +0.000 N 
ATOM      2  C   UNL     1       6.461   4.403  14.728  0.00  0.00    +0.000 A 
ATOM      3  N   UNL     1       7.118   5.439  15.244  0.00  0.00    +0.000 NA
ATOM      4  C   UNL     1       6.587   5.998  16.334  0.00  0.00    +0.000 A 
ATOM      5  N   UNL     1       7.288   7.098  16.841  0.00  0.00    +0.000 N 
ATOM      6  C   UNL     1       5.398   5.553  16.909  0.00  0.00    +0.000 A 
ATOM      7  C   UNL     1       4.805   6.084  18.078  0.00  0.00    +0.000 A 
ATOM      8  C   UNL     1       3.610   5.556  18.557  0.00  0.00    +0.000 A 
ATOM      9  C   UNL     1       3.053   4.532  17.812  0.00  0.00    +0.000 A 
ATOM     10  N   UNL     1       3.607   4.015  16.691  0.00  0.00    +0.000 NA
ATOM     11  C   UNL     1       4.771   4.499  16.247  0.00  0.00    +0.000 A 
ATOM     12  N   UNL     1       5.298   3.936  15.171  0.00  0.00    +0.000 NA
ATOM     13  H   UNL     1       7.631   4.410  13.137  0.00  0.00    +0.000 HD
ATOM     14  H   UNL     1       6.307   3.298  13.105  0.00  0.00    +0.000 HD
ATOM     15  H   UNL     1       8.129   7.202  16.276  0.00  0.00    +0.000 HD
ATOM     16  H   UNL     1       7.517   6.981  17.821  0.00  0.00    +0.000 HD
ENDROOT
BRANCH   8  17
ATOM     17  C   UNL     1       2.966   6.061  19.816  0.00  0.00    +0.000 C 
BRANCH  17  18
ATOM     18  C   UNL     1       2.232   7.377  19.659  0.00  0.00    +0.000 A 
ATOM     19  C   UNL     1       2.232   8.054  18.429  0.00  0.00    +0.000 A 
ATOM     20  C   UNL     1       1.504   9.236  18.264  0.00  0.00    +0.000 A 
ATOM     21  C   UNL     1       0.775   9.755  19.341  0.00  0.00    +0.000 A 
ATOM     22  C   UNL     1       0.793   9.112  20.583  0.00  0.00    +0.000 A 
ATOM     23  C   UNL     1       1.525   7.930  20.740  0.00  0.00    +0.000 A 
BRANCH  21  24
ATOM     24  N   UNL     1      -0.032  10.969  19.159  0.00  0.00    +0.000 N 
ATOM     25  O   UNL     1      -0.773  11.025  18.166  0.00  0.00    +0.000 OA
ATOM     26  O   UNL     1       0.065  11.858  20.014  0.00  0.00    +0.000 OA
ENDBRANCH  21  24
ENDBRANCH  17  18
ENDBRANCH   8  17
TORSDOF 3
ENDMDL
MODEL 9
REMARK VINA RESULT:      -7.8      2.647      4.155
REMARK  Name = 
REMARK  3 active torsions:
REMARK  status: ('A' for Active; 'I' for Inactive)
REMARK    1  A    between atoms: C_8  and  C_9
REMARK    2  A    between atoms: C_9  and  C_10
REMARK    3  A    between atoms: C_13  and  N_14
REMARK                            x       y       z     vdW  Elec       q    Type
REMARK                         _______ _______ _______ _____ _____    ______ ____
ROOT
ATOM      1  N   UNL     1       6.925   3.744  13.569  0.00  0.00    +0.000 N 
ATOM      2  C   UNL     1       6.406   4.369  14.683  0.00  0.00    +0.000 A 
ATOM      3  N   UNL     1       7.105   5.375  15.203  0.00  0.00    +0.000 NA
ATOM      4  C   UNL     1       6.613   5.932  16.311  0.00  0.00    +0.000 A 
ATOM      5  N   UNL     1       7.359   7.001  16.822  0.00  0.00    +0.000 N 
ATOM      6  C   UNL     1       5.423   5.515  16.903  0.00  0.00    +0.000 A 
ATOM      7  C   UNL     1       4.870   6.046  18.092  0.00  0.00    +0.000 A 
ATOM      8  C   UNL     1       3.668   5.548  18.586  0.00  0.00    +0.000 A 
ATOM      9  C   UNL     1       3.064   4.555  17.836  0.00  0.00    +0.000 A 
ATOM     10  N   UNL     1       3.580   4.039  16.696  0.00  0.00    +0.000 NA
ATOM     11  C   UNL     1       4.749   4.494  16.237  0.00  0.00    +0.000 A 
ATOM     12  N   UNL     1       5.237   3.932  15.141  0.00  0.00    +0.000 NA
ATOM     13  H   UNL     1       7.544   4.366  13.069  0.00  0.00    +0.000 HD
ATOM     14  H   UNL     1       6.185   3.297  13.046  0.00  0.00    +0.000 HD
ATOM     15  H   UNL     1       8.191   7.088  16.242  0.00  0.00    +0.000 HD
ATOM     16  H   UNL     1       7.603   6.861  17.796  0.00  0.00    +0.000 HD
ENDROOT
BRANCH   8  17
ATOM     17  C   UNL     1       3.065   6.052  19.866  0.00  0.00    +0.000 C 
BRANCH  17  18
ATOM     18  C   UNL     1       2.242   7.315  19.715  0.00  0.00    +0.000 A 
ATOM     19  C   UNL     1       1.502   7.820  20.797  0.00  0.00    +0.000 A 
ATOM     20  C   UNL     1       0.792   9.019  20.679  0.00  0.00    +0.000 A 
ATOM     21  C   UNL     1       0.814   9.718  19.466  0.00  0.00    +0.000 A 
ATOM     22  C   UNL     1       1.518   9.211  18.369  0.00  0.00    +0.000 A 
ATOM     23  C   UNL     1       2.224   8.010  18.494  0.00  0.00    +0.000 A 
BRANCH  21  24
ATOM     24  N   UNL     1       0.112  11.004  19.353  0.00  0.00    +0.000 N 
ATOM     25  O   UNL     1       0.719  12.025  19.706  0.00  0.00    +0.000 OA
ATOM     26  O   UNL     1      -1.040  10.993  18.898  0.00  0.00    +0.000 OA
ENDBRANCH  21  24
ENDBRANCH  17  18
ENDBRANCH   8  17
TORSDOF 3
ENDMDL
