MODEL 1
REMARK VINA RESULT:      -7.3      0.000      0.000
REMARK  Name = 
REMARK  10 active torsions:
REMARK  status: ('A' for Active; 'I' for Inactive)
REMARK    1  A    between atoms: C_1  and  C_2
REMARK    2  A    between atoms: C_2  and  C_3
REMARK    3  A    between atoms: C_3  and  C_4
REMARK    4  A    between atoms: C_4  and  O_5
REMARK    5  A    between atoms: O_5  and  C_6
REMARK    6  A    between atoms: C_9  and  C_10
REMARK    7  A    between atoms: C_10  and  N_11
REMARK    8  A    between atoms: C_21  and  C_22
REMARK    9  A    between atoms: C_25  and  O_26
REMARK   10  A    between atoms: O_26  and  C_27
REMARK                            x       y       z     vdW  Elec       q    Type
REMARK                         _______ _______ _______ _____ _____    ______ ____
ROOT
ATOM      1  C   UNL     1       2.433   6.017  20.052  0.00  0.00    +0.000 C 
ENDROOT
BRANCH   1   2
ATOM      2  N   UNL     1       3.105   5.170  19.071  0.00  0.00    +0.000 N 
ATOM      3  C   UNL     1       2.410   3.940  18.958  0.00  0.00    +0.000 C 
ATOM      4  O   UNL     1       1.309   3.617  19.373  0.00  0.00    +0.000 OA
ATOM      5  C   UNL     1       3.229   3.058  18.057  0.00  0.00    +0.000 C 
ATOM      6  O   UNL     1       3.125   1.867  17.955  0.00  0.00    +0.000 OA
ATOM      7  C   UNL     1       4.104   3.941  17.356  0.00  0.00    +0.000 A 
ATOM      8  C   UNL     1       4.781   3.501  16.222  0.00  0.00    +0.000 A 
ATOM      9  C   UNL     1       5.378   4.468  15.471  0.00  0.00    +0.000 A 
ATOM     10 BR   UNL     1       6.223   3.997  13.848  0.00  0.00    +0.000 Br
ATOM     11  C   UNL     1       5.283   5.802  15.885  0.00  0.00    +0.000 A 
ATOM     12  C   UNL     1       4.582   6.231  17.086  0.00  0.00    +0.000 A 
ATOM     13  C   UNL     1       4.587   7.718  17.257  0.00  0.00    +0.000 C 
ATOM     14  C   UNL     1       3.966   5.259  17.882  0.00  0.00    +0.000 A 
ENDBRANCH   1   2
BRANCH   1  18
ATOM     15  C   UNL     1       0.959  10.187  19.929  0.00  0.00    +0.000 A 
ATOM     16  C   UNL     1       1.359   9.521  18.758  0.00  0.00    +0.000 A 
ATOM     17  C   UNL     1       1.721   8.141  18.749  0.00  0.00    +0.000 A 
ATOM     18  C   UNL     1       1.709   7.360  19.921  0.00  0.00    +0.000 A 
ATOM     19  C   UNL     1       1.406   8.069  21.096  0.00  0.00    +0.000 A 
ATOM     20  C   UNL     1       1.035   9.447  21.121  0.00  0.00    +0.000 A 
BRANCH  20  21
ATOM     21  O   UNL     1       0.861   9.883  22.410  0.00  0.00    +0.000 OA
ATOM     22  C   UNL     1      -0.417   9.743  23.004  0.00  0.00    +0.000 C 
ENDBRANCH  20  21
BRANCH  15  23
ATOM     23  O   UNL     1       0.609  11.532  19.938  0.00  0.00    +0.000 OA
BRANCH  23  24
ATOM     24  C   UNL     1      -0.791  11.809  19.722  0.00  0.00    +0.000 C 
BRANCH  24  25
ATOM     25  C   UNL     1      -1.140  12.331  18.306  0.00  0.00    +0.000 C 
BRANCH  25  27
ATOM     26  C   UNL     1      -1.940  10.082  17.398  0.00  0.00    +0.000 C 
ATOM     27  C   UNL     1      -2.270  11.563  17.604  0.00  0.00    +0.000 C 
ENDBRANCH  25  27
ENDBRANCH  24  25
ENDBRANCH  23  24
ENDBRANCH  15  23
ENDBRANCH   1  18
TORSDOF 7
ENDMDL
MODEL 2
REMARK VINA RESULT:      -7.1      3.871      7.927
REMARK  Name = 
REMARK  10 active torsions:
REMARK  status: ('A' for Active; 'I' for Inactive)
REMARK    1  A    between atoms: C_1  and  C_2
REMARK    2  A    between atoms: C_2  and  C_3
REMARK    3  A    between atoms: C_3  and  C_4
REMARK    4  A    between atoms: C_4  and  O_5
REMARK    5  A    between atoms: O_5  and  C_6
REMARK    6  A    between atoms: C_9  and  C_10
REMARK    7  A    between atoms: C_10  and  N_11
REMARK    8  A    between atoms: C_21  and  C_22
REMARK    9  A    between atoms: C_25  and  O_26
REMARK   10  A    between atoms: O_26  and  C_27
REMARK                            x       y       z     vdW  Elec       q    Type
REMARK                         _______ _______ _______ _____ _____    ______ ____
ROOT
ATOM      1  C   UNL     1       4.166   3.614  17.903  0.00  0.00    +0.000 C 
ENDROOT
BRANCH   1   2
ATOM      2  N   UNL     1       3.284   4.243  18.881  0.00  0.00    +0.000 N 
ATOM      3  C   UNL     1       3.313   3.499  20.086  0.00  0.00    +0.000 C 
ATOM      4  O   UNL     1       4.070   2.613  20.447  0.00  0.00    +0.000 OA
ATOM      5  C   UNL     1       2.276   4.100  20.994  0.00  0.00    +0.000 C 
ATOM      6  O   UNL     1       1.807   3.580  21.968  0.00  0.00    +0.000 OA
ATOM      7  C   UNL     1       2.015   5.399  20.462  0.00  0.00    +0.000 A 
ATOM      8  C   UNL     1       1.340   6.346  21.228  0.00  0.00    +0.000 A 
ATOM      9  C   UNL     1       1.367   7.624  20.756  0.00  0.00    +0.000 A 
ATOM     10 BR   UNL     1       0.585   9.009  21.775  0.00  0.00    +0.000 Br
ATOM     11  C   UNL     1       2.043   7.889  19.559  0.00  0.00    +0.000 A 
ATOM     12  C   UNL     1       2.726   6.874  18.770  0.00  0.00    +0.000 A 
ATOM     13  C   UNL     1       3.416   7.444  17.570  0.00  0.00    +0.000 C 
ATOM     14  C   UNL     1       2.708   5.551  19.227  0.00  0.00    +0.000 A 
ENDBRANCH   1   2
BRANCH   1  18
ATOM     15  C   UNL     1       6.979   4.934  14.752  0.00  0.00    +0.000 A 
ATOM     16  C   UNL     1       6.099   3.859  14.540  0.00  0.00    +0.000 A 
ATOM     17  C   UNL     1       5.099   3.490  15.488  0.00  0.00    +0.000 A 
ATOM     18  C   UNL     1       4.938   4.178  16.706  0.00  0.00    +0.000 A 
ATOM     19  C   UNL     1       5.893   5.182  16.945  0.00  0.00    +0.000 A 
ATOM     20  C   UNL     1       6.894   5.567  16.003  0.00  0.00    +0.000 A 
BRANCH  20  21
ATOM     21  O   UNL     1       7.721   6.524  16.534  0.00  0.00    +0.000 OA
ATOM     22  C   UNL     1       7.341   7.148  17.749  0.00  0.00    +0.000 C 
ENDBRANCH  20  21
BRANCH  15  23
ATOM     23  O   UNL     1       7.955   5.292  13.829  0.00  0.00    +0.000 OA
BRANCH  23  24
ATOM     24  C   UNL     1       7.534   5.284  12.449  0.00  0.00    +0.000 C 
BRANCH  24  25
ATOM     25  C   UNL     1       7.431   3.877  11.808  0.00  0.00    +0.000 C 
BRANCH  25  27
ATOM     26  C   UNL     1       5.872   1.888  11.437  0.00  0.00    +0.000 C 
ATOM     27  C   UNL     1       5.995   3.412  11.523  0.00  0.00    +0.000 C 
ENDBRANCH  25  27
ENDBRANCH  24  25
ENDBRANCH  23  24
ENDBRANCH  15  23
ENDBRANCH   1  18
TORSDOF 7
ENDMDL
MODEL 3
REMARK VINA RESULT:      -7.0      4.406      8.831
REMARK  Name = 
REMARK  10 active torsions:
REMARK  status: ('A' for Active; 'I' for Inactive)
REMARK    1  A    between atoms: C_1  and  C_2
REMARK    2  A    between atoms: C_2  and  C_3
REMARK    3  A    between atoms: C_3  and  C_4
REMARK    4  A    between atoms: C_4  and  O_5
REMARK    5  A    between atoms: O_5  and  C_6
REMARK    6  A    between atoms: C_9  and  C_10
REMARK    7  A    between atoms: C_10  and  N_11
REMARK    8  A    between atoms: C_21  and  C_22
REMARK    9  A    between atoms: C_25  and  O_26
REMARK   10  A    between atoms: O_26  and  C_27
REMARK                            x       y       z     vdW  Elec       q    Type
REMARK                         _______ _______ _______ _____ _____    ______ ____
ROOT
ATOM      1  C   UNL     1       0.010  11.519  18.405  0.00  0.00    +0.000 C 
ENDROOT
BRANCH   1   2
ATOM      2  N   UNL     1      -1.378  11.824  18.740  0.00  0.00    +0.000 N 
ATOM      3  C   UNL     1      -2.238  11.138  17.846  0.00  0.00    +0.000 C 
ATOM      4  O   UNL     1      -1.996  10.245  17.051  0.00  0.00    +0.000 OA
ATOM      5  C   UNL     1      -3.635  11.610  18.139  0.00  0.00    +0.000 C 
ATOM      6  O   UNL     1      -4.585  11.484  17.417  0.00  0.00    +0.000 OA
ATOM      7  C   UNL     1      -3.574  12.192  19.441  0.00  0.00    +0.000 A 
ATOM      8  C   UNL     1      -4.744  12.447  20.149  0.00  0.00    +0.000 A 
ATOM      9  C   UNL     1      -4.590  12.750  21.468  0.00  0.00    +0.000 A 
ATOM     10 BR   UNL     1      -6.117  12.999  22.551  0.00  0.00    +0.000 Br
ATOM     11  C   UNL     1      -3.298  12.793  22.005  0.00  0.00    +0.000 A 
ATOM     12  C   UNL     1      -2.089  12.537  21.236  0.00  0.00    +0.000 A 
ATOM     13  C   UNL     1      -0.849  12.591  22.073  0.00  0.00    +0.000 C 
ATOM     14  C   UNL     1      -2.217  12.232  19.876  0.00  0.00    +0.000 A 
ENDBRANCH   1   2
BRANCH   1  18
ATOM     15  C   UNL     1       2.050   7.764  19.552  0.00  0.00    +0.000 A 
ATOM     16  C   UNL     1       2.108   8.252  18.236  0.00  0.00    +0.000 A 
ATOM     17  C   UNL     1       1.566   9.518  17.865  0.00  0.00    +0.000 A 
ATOM     18  C   UNL     1       0.928  10.357  18.798  0.00  0.00    +0.000 A 
ATOM     19  C   UNL     1       0.788   9.806  20.085  0.00  0.00    +0.000 A 
ATOM     20  C   UNL     1       1.331   8.545  20.472  0.00  0.00    +0.000 A 
BRANCH  20  21
ATOM     21  O   UNL     1       0.983   8.240  21.764  0.00  0.00    +0.000 OA
ATOM     22  C   UNL     1       0.442   9.265  22.578  0.00  0.00    +0.000 C 
ENDBRANCH  20  21
BRANCH  15  23
ATOM     23  O   UNL     1       2.576   6.528  19.913  0.00  0.00    +0.000 OA
BRANCH  23  24
ATOM     24  C   UNL     1       2.576   5.528  18.872  0.00  0.00    +0.000 C 
BRANCH  24  25
ATOM     25  C   UNL     1       1.582   4.360  19.092  0.00  0.00    +0.000 C 
BRANCH  25  27
ATOM     26  C   UNL     1       1.508   2.957  21.225  0.00  0.00    +0.000 C 
ATOM     27  C   UNL     1       1.049   4.240  20.528  0.00  0.00    +0.000 C 
ENDBRANCH  25  27
ENDBRANCH  24  25
ENDBRANCH  23  24
ENDBRANCH  15  23
ENDBRANCH   1  18
TORSDOF 7
ENDMDL
MODEL 4
REMARK VINA RESULT:      -7.0      4.264      8.779
REMARK  Name = 
REMARK  10 active torsions:
REMARK  status: ('A' for Active; 'I' for Inactive)
REMARK    1  A    between atoms: C_1  and  C_2
REMARK    2  A    between atoms: C_2  and  C_3
REMARK    3  A    between atoms: C_3  and  C_4
REMARK    4  A    between atoms: C_4  and  O_5
REMARK    5  A    between atoms: O_5  and  C_6
REMARK    6  A    between atoms: C_9  and  C_10
REMARK    7  A    between atoms: C_10  and  N_11
REMARK    8  A    between atoms: C_21  and  C_22
REMARK    9  A    between atoms: C_25  and  O_26
REMARK   10  A    between atoms: O_26  and  C_27
REMARK                            x       y       z     vdW  Elec       q    Type
REMARK                         _______ _______ _______ _____ _____    ______ ____
ROOT
ATOM      1  C   UNL     1       0.097  11.183  18.300  0.00  0.00    +0.000 C 
ENDROOT
BRANCH   1   2
ATOM      2  N   UNL     1      -1.261  11.501  18.733  0.00  0.00    +0.000 N 
ATOM      3  C   UNL     1      -1.208  12.426  19.805  0.00  0.00    +0.000 C 
ATOM      4  O   UNL     1      -0.275  13.090  20.226  0.00  0.00    +0.000 OA
ATOM      5  C   UNL     1      -2.615  12.594  20.306  0.00  0.00    +0.000 C 
ATOM      6  O   UNL     1      -2.934  13.058  21.365  0.00  0.00    +0.000 OA
ATOM      7  C   UNL     1      -3.452  12.118  19.252  0.00  0.00    +0.000 A 
ATOM      8  C   UNL     1      -4.812  12.413  19.250  0.00  0.00    +0.000 A 
ATOM      9  C   UNL     1      -5.478  12.153  18.090  0.00  0.00    +0.000 A 
ATOM     10 BR   UNL     1      -7.301  12.623  17.938  0.00  0.00    +0.000 Br
ATOM     11  C   UNL     1      -4.770  11.611  17.011  0.00  0.00    +0.000 A 
ATOM     12  C   UNL     1      -3.349  11.297  17.047  0.00  0.00    +0.000 A 
ATOM     13  C   UNL     1      -2.838  10.785  15.736  0.00  0.00    +0.000 C 
ATOM     14  C   UNL     1      -2.641  11.546  18.228  0.00  0.00    +0.000 A 
ENDBRANCH   1   2
BRANCH   1  18
ATOM     15  C   UNL     1       2.273   7.505  19.446  0.00  0.00    +0.000 A 
ATOM     16  C   UNL     1       2.280   7.974  18.120  0.00  0.00    +0.000 A 
ATOM     17  C   UNL     1       1.692   9.218  17.747  0.00  0.00    +0.000 A 
ATOM     18  C   UNL     1       1.057  10.054  18.685  0.00  0.00    +0.000 A 
ATOM     19  C   UNL     1       0.969   9.520  19.983  0.00  0.00    +0.000 A 
ATOM     20  C   UNL     1       1.558   8.280  20.374  0.00  0.00    +0.000 A 
BRANCH  20  21
ATOM     21  O   UNL     1       1.256   7.986  21.679  0.00  0.00    +0.000 OA
ATOM     22  C   UNL     1       0.218   8.714  22.313  0.00  0.00    +0.000 C 
ENDBRANCH  20  21
BRANCH  15  23
ATOM     23  O   UNL     1       2.843   6.290  19.809  0.00  0.00    +0.000 OA
BRANCH  23  24
ATOM     24  C   UNL     1       2.112   5.115  19.400  0.00  0.00    +0.000 C 
BRANCH  24  25
ATOM     25  C   UNL     1       1.172   4.525  20.481  0.00  0.00    +0.000 C 
BRANCH  25  27
ATOM     26  C   UNL     1       1.349   2.277  19.281  0.00  0.00    +0.000 C 
ATOM     27  C   UNL     1       1.251   2.998  20.628  0.00  0.00    +0.000 C 
ENDBRANCH  25  27
ENDBRANCH  24  25
ENDBRANCH  23  24
ENDBRANCH  15  23
ENDBRANCH   1  18
TORSDOF 7
ENDMDL
MODEL 5
REMARK VINA RESULT:      -6.9      1.254      1.696
REMARK  Name = 
REMARK  10 active torsions:
REMARK  status: ('A' for Active; 'I' for Inactive)
REMARK    1  A    between atoms: C_1  and  C_2
REMARK    2  A    between atoms: C_2  and  C_3
REMARK    3  A    between atoms: C_3  and  C_4
REMARK    4  A    between atoms: C_4  and  O_5
REMARK    5  A    between atoms: O_5  and  C_6
REMARK    6  A    between atoms: C_9  and  C_10
REMARK    7  A    between atoms: C_10  and  N_11
REMARK    8  A    between atoms: C_21  and  C_22
REMARK    9  A    between atoms: C_25  and  O_26
REMARK   10  A    between atoms: O_26  and  C_27
REMARK                            x       y       z     vdW  Elec       q    Type
REMARK                         _______ _______ _______ _____ _____    ______ ____
ROOT
ATOM      1  C   UNL     1       2.379   6.009  20.122  0.00  0.00    +0.000 C 
ENDROOT
BRANCH   1   2
ATOM      2  N   UNL     1       3.036   5.169  19.125  0.00  0.00    +0.000 N 
ATOM      3  C   UNL     1       2.306   3.965  18.970  0.00  0.00    +0.000 C 
ATOM      4  O   UNL     1       1.192   3.664  19.365  0.00  0.00    +0.000 OA
ATOM      5  C   UNL     1       3.108   3.083  18.054  0.00  0.00    +0.000 C 
ATOM      6  O   UNL     1       2.970   1.900  17.918  0.00  0.00    +0.000 OA
ATOM      7  C   UNL     1       4.018   3.958  17.387  0.00  0.00    +0.000 A 
ATOM      8  C   UNL     1       4.693   3.530  16.248  0.00  0.00    +0.000 A 
ATOM      9  C   UNL     1       5.328   4.499  15.531  0.00  0.00    +0.000 A 
ATOM     10 BR   UNL     1       6.177   4.047  13.904  0.00  0.00    +0.000 Br
ATOM     11  C   UNL     1       5.268   5.823  15.981  0.00  0.00    +0.000 A 
ATOM     12  C   UNL     1       4.567   6.239  17.186  0.00  0.00    +0.000 A 
ATOM     13  C   UNL     1       4.614   7.721  17.399  0.00  0.00    +0.000 C 
ATOM     14  C   UNL     1       3.913   5.265  17.948  0.00  0.00    +0.000 A 
ENDBRANCH   1   2
BRANCH   1  18
ATOM     15  C   UNL     1       0.960  10.200  20.101  0.00  0.00    +0.000 A 
ATOM     16  C   UNL     1       1.386   9.568  18.920  0.00  0.00    +0.000 A 
ATOM     17  C   UNL     1       1.731   8.185  18.874  0.00  0.00    +0.000 A 
ATOM     18  C   UNL     1       1.676   7.365  20.017  0.00  0.00    +0.000 A 
ATOM     19  C   UNL     1       1.348   8.038  21.207  0.00  0.00    +0.000 A 
ATOM     20  C   UNL     1       0.993   9.419  21.268  0.00  0.00    +0.000 A 
BRANCH  20  21
ATOM     21  O   UNL     1       0.787   9.813  22.566  0.00  0.00    +0.000 OA
ATOM     22  C   UNL     1      -0.537   9.816  23.070  0.00  0.00    +0.000 C 
ENDBRANCH  20  21
BRANCH  15  23
ATOM     23  O   UNL     1       0.626  11.548  20.146  0.00  0.00    +0.000 OA
BRANCH  23  24
ATOM     24  C   UNL     1       0.139  12.107  18.908  0.00  0.00    +0.000 C 
BRANCH  24  25
ATOM     25  C   UNL     1       0.917  13.349  18.404  0.00  0.00    +0.000 C 
BRANCH  25  27
ATOM     26  C   UNL     1       3.320  14.088  18.853  0.00  0.00    +0.000 C 
ATOM     27  C   UNL     1       2.407  13.098  18.126  0.00  0.00    +0.000 C 
ENDBRANCH  25  27
ENDBRANCH  24  25
ENDBRANCH  23  24
ENDBRANCH  15  23
ENDBRANCH   1  18
TORSDOF 7
ENDMDL
MODEL 6
REMARK VINA RESULT:      -6.9      3.808      8.280
REMARK  Name = 
REMARK  10 active torsions:
REMARK  status: ('A' for Active; 'I' for Inactive)
REMARK    1  A    between atoms: C_1  and  C_2
REMARK    2  A    between atoms: C_2  and  C_3
REMARK    3  A    between atoms: C_3  and  C_4
REMARK    4  A    between atoms: C_4  and  O_5
REMARK    5  A    between atoms: O_5  and  C_6
REMARK    6  A    between atoms: C_9  and  C_10
REMARK    7  A    between atoms: C_10  and  N_11
REMARK    8  A    between atoms: C_21  and  C_22
REMARK    9  A    between atoms: C_25  and  O_26
REMARK   10  A    between atoms: O_26  and  C_27
REMARK                            x       y       z     vdW  Elec       q    Type
REMARK                         _______ _______ _______ _____ _____    ______ ____
ROOT
ATOM      1  C   UNL     1       0.959   8.614  17.970  0.00  0.00    +0.000 C 
ENDROOT
BRANCH   1   2
ATOM      2  N   UNL     1       0.261   9.703  18.648  0.00  0.00    +0.000 N 
ATOM      3  C   UNL     1      -0.830  10.130  17.850  0.00  0.00    +0.000 C 
ATOM      4  O   UNL     1      -1.338   9.612  16.870  0.00  0.00    +0.000 OA
ATOM      5  C   UNL     1      -1.411  11.344  18.520  0.00  0.00    +0.000 C 
ATOM      6  O   UNL     1      -2.143  12.145  18.011  0.00  0.00    +0.000 OA
ATOM      7  C   UNL     1      -0.929  11.302  19.863  0.00  0.00    +0.000 A 
ATOM      8  C   UNL     1      -1.516  12.097  20.843  0.00  0.00    +0.000 A 
ATOM      9  C   UNL     1      -1.179  11.805  22.130  0.00  0.00    +0.000 A 
ATOM     10 BR   UNL     1      -2.007  12.743  23.545  0.00  0.00    +0.000 Br
ATOM     11  C   UNL     1      -0.281  10.759  22.373  0.00  0.00    +0.000 A 
ATOM     12  C   UNL     1       0.332   9.955  21.327  0.00  0.00    +0.000 A 
ATOM     13  C   UNL     1       1.206   8.868  21.871  0.00  0.00    +0.000 C 
ATOM     14  C   UNL     1       0.011  10.238  19.995  0.00  0.00    +0.000 A 
ENDBRANCH   1   2
BRANCH   1  18
ATOM     15  C   UNL     1       4.315   5.820  18.682  0.00  0.00    +0.000 A 
ATOM     16  C   UNL     1       4.347   6.742  17.622  0.00  0.00    +0.000 A 
ATOM     17  C   UNL     1       3.339   7.735  17.442  0.00  0.00    +0.000 A 
ATOM     18  C   UNL     1       2.239   7.847  18.314  0.00  0.00    +0.000 A 
ATOM     19  C   UNL     1       2.172   6.852  19.305  0.00  0.00    +0.000 A 
ATOM     20  C   UNL     1       3.175   5.856  19.502  0.00  0.00    +0.000 A 
BRANCH  20  21
ATOM     21  O   UNL     1       2.809   4.984  20.496  0.00  0.00    +0.000 OA
ATOM     22  C   UNL     1       1.447   4.608  20.597  0.00  0.00    +0.000 C 
ENDBRANCH  20  21
BRANCH  15  23
ATOM     23  O   UNL     1       5.296   4.850  18.855  0.00  0.00    +0.000 OA
BRANCH  23  24
ATOM     24  C   UNL     1       6.538   5.320  19.420  0.00  0.00    +0.000 C 
BRANCH  24  25
ATOM     25  C   UNL     1       7.611   5.733  18.381  0.00  0.00    +0.000 C 
BRANCH  25  27
ATOM     26  C   UNL     1       7.677   8.129  17.501  0.00  0.00    +0.000 C 
ATOM     27  C   UNL     1       8.169   7.151  18.571  0.00  0.00    +0.000 C 
ENDBRANCH  25  27
ENDBRANCH  24  25
ENDBRANCH  23  24
ENDBRANCH  15  23
ENDBRANCH   1  18
TORSDOF 7
ENDMDL
MODEL 7
REMARK VINA RESULT:      -6.9      3.796      8.732
REMARK  Name = 
REMARK  10 active torsions:
REMARK  status: ('A' for Active; 'I' for Inactive)
REMARK    1  A    between atoms: C_1  and  C_2
REMARK    2  A    between atoms: C_2  and  C_3
REMARK    3  A    between atoms: C_3  and  C_4
REMARK    4  A    between atoms: C_4  and  O_5
REMARK    5  A    between atoms: O_5  and  C_6
REMARK    6  A    between atoms: C_9  and  C_10
REMARK    7  A    between atoms: C_10  and  N_11
REMARK    8  A    between atoms: C_21  and  C_22
REMARK    9  A    between atoms: C_25  and  O_26
REMARK   10  A    between atoms: O_26  and  C_27
REMARK                            x       y       z     vdW  Elec       q    Type
REMARK                         _______ _______ _______ _____ _____    ______ ____
ROOT
ATOM      1  C   UNL     1       1.329   9.973  18.460  0.00  0.00    +0.000 C 
ENDROOT
BRANCH   1   2
ATOM      2  N   UNL     1       0.231  10.698  19.093  0.00  0.00    +0.000 N 
ATOM      3  C   UNL     1       0.753  11.791  19.829  0.00  0.00    +0.000 C 
ATOM      4  O   UNL     1       1.869  12.282  19.824  0.00  0.00    +0.000 OA
ATOM      5  C   UNL     1      -0.399  12.402  20.578  0.00  0.00    +0.000 C 
ATOM      6  O   UNL     1      -0.314  13.147  21.514  0.00  0.00    +0.000 OA
ATOM      7  C   UNL     1      -1.574  11.928  19.918  0.00  0.00    +0.000 A 
ATOM      8  C   UNL     1      -2.802  12.539  20.152  0.00  0.00    +0.000 A 
ATOM      9  C   UNL     1      -3.807  12.205  19.295  0.00  0.00    +0.000 A 
ATOM     10 BR   UNL     1      -5.484  13.062  19.448  0.00  0.00    +0.000 Br
ATOM     11  C   UNL     1      -3.546  11.287  18.271  0.00  0.00    +0.000 A 
ATOM     12  C   UNL     1      -2.254  10.651  18.061  0.00  0.00    +0.000 A 
ATOM     13  C   UNL     1      -2.239   9.759  16.858  0.00  0.00    +0.000 C 
ATOM     14  C   UNL     1      -1.205  10.968  18.931  0.00  0.00    +0.000 A 
ENDBRANCH   1   2
BRANCH   1  18
ATOM     15  C   UNL     1       3.366   6.086  19.024  0.00  0.00    +0.000 A 
ATOM     16  C   UNL     1       2.479   6.591  19.991  0.00  0.00    +0.000 A 
ATOM     17  C   UNL     1       1.716   7.778  19.782  0.00  0.00    +0.000 A 
ATOM     18  C   UNL     1       1.812   8.526  18.593  0.00  0.00    +0.000 A 
ATOM     19  C   UNL     1       2.778   8.062  17.683  0.00  0.00    +0.000 A 
ATOM     20  C   UNL     1       3.544   6.873  17.874  0.00  0.00    +0.000 A 
BRANCH  20  21
ATOM     21  O   UNL     1       4.450   6.707  16.858  0.00  0.00    +0.000 OA
ATOM     22  C   UNL     1       5.819   6.958  17.124  0.00  0.00    +0.000 C 
ENDBRANCH  20  21
BRANCH  15  23
ATOM     23  O   UNL     1       4.112   4.931  19.229  0.00  0.00    +0.000 OA
BRANCH  23  24
ATOM     24  C   UNL     1       3.381   3.692  19.107  0.00  0.00    +0.000 C 
BRANCH  24  25
ATOM     25  C   UNL     1       3.467   2.762  20.344  0.00  0.00    +0.000 C 
BRANCH  25  27
ATOM     26  C   UNL     1       0.997   3.380  20.541  0.00  0.00    +0.000 C 
ATOM     27  C   UNL     1       2.218   2.774  21.238  0.00  0.00    +0.000 C 
ENDBRANCH  25  27
ENDBRANCH  24  25
ENDBRANCH  23  24
ENDBRANCH  15  23
ENDBRANCH   1  18
TORSDOF 7
ENDMDL
MODEL 8
REMARK VINA RESULT:      -6.9      3.419      7.979
REMARK  Name = 
REMARK  10 active torsions:
REMARK  status: ('A' for Active; 'I' for Inactive)
REMARK    1  A    between atoms: C_1  and  C_2
REMARK    2  A    between atoms: C_2  and  C_3
REMARK    3  A    between atoms: C_3  and  C_4
REMARK    4  A    between atoms: C_4  and  O_5
REMARK    5  A    between atoms: O_5  and  C_6
REMARK    6  A    between atoms: C_9  and  C_10
REMARK    7  A    between atoms: C_10  and  N_11
REMARK    8  A    between atoms: C_21  and  C_22
REMARK    9  A    between atoms: C_25  and  O_26
REMARK   10  A    between atoms: O_26  and  C_27
REMARK                            x       y       z     vdW  Elec       q    Type
REMARK                         _______ _______ _______ _____ _____    ______ ____
ROOT
ATOM      1  C   UNL     1       1.558   8.195  21.351  0.00  0.00    +0.000 C 
ENDROOT
BRANCH   1   2
ATOM      2  N   UNL     1       0.807   9.438  21.208  0.00  0.00    +0.000 N 
ATOM      3  C   UNL     1       0.368   9.871  22.484  0.00  0.00    +0.000 C 
ATOM      4  O   UNL     1       0.690   9.492  23.598  0.00  0.00    +0.000 OA
ATOM      5  C   UNL     1      -0.524  11.060  22.258  0.00  0.00    +0.000 C 
ATOM      6  O   UNL     1      -1.302  11.516  23.049  0.00  0.00    +0.000 OA
ATOM      7  C   UNL     1      -0.215  11.520  20.942  0.00  0.00    +0.000 A 
ATOM      8  C   UNL     1      -0.628  12.784  20.528  0.00  0.00    +0.000 A 
ATOM      9  C   UNL     1      -0.072  13.244  19.373  0.00  0.00    +0.000 A 
ATOM     10 BR   UNL     1      -0.470  14.993  18.780  0.00  0.00    +0.000 Br
ATOM     11  C   UNL     1       0.844  12.432  18.693  0.00  0.00    +0.000 A 
ATOM     12  C   UNL     1       1.244  11.107  19.142  0.00  0.00    +0.000 A 
ATOM     13  C   UNL     1       2.281  10.487  18.257  0.00  0.00    +0.000 C 
ATOM     14  C   UNL     1       0.683  10.605  20.321  0.00  0.00    +0.000 A 
ENDBRANCH   1   2
BRANCH   1  18
ATOM     15  C   UNL     1       1.845   4.958  18.347  0.00  0.00    +0.000 A 
ATOM     16  C   UNL     1       2.170   6.286  18.021  0.00  0.00    +0.000 A 
ATOM     17  C   UNL     1       2.205   7.326  18.997  0.00  0.00    +0.000 A 
ATOM     18  C   UNL     1       1.906   7.088  20.352  0.00  0.00    +0.000 A 
ATOM     19  C   UNL     1       1.484   5.777  20.638  0.00  0.00    +0.000 A 
ATOM     20  C   UNL     1       1.450   4.724  19.675  0.00  0.00    +0.000 A 
BRANCH  20  21
ATOM     21  O   UNL     1       0.936   3.578  20.224  0.00  0.00    +0.000 OA
ATOM     22  C   UNL     1       1.635   2.968  21.296  0.00  0.00    +0.000 C 
ENDBRANCH  20  21
BRANCH  15  23
ATOM     23  O   UNL     1       1.808   3.945  17.396  0.00  0.00    +0.000 OA
BRANCH  23  24
ATOM     24  C   UNL     1       2.854   2.957  17.503  0.00  0.00    +0.000 C 
BRANCH  24  25
ATOM     25  C   UNL     1       4.293   3.532  17.522  0.00  0.00    +0.000 C 
BRANCH  25  27
ATOM     26  C   UNL     1       5.512   5.065  19.162  0.00  0.00    +0.000 C 
ATOM     27  C   UNL     1       4.900   3.682  18.926  0.00  0.00    +0.000 C 
ENDBRANCH  25  27
ENDBRANCH  24  25
ENDBRANCH  23  24
ENDBRANCH  15  23
ENDBRANCH   1  18
TORSDOF 7
ENDMDL
MODEL 9
REMARK VINA RESULT:      -6.8      0.799      1.318
REMARK  Name = 
REMARK  10 active torsions:
REMARK  status: ('A' for Active; 'I' for Inactive)
REMARK    1  A    between atoms: C_1  and  C_2
REMARK    2  A    between atoms: C_2  and  C_3
REMARK    3  A    between atoms: C_3  and  C_4
REMARK    4  A    between atoms: C_4  and  O_5
REMARK    5  A    between atoms: O_5  and  C_6
REMARK    6  A    between atoms: C_9  and  C_10
REMARK    7  A    between atoms: C_10  and  N_11
REMARK    8  A    between atoms: C_21  and  C_22
REMARK    9  A    between atoms: C_25  and  O_26
REMARK   10  A    between atoms: O_26  and  C_27
REMARK                            x       y       z     vdW  Elec       q    Type
REMARK                         _______ _______ _______ _____ _____    ______ ____
ROOT
ATOM      1  C   UNL     1       2.434   6.340  19.921  0.00  0.00    +0.000 C 
ENDROOT
BRANCH   1   2
ATOM      2  N   UNL     1       3.056   5.426  18.967  0.00  0.00    +0.000 N 
ATOM      3  C   UNL     1       2.259   4.261  18.844  0.00  0.00    +0.000 C 
ATOM      4  O   UNL     1       1.123   4.041  19.230  0.00  0.00    +0.000 OA
ATOM      5  C   UNL     1       3.022   3.301  17.975  0.00  0.00    +0.000 C 
ATOM      6  O   UNL     1       2.817   2.123  17.881  0.00  0.00    +0.000 OA
ATOM      7  C   UNL     1       3.992   4.096  17.293  0.00  0.00    +0.000 A 
ATOM      8  C   UNL     1       4.659   3.586  16.183  0.00  0.00    +0.000 A 
ATOM      9  C   UNL     1       5.360   4.488  15.441  0.00  0.00    +0.000 A 
ATOM     10 BR   UNL     1       6.207   3.927  13.849  0.00  0.00    +0.000 Br
ATOM     11  C   UNL     1       5.371   5.829  15.841  0.00  0.00    +0.000 A 
ATOM     12  C   UNL     1       4.677   6.332  17.018  0.00  0.00    +0.000 A 
ATOM     13  C   UNL     1       4.808   7.815  17.176  0.00  0.00    +0.000 C 
ATOM     14  C   UNL     1       3.955   5.426  17.803  0.00  0.00    +0.000 A 
ENDBRANCH   1   2
BRANCH   1  18
ATOM     15  C   UNL     1       0.930  10.492  19.645  0.00  0.00    +0.000 A 
ATOM     16  C   UNL     1       1.360   9.795  18.503  0.00  0.00    +0.000 A 
ATOM     17  C   UNL     1       1.733   8.419  18.542  0.00  0.00    +0.000 A 
ATOM     18  C   UNL     1       1.702   7.673  19.736  0.00  0.00    +0.000 A 
ATOM     19  C   UNL     1       1.370   8.414  20.883  0.00  0.00    +0.000 A 
ATOM     20  C   UNL     1       0.988   9.789  20.859  0.00  0.00    +0.000 A 
BRANCH  20  21
ATOM     21  O   UNL     1       0.784  10.261  22.131  0.00  0.00    +0.000 OA
ATOM     22  C   UNL     1       0.116   9.428  23.063  0.00  0.00    +0.000 C 
ENDBRANCH  20  21
BRANCH  15  23
ATOM     23  O   UNL     1       0.570  11.834  19.607  0.00  0.00    +0.000 OA
BRANCH  23  24
ATOM     24  C   UNL     1      -0.625  12.134  18.854  0.00  0.00    +0.000 C 
BRANCH  24  25
ATOM     25  C   UNL     1      -1.942  12.056  19.666  0.00  0.00    +0.000 C 
BRANCH  25  27
ATOM     26  C   UNL     1      -2.168  12.246  22.203  0.00  0.00    +0.000 C 
ATOM     27  C   UNL     1      -1.999  12.996  20.879  0.00  0.00    +0.000 C 
ENDBRANCH  25  27
ENDBRANCH  24  25
ENDBRANCH  23  24
ENDBRANCH  15  23
ENDBRANCH   1  18
TORSDOF 7
ENDMDL
