MODEL 1
REMARK VINA RESULT:      -6.3      0.000      0.000
REMARK  Name = 
REMARK  17 active torsions:
REMARK  status: ('A' for Active; 'I' for Inactive)
REMARK    1  A    between atoms: C_1  and  C_2
REMARK    2  A    between atoms: C_2  and  C_3
REMARK    3  A    between atoms: C_2  and  C_4
REMARK    4  A    between atoms: C_4  and  O_6
REMARK    5  A    between atoms: O_6  and  C_7
REMARK    6  A    between atoms: C_7  and  C_8
REMARK    7  A    between atoms: C_8  and  C_9
REMARK    8  A    between atoms: C_8  and  C_10
REMARK    9  A    between atoms: C_8  and  C_11
REMARK   10  A    between atoms: C_11  and  O_12
REMARK   11  A    between atoms: C_11  and  C_18
REMARK   12  A    between atoms: O_12  and  C_13
REMARK   13  A    between atoms: C_13  and  C_15
REMARK   14  A    between atoms: C_15  and  C_16
REMARK   15  A    between atoms: C_15  and  C_17
REMARK   16  A    between atoms: C_18  and  C_19
REMARK   17  A    between atoms: C_18  and  C_20
REMARK                            x       y       z     vdW  Elec       q    Type
REMARK                         _______ _______ _______ _____ _____    ______ ____
ROOT
ATOM      1  C   UNL     1       4.241   4.393  18.067  0.00  0.00    +0.000 C 
ATOM      2  C   UNL     1       4.671   3.520  19.265  0.00  0.00    +0.000 C 
ATOM      3  C   UNL     1       3.475   3.521  17.053  0.00  0.00    +0.000 C 
ENDROOT
BRANCH   1   4
ATOM      4  C   UNL     1       3.202   5.422  18.607  0.00  0.00    +0.000 C 
BRANCH   4   5
ATOM      5  O   UNL     1       1.951   4.768  18.875  0.00  0.00    +0.000 OA
BRANCH   5   6
ATOM      6  C   UNL     1       1.538   4.755  20.174  0.00  0.00    +0.000 C 
ATOM      7  O   UNL     1       1.696   5.666  20.971  0.00  0.00    +0.000 OA
BRANCH   6   9
ATOM      8  C   UNL     1       0.759   2.592  19.243  0.00  0.00    +0.000 C 
ATOM      9  C   UNL     1       0.891   3.426  20.510  0.00  0.00    +0.000 C 
ATOM     10  C   UNL     1       1.720   2.700  21.565  0.00  0.00    +0.000 C 
ENDBRANCH   6   9
ENDBRANCH   5   6
ENDBRANCH   4   5
ENDBRANCH   1   4
BRANCH   1  11
ATOM     11  C   UNL     1       5.501   5.120  17.439  0.00  0.00    +0.000 C 
BRANCH  11  12
ATOM     12  C   UNL     1       5.411   6.675  17.252  0.00  0.00    +0.000 C 
ATOM     13  C   UNL     1       6.731   7.432  17.421  0.00  0.00    +0.000 C 
ATOM     14  C   UNL     1       4.851   7.043  15.867  0.00  0.00    +0.000 C 
ENDBRANCH  11  12
BRANCH  11  15
ATOM     15  O   UNL     1       5.651   4.562  16.094  0.00  0.00    +0.000 OA
BRANCH  15  16
ATOM     16  C   UNL     1       6.907   4.402  15.583  0.00  0.00    +0.000 C 
ATOM     17  O   UNL     1       7.938   4.371  16.239  0.00  0.00    +0.000 OA
BRANCH  16  18
ATOM     18  C   UNL     1       6.797   4.101  14.092  0.00  0.00    +0.000 C 
ATOM     19  C   UNL     1       5.339   4.031  13.667  0.00  0.00    +0.000 C 
ATOM     20  C   UNL     1       7.574   5.118  13.254  0.00  0.00    +0.000 C 
ENDBRANCH  16  18
ENDBRANCH  15  16
ENDBRANCH  11  15
ENDBRANCH   1  11
TORSDOF 9
ENDMDL
MODEL 2
REMARK VINA RESULT:      -6.2      1.433      6.228
REMARK  Name = 
REMARK  17 active torsions:
REMARK  status: ('A' for Active; 'I' for Inactive)
REMARK    1  A    between atoms: C_1  and  C_2
REMARK    2  A    between atoms: C_2  and  C_3
REMARK    3  A    between atoms: C_2  and  C_4
REMARK    4  A    between atoms: C_4  and  O_6
REMARK    5  A    between atoms: O_6  and  C_7
REMARK    6  A    between atoms: C_7  and  C_8
REMARK    7  A    between atoms: C_8  and  C_9
REMARK    8  A    between atoms: C_8  and  C_10
REMARK    9  A    between atoms: C_8  and  C_11
REMARK   10  A    between atoms: C_11  and  O_12
REMARK   11  A    between atoms: C_11  and  C_18
REMARK   12  A    between atoms: O_12  and  C_13
REMARK   13  A    between atoms: C_13  and  C_15
REMARK   14  A    between atoms: C_15  and  C_16
REMARK   15  A    between atoms: C_15  and  C_17
REMARK   16  A    between atoms: C_18  and  C_19
REMARK   17  A    between atoms: C_18  and  C_20
REMARK                            x       y       z     vdW  Elec       q    Type
REMARK                         _______ _______ _______ _____ _____    ______ ____
ROOT
ATOM      1  C   UNL     1       4.676   5.623  17.795  0.00  0.00    +0.000 C 
ATOM      2  C   UNL     1       5.245   5.078  19.123  0.00  0.00    +0.000 C 
ATOM      3  C   UNL     1       5.528   6.820  17.333  0.00  0.00    +0.000 C 
ENDROOT
BRANCH   1   4
ATOM      4  C   UNL     1       4.893   4.513  16.721  0.00  0.00    +0.000 C 
BRANCH   4   5
ATOM      5  O   UNL     1       5.525   5.068  15.556  0.00  0.00    +0.000 OA
BRANCH   5   6
ATOM      6  C   UNL     1       6.741   4.551  15.221  0.00  0.00    +0.000 C 
ATOM      7  O   UNL     1       7.711   4.501  15.961  0.00  0.00    +0.000 OA
BRANCH   6   9
ATOM      8  C   UNL     1       5.309   4.065  13.255  0.00  0.00    +0.000 C 
ATOM      9  C   UNL     1       6.739   4.084  13.780  0.00  0.00    +0.000 C 
ATOM     10  C   UNL     1       7.623   5.000  12.939  0.00  0.00    +0.000 C 
ENDBRANCH   6   9
ENDBRANCH   5   6
ENDBRANCH   4   5
ENDBRANCH   1   4
BRANCH   1  11
ATOM     11  C   UNL     1       3.141   5.975  17.960  0.00  0.00    +0.000 C 
BRANCH  11  12
ATOM     12  C   UNL     1       2.789   7.330  18.667  0.00  0.00    +0.000 C 
ATOM     13  C   UNL     1       1.947   8.303  17.837  0.00  0.00    +0.000 C 
ATOM     14  C   UNL     1       2.040   7.097  19.990  0.00  0.00    +0.000 C 
ENDBRANCH  11  12
BRANCH  11  15
ATOM     15  O   UNL     1       2.582   4.923  18.811  0.00  0.00    +0.000 OA
BRANCH  15  16
ATOM     16  C   UNL     1       1.661   4.066  18.281  0.00  0.00    +0.000 C 
ATOM     17  O   UNL     1       1.085   4.219  17.213  0.00  0.00    +0.000 OA
BRANCH  16  18
ATOM     18  C   UNL     1       1.595   2.815  19.150  0.00  0.00    +0.000 C 
ATOM     19  C   UNL     1       2.937   2.102  19.165  0.00  0.00    +0.000 C 
ATOM     20  C   UNL     1       1.121   3.140  20.569  0.00  0.00    +0.000 C 
ENDBRANCH  16  18
ENDBRANCH  15  16
ENDBRANCH  11  15
ENDBRANCH   1  11
TORSDOF 9
ENDMDL
MODEL 3
REMARK VINA RESULT:      -6.2      1.326      1.998
REMARK  Name = 
REMARK  17 active torsions:
REMARK  status: ('A' for Active; 'I' for Inactive)
REMARK    1  A    between atoms: C_1  and  C_2
REMARK    2  A    between atoms: C_2  and  C_3
REMARK    3  A    between atoms: C_2  and  C_4
REMARK    4  A    between atoms: C_4  and  O_6
REMARK    5  A    between atoms: O_6  and  C_7
REMARK    6  A    between atoms: C_7  and  C_8
REMARK    7  A    between atoms: C_8  and  C_9
REMARK    8  A    between atoms: C_8  and  C_10
REMARK    9  A    between atoms: C_8  and  C_11
REMARK   10  A    between atoms: C_11  and  O_12
REMARK   11  A    between atoms: C_11  and  C_18
REMARK   12  A    between atoms: O_12  and  C_13
REMARK   13  A    between atoms: C_13  and  C_15
REMARK   14  A    between atoms: C_15  and  C_16
REMARK   15  A    between atoms: C_15  and  C_17
REMARK   16  A    between atoms: C_18  and  C_19
REMARK   17  A    between atoms: C_18  and  C_20
REMARK                            x       y       z     vdW  Elec       q    Type
REMARK                         _______ _______ _______ _____ _____    ______ ____
ROOT
ATOM      1  C   UNL     1       4.327   4.082  18.053  0.00  0.00    +0.000 C 
ATOM      2  C   UNL     1       4.003   2.781  17.287  0.00  0.00    +0.000 C 
ATOM      3  C   UNL     1       3.239   5.131  17.751  0.00  0.00    +0.000 C 
ENDROOT
BRANCH   1   4
ATOM      4  C   UNL     1       4.191   3.759  19.572  0.00  0.00    +0.000 C 
BRANCH   4   5
ATOM      5  O   UNL     1       3.332   2.623  19.762  0.00  0.00    +0.000 OA
BRANCH   5   6
ATOM      6  C   UNL     1       2.493   2.669  20.835  0.00  0.00    +0.000 C 
ATOM      7  O   UNL     1       2.821   2.463  21.993  0.00  0.00    +0.000 OA
BRANCH   6   9
ATOM      8  C   UNL     1       0.843   4.472  20.418  0.00  0.00    +0.000 C 
ATOM      9  C   UNL     1       1.077   2.968  20.387  0.00  0.00    +0.000 C 
ATOM     10  C   UNL     1       0.847   2.402  18.989  0.00  0.00    +0.000 C 
ENDBRANCH   6   9
ENDBRANCH   5   6
ENDBRANCH   4   5
ENDBRANCH   1   4
BRANCH   1  11
ATOM     11  C   UNL     1       5.787   4.578  17.696  0.00  0.00    +0.000 C 
BRANCH  11  12
ATOM     12  C   UNL     1       6.309   5.861  18.433  0.00  0.00    +0.000 C 
ATOM     13  C   UNL     1       7.680   5.722  19.100  0.00  0.00    +0.000 C 
ATOM     14  C   UNL     1       6.388   7.066  17.479  0.00  0.00    +0.000 C 
ENDBRANCH  11  12
BRANCH  11  15
ATOM     15  O   UNL     1       5.754   4.920  16.273  0.00  0.00    +0.000 OA
BRANCH  15  16
ATOM     16  C   UNL     1       6.876   4.723  15.520  0.00  0.00    +0.000 C 
ATOM     17  O   UNL     1       7.955   4.338  15.948  0.00  0.00    +0.000 OA
BRANCH  16  18
ATOM     18  C   UNL     1       6.518   4.896  14.048  0.00  0.00    +0.000 C 
ATOM     19  C   UNL     1       7.762   5.186  13.225  0.00  0.00    +0.000 C 
ATOM     20  C   UNL     1       5.762   3.681  13.506  0.00  0.00    +0.000 C 
ENDBRANCH  16  18
ENDBRANCH  15  16
ENDBRANCH  11  15
ENDBRANCH   1  11
TORSDOF 9
ENDMDL
MODEL 4
REMARK VINA RESULT:      -6.0      1.426      6.413
REMARK  Name = 
REMARK  17 active torsions:
REMARK  status: ('A' for Active; 'I' for Inactive)
REMARK    1  A    between atoms: C_1  and  C_2
REMARK    2  A    between atoms: C_2  and  C_3
REMARK    3  A    between atoms: C_2  and  C_4
REMARK    4  A    between atoms: C_4  and  O_6
REMARK    5  A    between atoms: O_6  and  C_7
REMARK    6  A    between atoms: C_7  and  C_8
REMARK    7  A    between atoms: C_8  and  C_9
REMARK    8  A    between atoms: C_8  and  C_10
REMARK    9  A    between atoms: C_8  and  C_11
REMARK   10  A    between atoms: C_11  and  O_12
REMARK   11  A    between atoms: C_11  and  C_18
REMARK   12  A    between atoms: O_12  and  C_13
REMARK   13  A    between atoms: C_13  and  C_15
REMARK   14  A    between atoms: C_15  and  C_16
REMARK   15  A    between atoms: C_15  and  C_17
REMARK   16  A    between atoms: C_18  and  C_19
REMARK   17  A    between atoms: C_18  and  C_20
REMARK                            x       y       z     vdW  Elec       q    Type
REMARK                         _______ _______ _______ _____ _____    ______ ____
ROOT
ATOM      1  C   UNL     1       4.514   5.248  17.776  0.00  0.00    +0.000 C 
ATOM      2  C   UNL     1       4.406   3.773  17.335  0.00  0.00    +0.000 C 
ATOM      3  C   UNL     1       5.379   5.336  19.047  0.00  0.00    +0.000 C 
ENDROOT
BRANCH   1   4
ATOM      4  C   UNL     1       5.318   5.994  16.668  0.00  0.00    +0.000 C 
BRANCH   4   5
ATOM      5  O   UNL     1       5.421   5.174  15.493  0.00  0.00    +0.000 OA
BRANCH   5   6
ATOM      6  C   UNL     1       6.677   4.960  15.010  0.00  0.00    +0.000 C 
ATOM      7  O   UNL     1       7.683   4.846  15.693  0.00  0.00    +0.000 OA
BRANCH   6   9
ATOM      8  C   UNL     1       8.053   5.258  12.968  0.00  0.00    +0.000 C 
ATOM      9  C   UNL     1       6.663   4.928  13.495  0.00  0.00    +0.000 C 
ATOM     10  C   UNL     1       6.201   3.557  13.011  0.00  0.00    +0.000 C 
ENDBRANCH   6   9
ENDBRANCH   5   6
ENDBRANCH   4   5
ENDBRANCH   1   4
BRANCH   1  11
ATOM     11  C   UNL     1       3.070   5.871  17.960  0.00  0.00    +0.000 C 
BRANCH  11  12
ATOM     12  C   UNL     1       2.982   7.306  18.589  0.00  0.00    +0.000 C 
ATOM     13  C   UNL     1       2.342   8.374  17.698  0.00  0.00    +0.000 C 
ATOM     14  C   UNL     1       2.202   7.293  19.914  0.00  0.00    +0.000 C 
ENDBRANCH  11  12
BRANCH  11  15
ATOM     15  O   UNL     1       2.370   4.983  18.890  0.00  0.00    +0.000 OA
BRANCH  15  16
ATOM     16  C   UNL     1       1.390   4.163  18.409  0.00  0.00    +0.000 C 
ATOM     17  O   UNL     1       0.999   4.134  17.251  0.00  0.00    +0.000 OA
BRANCH  16  18
ATOM     18  C   UNL     1       0.988   3.182  19.504  0.00  0.00    +0.000 C 
ATOM     19  C   UNL     1       1.656   1.834  19.287  0.00  0.00    +0.000 C 
ATOM     20  C   UNL     1       1.293   3.737  20.897  0.00  0.00    +0.000 C 
ENDBRANCH  16  18
ENDBRANCH  15  16
ENDBRANCH  11  15
ENDBRANCH   1  11
TORSDOF 9
ENDMDL
MODEL 5
REMARK VINA RESULT:      -5.9      1.436      6.175
REMARK  Name = 
REMARK  17 active torsions:
REMARK  status: ('A' for Active; 'I' for Inactive)
REMARK    1  A    between atoms: C_1  and  C_2
REMARK    2  A    between atoms: C_2  and  C_3
REMARK    3  A    between atoms: C_2  and  C_4
REMARK    4  A    between atoms: C_4  and  O_6
REMARK    5  A    between atoms: O_6  and  C_7
REMARK    6  A    between atoms: C_7  and  C_8
REMARK    7  A    between atoms: C_8  and  C_9
REMARK    8  A    between atoms: C_8  and  C_10
REMARK    9  A    between atoms: C_8  and  C_11
REMARK   10  A    between atoms: C_11  and  O_12
REMARK   11  A    between atoms: C_11  and  C_18
REMARK   12  A    between atoms: O_12  and  C_13
REMARK   13  A    between atoms: C_13  and  C_15
REMARK   14  A    between atoms: C_15  and  C_16
REMARK   15  A    between atoms: C_15  and  C_17
REMARK   16  A    between atoms: C_18  and  C_19
REMARK   17  A    between atoms: C_18  and  C_20
REMARK                            x       y       z     vdW  Elec       q    Type
REMARK                         _______ _______ _______ _____ _____    ______ ____
ROOT
ATOM      1  C   UNL     1       4.418   4.968  18.092  0.00  0.00    +0.000 C 
ATOM      2  C   UNL     1       4.378   3.729  17.173  0.00  0.00    +0.000 C 
ATOM      3  C   UNL     1       4.834   4.534  19.511  0.00  0.00    +0.000 C 
ENDROOT
BRANCH   1   4
ATOM      4  C   UNL     1       5.573   5.878  17.575  0.00  0.00    +0.000 C 
BRANCH   4   5
ATOM      5  O   UNL     1       6.343   5.185  16.580  0.00  0.00    +0.000 OA
BRANCH   5   6
ATOM      6  C   UNL     1       6.125   5.544  15.284  0.00  0.00    +0.000 C 
ATOM      7  O   UNL     1       5.454   6.499  14.922  0.00  0.00    +0.000 OA
BRANCH   6   9
ATOM      8  C   UNL     1       5.733   3.798  13.567  0.00  0.00    +0.000 C 
ATOM      9  C   UNL     1       6.796   4.565  14.342  0.00  0.00    +0.000 C 
ATOM     10  C   UNL     1       7.734   5.313  13.401  0.00  0.00    +0.000 C 
ENDBRANCH   6   9
ENDBRANCH   5   6
ENDBRANCH   4   5
ENDBRANCH   1   4
BRANCH   1  11
ATOM     11  C   UNL     1       3.026   5.723  18.053  0.00  0.00    +0.000 C 
BRANCH  11  12
ATOM     12  C   UNL     1       2.995   7.197  18.589  0.00  0.00    +0.000 C 
ATOM     13  C   UNL     1       2.440   8.238  17.613  0.00  0.00    +0.000 C 
ATOM     14  C   UNL     1       2.174   7.308  19.885  0.00  0.00    +0.000 C 
ENDBRANCH  11  12
BRANCH  11  15
ATOM     15  O   UNL     1       2.136   4.960  18.930  0.00  0.00    +0.000 OA
BRANCH  15  16
ATOM     16  C   UNL     1       1.286   4.047  18.374  0.00  0.00    +0.000 C 
ATOM     17  O   UNL     1       0.909   4.050  17.211  0.00  0.00    +0.000 OA
BRANCH  16  18
ATOM     18  C   UNL     1       1.021   2.940  19.387  0.00  0.00    +0.000 C 
ATOM     19  C   UNL     1       1.907   1.736  19.108  0.00  0.00    +0.000 C 
ATOM     20  C   UNL     1       1.195   3.438  20.823  0.00  0.00    +0.000 C 
ENDBRANCH  16  18
ENDBRANCH  15  16
ENDBRANCH  11  15
ENDBRANCH   1  11
TORSDOF 9
ENDMDL
MODEL 6
REMARK VINA RESULT:      -5.8      1.542      6.607
REMARK  Name = 
REMARK  17 active torsions:
REMARK  status: ('A' for Active; 'I' for Inactive)
REMARK    1  A    between atoms: C_1  and  C_2
REMARK    2  A    between atoms: C_2  and  C_3
REMARK    3  A    between atoms: C_2  and  C_4
REMARK    4  A    between atoms: C_4  and  O_6
REMARK    5  A    between atoms: O_6  and  C_7
REMARK    6  A    between atoms: C_7  and  C_8
REMARK    7  A    between atoms: C_8  and  C_9
REMARK    8  A    between atoms: C_8  and  C_10
REMARK    9  A    between atoms: C_8  and  C_11
REMARK   10  A    between atoms: C_11  and  O_12
REMARK   11  A    between atoms: C_11  and  C_18
REMARK   12  A    between atoms: O_12  and  C_13
REMARK   13  A    between atoms: C_13  and  C_15
REMARK   14  A    between atoms: C_15  and  C_16
REMARK   15  A    between atoms: C_15  and  C_17
REMARK   16  A    between atoms: C_18  and  C_19
REMARK   17  A    between atoms: C_18  and  C_20
REMARK                            x       y       z     vdW  Elec       q    Type
REMARK                         _______ _______ _______ _____ _____    ______ ____
ROOT
ATOM      1  C   UNL     1       5.618   4.928  18.050  0.00  0.00    +0.000 C 
ATOM      2  C   UNL     1       6.476   5.417  19.237  0.00  0.00    +0.000 C 
ATOM      3  C   UNL     1       4.828   6.118  17.471  0.00  0.00    +0.000 C 
ENDROOT
BRANCH   1   4
ATOM      4  C   UNL     1       6.607   4.493  16.926  0.00  0.00    +0.000 C 
BRANCH   4   5
ATOM      5  O   UNL     1       6.084   4.857  15.638  0.00  0.00    +0.000 OA
BRANCH   5   6
ATOM      6  C   UNL     1       6.967   4.857  14.601  0.00  0.00    +0.000 C 
ATOM      7  O   UNL     1       7.956   5.570  14.519  0.00  0.00    +0.000 OA
BRANCH   6   9
ATOM      8  C   UNL     1       5.010   3.842  13.465  0.00  0.00    +0.000 C 
ATOM      9  C   UNL     1       6.531   3.874  13.533  0.00  0.00    +0.000 C 
ATOM     10  C   UNL     1       7.136   4.269  12.190  0.00  0.00    +0.000 C 
ENDBRANCH   6   9
ENDBRANCH   5   6
ENDBRANCH   4   5
ENDBRANCH   1   4
BRANCH   1  11
ATOM     11  C   UNL     1       4.693   3.725  18.503  0.00  0.00    +0.000 C 
BRANCH  11  12
ATOM     12  C   UNL     1       3.659   3.183  17.455  0.00  0.00    +0.000 C 
ATOM     13  C   UNL     1       3.232   1.725  17.650  0.00  0.00    +0.000 C 
ATOM     14  C   UNL     1       2.377   4.032  17.437  0.00  0.00    +0.000 C 
ENDBRANCH  11  12
BRANCH  11  15
ATOM     15  O   UNL     1       3.899   4.235  19.622  0.00  0.00    +0.000 OA
BRANCH  15  16
ATOM     16  C   UNL     1       3.508   3.368  20.602  0.00  0.00    +0.000 C 
ATOM     17  O   UNL     1       4.162   2.419  21.008  0.00  0.00    +0.000 OA
BRANCH  16  18
ATOM     18  C   UNL     1       2.209   3.876  21.218  0.00  0.00    +0.000 C 
ATOM     19  C   UNL     1       1.901   5.284  20.734  0.00  0.00    +0.000 C 
ATOM     20  C   UNL     1       1.044   2.924  20.940  0.00  0.00    +0.000 C 
ENDBRANCH  16  18
ENDBRANCH  15  16
ENDBRANCH  11  15
ENDBRANCH   1  11
TORSDOF 9
ENDMDL
MODEL 7
REMARK VINA RESULT:      -5.8      2.021      5.948
REMARK  Name = 
REMARK  17 active torsions:
REMARK  status: ('A' for Active; 'I' for Inactive)
REMARK    1  A    between atoms: C_1  and  C_2
REMARK    2  A    between atoms: C_2  and  C_3
REMARK    3  A    between atoms: C_2  and  C_4
REMARK    4  A    between atoms: C_4  and  O_6
REMARK    5  A    between atoms: O_6  and  C_7
REMARK    6  A    between atoms: C_7  and  C_8
REMARK    7  A    between atoms: C_8  and  C_9
REMARK    8  A    between atoms: C_8  and  C_10
REMARK    9  A    between atoms: C_8  and  C_11
REMARK   10  A    between atoms: C_11  and  O_12
REMARK   11  A    between atoms: C_11  and  C_18
REMARK   12  A    between atoms: O_12  and  C_13
REMARK   13  A    between atoms: C_13  and  C_15
REMARK   14  A    between atoms: C_15  and  C_16
REMARK   15  A    between atoms: C_15  and  C_17
REMARK   16  A    between atoms: C_18  and  C_19
REMARK   17  A    between atoms: C_18  and  C_20
REMARK                            x       y       z     vdW  Elec       q    Type
REMARK                         _______ _______ _______ _____ _____    ______ ____
ROOT
ATOM      1  C   UNL     1       3.572   3.450  18.698  0.00  0.00    +0.000 C 
ATOM      2  C   UNL     1       3.580   3.837  17.204  0.00  0.00    +0.000 C 
ATOM      3  C   UNL     1       3.333   1.934  18.828  0.00  0.00    +0.000 C 
ENDROOT
BRANCH   1   4
ATOM      4  C   UNL     1       5.014   3.696  19.237  0.00  0.00    +0.000 C 
BRANCH   4   5
ATOM      5  O   UNL     1       5.286   5.106  19.302  0.00  0.00    +0.000 OA
BRANCH   5   6
ATOM      6  C   UNL     1       6.581   5.484  19.113  0.00  0.00    +0.000 C 
ATOM      7  O   UNL     1       7.495   5.280  19.897  0.00  0.00    +0.000 OA
BRANCH   6   9
ATOM      8  C   UNL     1       7.758   7.346  17.975  0.00  0.00    +0.000 C 
ATOM      9  C   UNL     1       6.727   6.239  17.807  0.00  0.00    +0.000 C 
ATOM     10  C   UNL     1       7.127   5.275  16.695  0.00  0.00    +0.000 C 
ENDBRANCH   6   9
ENDBRANCH   5   6
ENDBRANCH   4   5
ENDBRANCH   1   4
BRANCH   1  11
ATOM     11  C   UNL     1       2.506   4.320  19.483  0.00  0.00    +0.000 C 
BRANCH  11  12
ATOM     12  C   UNL     1       1.154   3.622  19.865  0.00  0.00    +0.000 C 
ATOM     13  C   UNL     1       0.642   2.589  18.857  0.00  0.00    +0.000 C 
ATOM     14  C   UNL     1       1.249   2.918  21.229  0.00  0.00    +0.000 C 
ENDBRANCH  11  12
BRANCH  11  15
ATOM     15  O   UNL     1       2.150   5.418  18.583  0.00  0.00    +0.000 OA
BRANCH  15  16
ATOM     16  C   UNL     1       2.110   6.690  19.079  0.00  0.00    +0.000 C 
ATOM     17  O   UNL     1       2.092   6.986  20.264  0.00  0.00    +0.000 OA
BRANCH  16  18
ATOM     18  C   UNL     1       2.262   7.673  17.923  0.00  0.00    +0.000 C 
ATOM     19  C   UNL     1       1.835   9.069  18.349  0.00  0.00    +0.000 C 
ATOM     20  C   UNL     1       3.687   7.672  17.366  0.00  0.00    +0.000 C 
ENDBRANCH  16  18
ENDBRANCH  15  16
ENDBRANCH  11  15
ENDBRANCH   1  11
TORSDOF 9
ENDMDL
MODEL 8
REMARK VINA RESULT:      -5.7      1.592      3.372
REMARK  Name = 
REMARK  17 active torsions:
REMARK  status: ('A' for Active; 'I' for Inactive)
REMARK    1  A    between atoms: C_1  and  C_2
REMARK    2  A    between atoms: C_2  and  C_3
REMARK    3  A    between atoms: C_2  and  C_4
REMARK    4  A    between atoms: C_4  and  O_6
REMARK    5  A    between atoms: O_6  and  C_7
REMARK    6  A    between atoms: C_7  and  C_8
REMARK    7  A    between atoms: C_8  and  C_9
REMARK    8  A    between atoms: C_8  and  C_10
REMARK    9  A    between atoms: C_8  and  C_11
REMARK   10  A    between atoms: C_11  and  O_12
REMARK   11  A    between atoms: C_11  and  C_18
REMARK   12  A    between atoms: O_12  and  C_13
REMARK   13  A    between atoms: C_13  and  C_15
REMARK   14  A    between atoms: C_15  and  C_16
REMARK   15  A    between atoms: C_15  and  C_17
REMARK   16  A    between atoms: C_18  and  C_19
REMARK   17  A    between atoms: C_18  and  C_20
REMARK                            x       y       z     vdW  Elec       q    Type
REMARK                         _______ _______ _______ _____ _____    ______ ____
ROOT
ATOM      1  C   UNL     1       3.908   4.957  17.830  0.00  0.00    +0.000 C 
ATOM      2  C   UNL     1       2.826   6.059  17.851  0.00  0.00    +0.000 C 
ATOM      3  C   UNL     1       4.520   4.822  19.237  0.00  0.00    +0.000 C 
ENDROOT
BRANCH   1   4
ATOM      4  C   UNL     1       3.175   3.608  17.558  0.00  0.00    +0.000 C 
BRANCH   4   5
ATOM      5  O   UNL     1       2.839   2.968  18.800  0.00  0.00    +0.000 OA
BRANCH   5   6
ATOM      6  C   UNL     1       1.512   2.850  19.082  0.00  0.00    +0.000 C 
ATOM      7  O   UNL     1       0.648   2.526  18.281  0.00  0.00    +0.000 OA
BRANCH   6   9
ATOM      8  C   UNL     1       2.367   2.689  21.405  0.00  0.00    +0.000 C 
ATOM      9  C   UNL     1       1.243   3.222  20.527  0.00  0.00    +0.000 C 
ATOM     10  C   UNL     1       1.112   4.736  20.655  0.00  0.00    +0.000 C 
ENDBRANCH   6   9
ENDBRANCH   5   6
ENDBRANCH   4   5
ENDBRANCH   1   4
BRANCH   1  11
ATOM     11  C   UNL     1       4.983   5.267  16.709  0.00  0.00    +0.000 C 
BRANCH  11  12
ATOM     12  C   UNL     1       5.029   4.301  15.474  0.00  0.00    +0.000 C 
ATOM     13  C   UNL     1       5.230   4.982  14.117  0.00  0.00    +0.000 C 
ATOM     14  C   UNL     1       6.141   3.249  15.623  0.00  0.00    +0.000 C 
ENDBRANCH  11  12
BRANCH  11  15
ATOM     15  O   UNL     1       6.286   5.142  17.364  0.00  0.00    +0.000 OA
BRANCH  15  16
ATOM     16  C   UNL     1       7.233   6.099  17.136  0.00  0.00    +0.000 C 
ATOM     17  O   UNL     1       7.716   6.370  16.046  0.00  0.00    +0.000 OA
BRANCH  16  18
ATOM     18  C   UNL     1       7.463   6.880  18.425  0.00  0.00    +0.000 C 
ATOM     19  C   UNL     1       8.174   6.017  19.455  0.00  0.00    +0.000 C 
ATOM     20  C   UNL     1       8.226   8.181  18.166  0.00  0.00    +0.000 C 
ENDBRANCH  16  18
ENDBRANCH  15  16
ENDBRANCH  11  15
ENDBRANCH   1  11
TORSDOF 9
ENDMDL
MODEL 9
REMARK VINA RESULT:      -5.7      2.377      6.290
REMARK  Name = 
REMARK  17 active torsions:
REMARK  status: ('A' for Active; 'I' for Inactive)
REMARK    1  A    between atoms: C_1  and  C_2
REMARK    2  A    between atoms: C_2  and  C_3
REMARK    3  A    between atoms: C_2  and  C_4
REMARK    4  A    between atoms: C_4  and  O_6
REMARK    5  A    between atoms: O_6  and  C_7
REMARK    6  A    between atoms: C_7  and  C_8
REMARK    7  A    between atoms: C_8  and  C_9
REMARK    8  A    between atoms: C_8  and  C_10
REMARK    9  A    between atoms: C_8  and  C_11
REMARK   10  A    between atoms: C_11  and  O_12
REMARK   11  A    between atoms: C_11  and  C_18
REMARK   12  A    between atoms: O_12  and  C_13
REMARK   13  A    between atoms: C_13  and  C_15
REMARK   14  A    between atoms: C_15  and  C_16
REMARK   15  A    between atoms: C_15  and  C_17
REMARK   16  A    between atoms: C_18  and  C_19
REMARK   17  A    between atoms: C_18  and  C_20
REMARK                            x       y       z     vdW  Elec       q    Type
REMARK                         _______ _______ _______ _____ _____    ______ ____
ROOT
ATOM      1  C   UNL     1       6.056   4.896  16.050  0.00  0.00    +0.000 C 
ATOM      2  C   UNL     1       4.982   3.931  16.596  0.00  0.00    +0.000 C 
ATOM      3  C   UNL     1       7.427   4.194  16.070  0.00  0.00    +0.000 C 
ENDROOT
BRANCH   1   4
ATOM      4  C   UNL     1       5.726   5.134  14.544  0.00  0.00    +0.000 C 
BRANCH   4   5
ATOM      5  O   UNL     1       5.409   3.887  13.904  0.00  0.00    +0.000 OA
BRANCH   5   6
ATOM      6  C   UNL     1       6.033   3.637  12.720  0.00  0.00    +0.000 C 
ATOM      7  O   UNL     1       7.028   4.217  12.312  0.00  0.00    +0.000 OA
BRANCH   6   9
ATOM      8  C   UNL     1       4.226   3.206  11.077  0.00  0.00    +0.000 C 
ATOM      9  C   UNL     1       5.295   2.561  11.949  0.00  0.00    +0.000 C 
ATOM     10  C   UNL     1       6.282   1.757  11.109  0.00  0.00    +0.000 C 
ENDBRANCH   6   9
ENDBRANCH   5   6
ENDBRANCH   4   5
ENDBRANCH   1   4
BRANCH   1  11
ATOM     11  C   UNL     1       6.038   6.253  16.866  0.00  0.00    +0.000 C 
BRANCH  11  12
ATOM     12  C   UNL     1       7.387   6.715  17.519  0.00  0.00    +0.000 C 
ATOM     13  C   UNL     1       7.585   8.231  17.613  0.00  0.00    +0.000 C 
ATOM     14  C   UNL     1       7.548   6.147  18.940  0.00  0.00    +0.000 C 
ENDBRANCH  11  12
BRANCH  11  15
ATOM     15  O   UNL     1       5.109   6.036  17.977  0.00  0.00    +0.000 OA
BRANCH  15  16
ATOM     16  C   UNL     1       3.923   6.712  17.987  0.00  0.00    +0.000 C 
ATOM     17  O   UNL     1       3.662   7.692  17.305  0.00  0.00    +0.000 OA
BRANCH  16  18
ATOM     18  C   UNL     1       2.930   5.949  18.856  0.00  0.00    +0.000 C 
ATOM     19  C   UNL     1       1.940   5.184  17.992  0.00  0.00    +0.000 C 
ATOM     20  C   UNL     1       3.641   5.020  19.843  0.00  0.00    +0.000 C 
ENDBRANCH  16  18
ENDBRANCH  15  16
ENDBRANCH  11  15
ENDBRANCH   1  11
TORSDOF 9
ENDMDL
