MODEL 1
REMARK VINA RESULT:      -7.6      0.000      0.000
REMARK  Name = 
REMARK  2 active torsions:
REMARK  status: ('A' for Active; 'I' for Inactive)
REMARK    1  A    between atoms: C_1  and  N_2
REMARK    2  A    between atoms: N_5  and  C_6
REMARK                            x       y       z     vdW  Elec       q    Type
REMARK                         _______ _______ _______ _____ _____    ______ ____
ROOT
ATOM      1  C   UNL     1       4.720   4.646  17.959  0.00  0.00    +0.000 A 
ATOM      2  N   UNL     1       4.576   3.547  18.735  0.00  0.00    +0.000 NA
ATOM      3  C   UNL     1       3.662   3.540  19.721  0.00  0.00    +0.000 A 
ATOM      4  C   UNL     1       3.537   2.390  20.497  0.00  0.00    +0.000 A 
ATOM      5  C   UNL     1       2.596   2.275  21.524  0.00  0.00    +0.000 A 
ATOM      6  C   UNL     1       1.750   3.336  21.792  0.00  0.00    +0.000 A 
ATOM      7  C   UNL     1       1.863   4.503  21.039  0.00  0.00    +0.000 A 
ATOM      8  C   UNL     1       2.820   4.637  19.997  0.00  0.00    +0.000 A 
ATOM      9  C   UNL     1       2.970   5.809  19.192  0.00  0.00    +0.000 A 
ATOM     10  C   UNL     1       2.196   6.988  19.374  0.00  0.00    +0.000 A 
ATOM     11  C   UNL     1       2.327   8.109  18.554  0.00  0.00    +0.000 A 
ATOM     12  C   UNL     1       3.216   8.081  17.500  0.00  0.00    +0.000 A 
ATOM     13  C   UNL     1       3.977   6.936  17.291  0.00  0.00    +0.000 A 
ATOM     14  C   UNL     1       3.914   5.804  18.144  0.00  0.00    +0.000 A 
ENDROOT
BRANCH   1  19
ATOM     15  C   UNL     1       7.718   5.364  13.373  0.00  0.00    +0.000 C 
ATOM     16  N   UNL     1       7.374   4.661  14.608  0.00  0.00    +0.000 NA
ATOM     17  C   UNL     1       5.975   4.151  14.537  0.00  0.00    +0.000 C 
ATOM     18  C   UNL     1       5.454   3.550  15.873  0.00  0.00    +0.000 C 
ATOM     19  N   UNL     1       5.615   4.581  16.900  0.00  0.00    +0.000 N 
ATOM     20  C   UNL     1       7.026   4.941  17.098  0.00  0.00    +0.000 C 
ATOM     21  C   UNL     1       7.529   5.568  15.771  0.00  0.00    +0.000 C 
ENDBRANCH   1  19
TORSDOF 1
ENDMDL
MODEL 2
REMARK VINA RESULT:      -7.4      2.752      6.388
REMARK  Name = 
REMARK  2 active torsions:
REMARK  status: ('A' for Active; 'I' for Inactive)
REMARK    1  A    between atoms: C_1  and  N_2
REMARK    2  A    between atoms: N_5  and  C_6
REMARK                            x       y       z     vdW  Elec       q    Type
REMARK                         _______ _______ _______ _____ _____    ______ ____
ROOT
ATOM      1  C   UNL     1       2.737   6.904  18.536  0.00  0.00    +0.000 A 
ATOM      2  N   UNL     1       3.655   7.086  17.560  0.00  0.00    +0.000 NA
ATOM      3  C   UNL     1       4.302   6.027  17.044  0.00  0.00    +0.000 A 
ATOM      4  C   UNL     1       5.237   6.251  16.036  0.00  0.00    +0.000 A 
ATOM      5  C   UNL     1       5.938   5.212  15.416  0.00  0.00    +0.000 A 
ATOM      6  C   UNL     1       5.705   3.907  15.808  0.00  0.00    +0.000 A 
ATOM      7  C   UNL     1       4.784   3.656  16.824  0.00  0.00    +0.000 A 
ATOM      8  C   UNL     1       4.070   4.702  17.468  0.00  0.00    +0.000 A 
ATOM      9  C   UNL     1       3.111   4.496  18.508  0.00  0.00    +0.000 A 
ATOM     10  C   UNL     1       2.793   3.215  19.038  0.00  0.00    +0.000 A 
ATOM     11  C   UNL     1       1.825   3.028  20.025  0.00  0.00    +0.000 A 
ATOM     12  C   UNL     1       1.116   4.112  20.497  0.00  0.00    +0.000 A 
ATOM     13  C   UNL     1       1.397   5.374  19.987  0.00  0.00    +0.000 A 
ATOM     14  C   UNL     1       2.418   5.608  19.030  0.00  0.00    +0.000 A 
ENDROOT
BRANCH   1  19
ATOM     15  C   UNL     1      -1.020  10.672  20.026  0.00  0.00    +0.000 C 
ATOM     16  N   UNL     1       0.353  10.194  19.862  0.00  0.00    +0.000 NA
ATOM     17  C   UNL     1       0.632   9.918  18.424  0.00  0.00    +0.000 C 
ATOM     18  C   UNL     1       2.004   9.232  18.168  0.00  0.00    +0.000 C 
ATOM     19  N   UNL     1       2.033   8.014  18.981  0.00  0.00    +0.000 N 
ATOM     20  C   UNL     1       1.948   8.312  20.418  0.00  0.00    +0.000 C 
ATOM     21  C   UNL     1       0.566   8.968  20.669  0.00  0.00    +0.000 C 
ENDBRANCH   1  19
TORSDOF 1
ENDMDL
MODEL 3
REMARK VINA RESULT:      -7.3      2.101      6.349
REMARK  Name = 
REMARK  2 active torsions:
REMARK  status: ('A' for Active; 'I' for Inactive)
REMARK    1  A    between atoms: C_1  and  N_2
REMARK    2  A    between atoms: N_5  and  C_6
REMARK                            x       y       z     vdW  Elec       q    Type
REMARK                         _______ _______ _______ _____ _____    ______ ____
ROOT
ATOM      1  C   UNL     1       4.540   4.081  16.988  0.00  0.00    +0.000 A 
ATOM      2  N   UNL     1       4.478   3.741  15.680  0.00  0.00    +0.000 NA
ATOM      3  C   UNL     1       5.456   4.126  14.842  0.00  0.00    +0.000 A 
ATOM      4  C   UNL     1       5.363   3.754  13.503  0.00  0.00    +0.000 A 
ATOM      5  C   UNL     1       6.344   4.079  12.562  0.00  0.00    +0.000 A 
ATOM      6  C   UNL     1       7.457   4.797  12.962  0.00  0.00    +0.000 A 
ATOM      7  C   UNL     1       7.569   5.193  14.293  0.00  0.00    +0.000 A 
ATOM      8  C   UNL     1       6.575   4.877  15.259  0.00  0.00    +0.000 A 
ATOM      9  C   UNL     1       6.647   5.252  16.636  0.00  0.00    +0.000 A 
ATOM     10  C   UNL     1       7.711   6.020  17.184  0.00  0.00    +0.000 A 
ATOM     11  C   UNL     1       7.787   6.344  18.539  0.00  0.00    +0.000 A 
ATOM     12  C   UNL     1       6.816   5.884  19.403  0.00  0.00    +0.000 A 
ATOM     13  C   UNL     1       5.770   5.121  18.898  0.00  0.00    +0.000 A 
ATOM     14  C   UNL     1       5.630   4.827  17.517  0.00  0.00    +0.000 A 
ENDROOT
BRANCH   1  19
ATOM     15  C   UNL     1       1.170   2.793  21.174  0.00  0.00    +0.000 C 
ATOM     16  N   UNL     1       1.601   2.720  19.778  0.00  0.00    +0.000 NA
ATOM     17  C   UNL     1       2.973   2.143  19.693  0.00  0.00    +0.000 C 
ATOM     18  C   UNL     1       3.592   2.195  18.268  0.00  0.00    +0.000 C 
ATOM     19  N   UNL     1       3.553   3.593  17.833  0.00  0.00    +0.000 N 
ATOM     20  C   UNL     1       2.176   4.098  17.736  0.00  0.00    +0.000 C 
ATOM     21  C   UNL     1       1.576   4.071  19.165  0.00  0.00    +0.000 C 
ENDBRANCH   1  19
TORSDOF 1
ENDMDL
MODEL 4
REMARK VINA RESULT:      -7.2      1.358      3.672
REMARK  Name = 
REMARK  2 active torsions:
REMARK  status: ('A' for Active; 'I' for Inactive)
REMARK    1  A    between atoms: C_1  and  N_2
REMARK    2  A    between atoms: N_5  and  C_6
REMARK                            x       y       z     vdW  Elec       q    Type
REMARK                         _______ _______ _______ _____ _____    ______ ____
ROOT
ATOM      1  C   UNL     1       3.772   5.605  18.228  0.00  0.00    +0.000 A 
ATOM      2  N   UNL     1       3.326   6.878  18.126  0.00  0.00    +0.000 NA
ATOM      3  C   UNL     1       2.452   7.354  19.030  0.00  0.00    +0.000 A 
ATOM      4  C   UNL     1       2.019   8.672  18.898  0.00  0.00    +0.000 A 
ATOM      5  C   UNL     1       1.136   9.267  19.803  0.00  0.00    +0.000 A 
ATOM      6  C   UNL     1       0.666   8.531  20.877  0.00  0.00    +0.000 A 
ATOM      7  C   UNL     1       1.074   7.207  21.025  0.00  0.00    +0.000 A 
ATOM      8  C   UNL     1       1.965   6.587  20.108  0.00  0.00    +0.000 A 
ATOM      9  C   UNL     1       2.418   5.236  20.220  0.00  0.00    +0.000 A 
ATOM     10  C   UNL     1       1.995   4.351  21.250  0.00  0.00    +0.000 A 
ATOM     11  C   UNL     1       2.478   3.047  21.368  0.00  0.00    +0.000 A 
ATOM     12  C   UNL     1       3.429   2.591  20.479  0.00  0.00    +0.000 A 
ATOM     13  C   UNL     1       3.871   3.439  19.471  0.00  0.00    +0.000 A 
ATOM     14  C   UNL     1       3.353   4.747  19.283  0.00  0.00    +0.000 A 
ENDROOT
BRANCH   1  19
ATOM     15  C   UNL     1       7.302   4.894  14.037  0.00  0.00    +0.000 C 
ATOM     16  N   UNL     1       6.694   4.506  15.309  0.00  0.00    +0.000 NA
ATOM     17  C   UNL     1       5.234   4.266  15.130  0.00  0.00    +0.000 C 
ATOM     18  C   UNL     1       4.466   4.028  16.461  0.00  0.00    +0.000 C 
ATOM     19  N   UNL     1       4.736   5.180  17.325  0.00  0.00    +0.000 N 
ATOM     20  C   UNL     1       6.163   5.295  17.653  0.00  0.00    +0.000 C 
ATOM     21  C   UNL     1       6.919   5.563  16.325  0.00  0.00    +0.000 C 
ENDBRANCH   1  19
TORSDOF 1
ENDMDL
MODEL 5
REMARK VINA RESULT:      -6.9      2.545      6.319
REMARK  Name = 
REMARK  2 active torsions:
REMARK  status: ('A' for Active; 'I' for Inactive)
REMARK    1  A    between atoms: C_1  and  N_2
REMARK    2  A    between atoms: N_5  and  C_6
REMARK                            x       y       z     vdW  Elec       q    Type
REMARK                         _______ _______ _______ _____ _____    ______ ____
ROOT
ATOM      1  C   UNL     1       3.125   6.387  18.211  0.00  0.00    +0.000 A 
ATOM      2  N   UNL     1       4.244   6.799  17.573  0.00  0.00    +0.000 NA
ATOM      3  C   UNL     1       5.005   5.906  16.916  0.00  0.00    +0.000 A 
ATOM      4  C   UNL     1       6.148   6.366  16.265  0.00  0.00    +0.000 A 
ATOM      5  C   UNL     1       6.986   5.522  15.531  0.00  0.00    +0.000 A 
ATOM      6  C   UNL     1       6.682   4.176  15.439  0.00  0.00    +0.000 A 
ATOM      7  C   UNL     1       5.552   3.687  16.092  0.00  0.00    +0.000 A 
ATOM      8  C   UNL     1       4.695   4.533  16.848  0.00  0.00    +0.000 A 
ATOM      9  C   UNL     1       3.522   4.082  17.529  0.00  0.00    +0.000 A 
ATOM     10  C   UNL     1       3.103   2.723  17.553  0.00  0.00    +0.000 A 
ATOM     11  C   UNL     1       1.932   2.307  18.188  0.00  0.00    +0.000 A 
ATOM     12  C   UNL     1       1.121   3.240  18.798  0.00  0.00    +0.000 A 
ATOM     13  C   UNL     1       1.499   4.577  18.779  0.00  0.00    +0.000 A 
ATOM     14  C   UNL     1       2.713   5.026  18.197  0.00  0.00    +0.000 A 
ENDROOT
BRANCH   1  19
ATOM     15  C   UNL     1       0.965  10.799  20.743  0.00  0.00    +0.000 C 
ATOM     16  N   UNL     1       0.867   9.500  20.077  0.00  0.00    +0.000 NA
ATOM     17  C   UNL     1       1.624   8.471  20.845  0.00  0.00    +0.000 C 
ATOM     18  C   UNL     1       1.733   7.098  20.121  0.00  0.00    +0.000 C 
ATOM     19  N   UNL     1       2.324   7.352  18.805  0.00  0.00    +0.000 N 
ATOM     20  C   UNL     1       1.471   8.220  17.981  0.00  0.00    +0.000 C 
ATOM     21  C   UNL     1       1.392   9.596  18.693  0.00  0.00    +0.000 C 
ENDBRANCH   1  19
TORSDOF 1
ENDMDL
MODEL 6
REMARK VINA RESULT:      -6.9      2.762      6.444
REMARK  Name = 
REMARK  2 active torsions:
REMARK  status: ('A' for Active; 'I' for Inactive)
REMARK    1  A    between atoms: C_1  and  N_2
REMARK    2  A    between atoms: N_5  and  C_6
REMARK                            x       y       z     vdW  Elec       q    Type
REMARK                         _______ _______ _______ _____ _____    ______ ____
ROOT
ATOM      1  C   UNL     1       2.720   6.932  18.744  0.00  0.00    +0.000 A 
ATOM      2  N   UNL     1       3.585   7.175  17.732  0.00  0.00    +0.000 NA
ATOM      3  C   UNL     1       4.235   6.152  17.150  0.00  0.00    +0.000 A 
ATOM      4  C   UNL     1       5.115   6.438  16.107  0.00  0.00    +0.000 A 
ATOM      5  C   UNL     1       5.813   5.442  15.419  0.00  0.00    +0.000 A 
ATOM      6  C   UNL     1       5.634   4.117  15.775  0.00  0.00    +0.000 A 
ATOM      7  C   UNL     1       4.771   3.805  16.823  0.00  0.00    +0.000 A 
ATOM      8  C   UNL     1       4.060   4.808  17.537  0.00  0.00    +0.000 A 
ATOM      9  C   UNL     1       3.158   4.539  18.612  0.00  0.00    +0.000 A 
ATOM     10  C   UNL     1       2.901   3.232  19.111  0.00  0.00    +0.000 A 
ATOM     11  C   UNL     1       1.986   2.982  20.135  0.00  0.00    +0.000 A 
ATOM     12  C   UNL     1       1.271   4.029  20.678  0.00  0.00    +0.000 A 
ATOM     13  C   UNL     1       1.492   5.316  20.201  0.00  0.00    +0.000 A 
ATOM     14  C   UNL     1       2.460   5.612  19.206  0.00  0.00    +0.000 A 
ENDROOT
BRANCH   1  19
ATOM     15  C   UNL     1       0.955  11.717  20.871  0.00  0.00    +0.000 C 
ATOM     16  N   UNL     1       0.746  10.366  20.350  0.00  0.00    +0.000 NA
ATOM     17  C   UNL     1       1.468   9.372  21.194  0.00  0.00    +0.000 C 
ATOM     18  C   UNL     1       1.459   7.928  20.616  0.00  0.00    +0.000 C 
ATOM     19  N   UNL     1       2.008   8.005  19.261  0.00  0.00    +0.000 N 
ATOM     20  C   UNL     1       1.178   8.839  18.380  0.00  0.00    +0.000 C 
ATOM     21  C   UNL     1       1.217  10.283  18.946  0.00  0.00    +0.000 C 
ENDBRANCH   1  19
TORSDOF 1
ENDMDL
MODEL 7
REMARK VINA RESULT:      -6.8      1.731      3.900
REMARK  Name = 
REMARK  2 active torsions:
REMARK  status: ('A' for Active; 'I' for Inactive)
REMARK    1  A    between atoms: C_1  and  N_2
REMARK    2  A    between atoms: N_5  and  C_6
REMARK                            x       y       z     vdW  Elec       q    Type
REMARK                         _______ _______ _______ _____ _____    ______ ____
ROOT
ATOM      1  C   UNL     1       3.667   6.265  18.386  0.00  0.00    +0.000 A 
ATOM      2  N   UNL     1       3.108   7.495  18.457  0.00  0.00    +0.000 NA
ATOM      3  C   UNL     1       2.168   7.750  19.383  0.00  0.00    +0.000 A 
ATOM      4  C   UNL     1       1.618   9.029  19.432  0.00  0.00    +0.000 A 
ATOM      5  C   UNL     1       0.658   9.400  20.377  0.00  0.00    +0.000 A 
ATOM      6  C   UNL     1       0.227   8.471  21.308  0.00  0.00    +0.000 A 
ATOM      7  C   UNL     1       0.751   7.180  21.273  0.00  0.00    +0.000 A 
ATOM      8  C   UNL     1       1.722   6.787  20.312  0.00  0.00    +0.000 A 
ATOM      9  C   UNL     1       2.295   5.480  20.241  0.00  0.00    +0.000 A 
ATOM     10  C   UNL     1       1.926   4.414  21.107  0.00  0.00    +0.000 A 
ATOM     11  C   UNL     1       2.524   3.154  21.049  0.00  0.00    +0.000 A 
ATOM     12  C   UNL     1       3.538   2.924  20.144  0.00  0.00    +0.000 A 
ATOM     13  C   UNL     1       3.929   3.952  19.293  0.00  0.00    +0.000 A 
ATOM     14  C   UNL     1       3.298   5.223  19.282  0.00  0.00    +0.000 A 
ENDROOT
BRANCH   1  19
ATOM     15  C   UNL     1       7.195   4.452  14.539  0.00  0.00    +0.000 C 
ATOM     16  N   UNL     1       6.714   5.440  15.506  0.00  0.00    +0.000 NA
ATOM     17  C   UNL     1       6.711   4.856  16.877  0.00  0.00    +0.000 C 
ATOM     18  C   UNL     1       6.044   5.766  17.948  0.00  0.00    +0.000 C 
ATOM     19  N   UNL     1       4.692   6.069  17.472  0.00  0.00    +0.000 N 
ATOM     20  C   UNL     1       4.711   6.816  16.206  0.00  0.00    +0.000 C 
ATOM     21  C   UNL     1       5.350   5.891  15.138  0.00  0.00    +0.000 C 
ENDBRANCH   1  19
TORSDOF 1
ENDMDL
MODEL 8
REMARK VINA RESULT:      -6.7      2.740      5.376
REMARK  Name = 
REMARK  2 active torsions:
REMARK  status: ('A' for Active; 'I' for Inactive)
REMARK    1  A    between atoms: C_1  and  N_2
REMARK    2  A    between atoms: N_5  and  C_6
REMARK                            x       y       z     vdW  Elec       q    Type
REMARK                         _______ _______ _______ _____ _____    ______ ____
ROOT
ATOM      1  C   UNL     1       2.422   6.889  19.193  0.00  0.00    +0.000 A 
ATOM      2  N   UNL     1       1.977   6.083  20.184  0.00  0.00    +0.000 NA
ATOM      3  C   UNL     1       2.477   4.842  20.310  0.00  0.00    +0.000 A 
ATOM      4  C   UNL     1       2.000   4.041  21.346  0.00  0.00    +0.000 A 
ATOM      5  C   UNL     1       2.480   2.748  21.578  0.00  0.00    +0.000 A 
ATOM      6  C   UNL     1       3.465   2.231  20.756  0.00  0.00    +0.000 A 
ATOM      7  C   UNL     1       3.950   3.007  19.705  0.00  0.00    +0.000 A 
ATOM      8  C   UNL     1       3.467   4.319  19.452  0.00  0.00    +0.000 A 
ATOM      9  C   UNL     1       3.937   5.157  18.393  0.00  0.00    +0.000 A 
ATOM     10  C   UNL     1       4.921   4.749  17.450  0.00  0.00    +0.000 A 
ATOM     11  C   UNL     1       5.398   5.593  16.447  0.00  0.00    +0.000 A 
ATOM     12  C   UNL     1       4.931   6.888  16.369  0.00  0.00    +0.000 A 
ATOM     13  C   UNL     1       3.979   7.318  17.286  0.00  0.00    +0.000 A 
ATOM     14  C   UNL     1       3.427   6.467  18.278  0.00  0.00    +0.000 A 
ENDROOT
BRANCH   1  19
ATOM     15  C   UNL     1       1.634  12.358  19.264  0.00  0.00    +0.000 C 
ATOM     16  N   UNL     1       1.179  10.978  19.101  0.00  0.00    +0.000 NA
ATOM     17  C   UNL     1       1.382  10.217  20.366  0.00  0.00    +0.000 C 
ATOM     18  C   UNL     1       1.100   8.692  20.237  0.00  0.00    +0.000 C 
ATOM     19  N   UNL     1       1.941   8.191  19.149  0.00  0.00    +0.000 N 
ATOM     20  C   UNL     1       1.601   8.813  17.862  0.00  0.00    +0.000 C 
ATOM     21  C   UNL     1       1.914  10.327  17.988  0.00  0.00    +0.000 C 
ENDBRANCH   1  19
TORSDOF 1
ENDMDL
MODEL 9
REMARK VINA RESULT:      -6.6      0.803      1.146
REMARK  Name = 
REMARK  2 active torsions:
REMARK  status: ('A' for Active; 'I' for Inactive)
REMARK    1  A    between atoms: C_1  and  N_2
REMARK    2  A    between atoms: N_5  and  C_6
REMARK                            x       y       z     vdW  Elec       q    Type
REMARK                         _______ _______ _______ _____ _____    ______ ____
ROOT
ATOM      1  C   UNL     1       4.543   5.198  18.063  0.00  0.00    +0.000 A 
ATOM      2  N   UNL     1       4.536   4.016  18.723  0.00  0.00    +0.000 NA
ATOM      3  C   UNL     1       3.662   3.815  19.724  0.00  0.00    +0.000 A 
ATOM      4  C   UNL     1       3.679   2.584  20.378  0.00  0.00    +0.000 A 
ATOM      5  C   UNL     1       2.791   2.269  21.409  0.00  0.00    +0.000 A 
ATOM      6  C   UNL     1       1.852   3.204  21.807  0.00  0.00    +0.000 A 
ATOM      7  C   UNL     1       1.822   4.447  21.179  0.00  0.00    +0.000 A 
ATOM      8  C   UNL     1       2.725   4.785  20.134  0.00  0.00    +0.000 A 
ATOM      9  C   UNL     1       2.729   6.042  19.454  0.00  0.00    +0.000 A 
ATOM     10  C   UNL     1       1.848   7.111  19.777  0.00  0.00    +0.000 A 
ATOM     11  C   UNL     1       1.839   8.318  19.077  0.00  0.00    +0.000 A 
ATOM     12  C   UNL     1       2.689   8.488  18.005  0.00  0.00    +0.000 A 
ATOM     13  C   UNL     1       3.552   7.456  17.658  0.00  0.00    +0.000 A 
ATOM     14  C   UNL     1       3.632   6.242  18.389  0.00  0.00    +0.000 A 
ENDROOT
BRANCH   1  19
ATOM     15  C   UNL     1       7.535   4.678  13.447  0.00  0.00    +0.000 C 
ATOM     16  N   UNL     1       7.105   5.394  14.648  0.00  0.00    +0.000 NA
ATOM     17  C   UNL     1       7.430   4.598  15.865  0.00  0.00    +0.000 C 
ATOM     18  C   UNL     1       6.847   5.190  17.180  0.00  0.00    +0.000 C 
ATOM     19  N   UNL     1       5.403   5.334  16.983  0.00  0.00    +0.000 N 
ATOM     20  C   UNL     1       5.090   6.274  15.898  0.00  0.00    +0.000 C 
ATOM     21  C   UNL     1       5.647   5.662  14.586  0.00  0.00    +0.000 C 
ENDBRANCH   1  19
TORSDOF 1
ENDMDL
