MODEL 1
REMARK VINA RESULT:      -7.4      0.000      0.000
REMARK  Name = 
REMARK  8 active torsions:
REMARK  status: ('A' for Active; 'I' for Inactive)
REMARK    1  A    between atoms: C_1  and  C_2
REMARK    2  A    between atoms: C_5  and  C_6
REMARK    3  A    between atoms: N_8  and  C_9
REMARK    4  A    between atoms: C_9  and  C_10
REMARK    5  A    between atoms: N_12  and  C_13
REMARK    6  A    between atoms: C_16  and  C_17
REMARK    7  A    between atoms: N_23  and  C_24
REMARK    8  A    between atoms: C_24  and  C_25
REMARK                            x       y       z     vdW  Elec       q    Type
REMARK                         _______ _______ _______ _____ _____    ______ ____
ROOT
ATOM      1  C   UNL     1       0.727  11.103  20.748  0.00  0.00    +0.000 C 
ATOM      2  C   UNL     1      -0.187  11.029  22.030  0.00  0.00    +0.000 C 
ATOM      3  N   UNL     1      -1.096  12.185  22.306  0.00  0.00    +0.000 N 
ATOM      4  C   UNL     1      -2.334  11.982  23.036  0.00  0.00    +0.000 C 
ATOM      5  C   UNL     1      -1.056  13.368  21.556  0.00  0.00    +0.000 C 
ATOM      6  O   UNL     1      -1.590  14.416  21.912  0.00  0.00    +0.000 OA
ATOM      7  C   UNL     1      -0.554  13.133  20.114  0.00  0.00    +0.000 C 
ATOM      8  N   UNL     1       0.796  12.497  20.246  0.00  0.00    +0.000 NA
ENDROOT
BRANCH   7   9
ATOM      9  C   UNL     1      -1.768  12.456  19.390  0.00  0.00    +0.000 A 
ATOM     10  C   UNL     1      -1.592  11.956  18.091  0.00  0.00    +0.000 A 
ATOM     11  C   UNL     1      -2.666  11.403  17.360  0.00  0.00    +0.000 A 
ATOM     12  C   UNL     1      -3.946  11.323  17.912  0.00  0.00    +0.000 A 
ATOM     13  C   UNL     1      -4.177  11.918  19.132  0.00  0.00    +0.000 A 
ATOM     14  C   UNL     1      -3.119  12.535  19.797  0.00  0.00    +0.000 A 
ENDBRANCH   7   9
BRANCH   1  15
ATOM     15  C   UNL     1       0.587  10.076  19.550  0.00  0.00    +0.000 C 
BRANCH  15  18
ATOM     16  C   UNL     1       2.088   8.517  18.410  0.00  0.00    +0.000 C 
ATOM     17  O   UNL     1       2.171   9.195  17.390  0.00  0.00    +0.000 OA
ATOM     18  N   UNL     1       1.413   8.899  19.562  0.00  0.00    +0.000 N 
ATOM     19  H   UNL     1       1.220   8.129  20.199  0.00  0.00    +0.000 HD
BRANCH  16  24
ATOM     20  C   UNL     1       4.190   3.292  18.492  0.00  0.00    +0.000 C 
ATOM     21  C   UNL     1       3.754   4.720  18.545  0.00  0.00    +0.000 A 
ATOM     22  C   UNL     1       4.113   5.621  17.558  0.00  0.00    +0.000 A 
ATOM     23  N   UNL     1       3.639   6.894  17.503  0.00  0.00    +0.000 NA
ATOM     24  C   UNL     1       2.785   7.215  18.517  0.00  0.00    +0.000 A 
ATOM     25  C   UNL     1       2.465   6.343  19.544  0.00  0.00    +0.000 A 
ATOM     26  N   UNL     1       2.937   5.070  19.582  0.00  0.00    +0.000 NA
ENDBRANCH  16  24
ENDBRANCH  15  18
ENDBRANCH   1  15
BRANCH   8  27
ATOM     27  C   UNL     1       1.789  12.640  19.176  0.00  0.00    +0.000 C 
BRANCH  27  28
ATOM     28  C   UNL     1       2.242  13.984  18.667  0.00  0.00    +0.000 A 
ATOM     29  C   UNL     1       1.558  15.193  18.748  0.00  0.00    +0.000 A 
ATOM     30  C   UNL     1       2.193  16.372  18.336  0.00  0.00    +0.000 A 
ATOM     31  C   UNL     1       3.500  16.314  17.875  0.00  0.00    +0.000 A 
ATOM     32  N   UNL     1       4.210  15.174  17.814  0.00  0.00    +0.000 NA
ATOM     33  C   UNL     1       3.571  14.052  18.218  0.00  0.00    +0.000 A 
ENDBRANCH  27  28
ENDBRANCH   8  27
TORSDOF 6
ENDMDL
MODEL 2
REMARK VINA RESULT:      -7.3      0.912      1.219
REMARK  Name = 
REMARK  8 active torsions:
REMARK  status: ('A' for Active; 'I' for Inactive)
REMARK    1  A    between atoms: C_1  and  C_2
REMARK    2  A    between atoms: C_5  and  C_6
REMARK    3  A    between atoms: N_8  and  C_9
REMARK    4  A    between atoms: C_9  and  C_10
REMARK    5  A    between atoms: N_12  and  C_13
REMARK    6  A    between atoms: C_16  and  C_17
REMARK    7  A    between atoms: N_23  and  C_24
REMARK    8  A    between atoms: C_24  and  C_25
REMARK                            x       y       z     vdW  Elec       q    Type
REMARK                         _______ _______ _______ _____ _____    ______ ____
ROOT
ATOM      1  C   UNL     1       0.627  10.986  21.000  0.00  0.00    +0.000 C 
ATOM      2  C   UNL     1      -0.328  10.958  22.254  0.00  0.00    +0.000 C 
ATOM      3  N   UNL     1      -1.177  12.164  22.511  0.00  0.00    +0.000 N 
ATOM      4  C   UNL     1      -2.445  12.028  23.203  0.00  0.00    +0.000 C 
ATOM      5  C   UNL     1      -1.047  13.346  21.770  0.00  0.00    +0.000 C 
ATOM      6  O   UNL     1      -1.530  14.421  22.116  0.00  0.00    +0.000 OA
ATOM      7  C   UNL     1      -0.516  13.089  20.342  0.00  0.00    +0.000 C 
ATOM      8  N   UNL     1       0.790  12.376  20.509  0.00  0.00    +0.000 NA
ENDROOT
BRANCH   7   9
ATOM      9  C   UNL     1      -1.744  12.487  19.578  0.00  0.00    +0.000 A 
ATOM     10  C   UNL     1      -1.558  11.976  18.285  0.00  0.00    +0.000 A 
ATOM     11  C   UNL     1      -2.638  11.489  17.518  0.00  0.00    +0.000 A 
ATOM     12  C   UNL     1      -3.938  11.487  18.029  0.00  0.00    +0.000 A 
ATOM     13  C   UNL     1      -4.172  12.095  19.241  0.00  0.00    +0.000 A 
ATOM     14  C   UNL     1      -3.101  12.647  19.941  0.00  0.00    +0.000 A 
ENDBRANCH   7   9
BRANCH   1  15
ATOM     15  C   UNL     1       0.464   9.974  19.793  0.00  0.00    +0.000 C 
BRANCH  15  18
ATOM     16  C   UNL     1       1.967   8.588  18.450  0.00  0.00    +0.000 C 
ATOM     17  O   UNL     1       1.856   9.279  17.441  0.00  0.00    +0.000 OA
ATOM     18  N   UNL     1       1.401   8.889  19.682  0.00  0.00    +0.000 N 
ATOM     19  H   UNL     1       1.366   8.098  20.322  0.00  0.00    +0.000 HD
BRANCH  16  24
ATOM     20  C   UNL     1       5.607   4.303  18.787  0.00  0.00    +0.000 C 
ATOM     21  C   UNL     1       4.554   5.349  18.620  0.00  0.00    +0.000 A 
ATOM     22  C   UNL     1       3.516   5.480  19.526  0.00  0.00    +0.000 A 
ATOM     23  N   UNL     1       2.609   6.491  19.478  0.00  0.00    +0.000 NA
ATOM     24  C   UNL     1       2.801   7.364  18.447  0.00  0.00    +0.000 A 
ATOM     25  C   UNL     1       3.798   7.210  17.498  0.00  0.00    +0.000 A 
ATOM     26  N   UNL     1       4.704   6.201  17.563  0.00  0.00    +0.000 NA
ENDBRANCH  16  24
ENDBRANCH  15  18
ENDBRANCH   1  15
BRANCH   8  27
ATOM     27  C   UNL     1       1.822  12.467  19.470  0.00  0.00    +0.000 C 
BRANCH  27  28
ATOM     28  C   UNL     1       2.595  13.732  19.207  0.00  0.00    +0.000 A 
ATOM     29  C   UNL     1       2.647  14.461  18.021  0.00  0.00    +0.000 A 
ATOM     30  C   UNL     1       3.318  15.691  17.998  0.00  0.00    +0.000 A 
ATOM     31  C   UNL     1       3.899  16.169  19.163  0.00  0.00    +0.000 A 
ATOM     32  N   UNL     1       3.843  15.516  20.337  0.00  0.00    +0.000 NA
ATOM     33  C   UNL     1       3.190  14.332  20.328  0.00  0.00    +0.000 A 
ENDBRANCH  27  28
ENDBRANCH   8  27
TORSDOF 6
ENDMDL
MODEL 3
REMARK VINA RESULT:      -7.3      2.251      4.783
REMARK  Name = 
REMARK  8 active torsions:
REMARK  status: ('A' for Active; 'I' for Inactive)
REMARK    1  A    between atoms: C_1  and  C_2
REMARK    2  A    between atoms: C_5  and  C_6
REMARK    3  A    between atoms: N_8  and  C_9
REMARK    4  A    between atoms: C_9  and  C_10
REMARK    5  A    between atoms: N_12  and  C_13
REMARK    6  A    between atoms: C_16  and  C_17
REMARK    7  A    between atoms: N_23  and  C_24
REMARK    8  A    between atoms: C_24  and  C_25
REMARK                            x       y       z     vdW  Elec       q    Type
REMARK                         _______ _______ _______ _____ _____    ______ ____
ROOT
ATOM      1  C   UNL     1       1.211  10.527  18.288  0.00  0.00    +0.000 C 
ATOM      2  C   UNL     1       2.020  11.731  18.905  0.00  0.00    +0.000 C 
ATOM      3  N   UNL     1       1.246  12.807  19.600  0.00  0.00    +0.000 N 
ATOM      4  C   UNL     1       1.863  13.577  20.665  0.00  0.00    +0.000 C 
ATOM      5  C   UNL     1      -0.154  12.850  19.593  0.00  0.00    +0.000 C 
ATOM      6  O   UNL     1      -0.804  13.840  19.918  0.00  0.00    +0.000 OA
ATOM      7  C   UNL     1      -0.784  11.448  19.443  0.00  0.00    +0.000 C 
ATOM      8  N   UNL     1      -0.226  10.878  18.176  0.00  0.00    +0.000 NA
ENDROOT
BRANCH   7   9
ATOM      9  C   UNL     1      -0.593  10.788  20.852  0.00  0.00    +0.000 A 
ATOM     10  C   UNL     1      -0.304   9.418  20.928  0.00  0.00    +0.000 A 
ATOM     11  C   UNL     1      -0.195   8.753  22.168  0.00  0.00    +0.000 A 
ATOM     12  C   UNL     1      -0.360   9.443  23.371  0.00  0.00    +0.000 A 
ATOM     13  C   UNL     1      -0.767  10.757  23.328  0.00  0.00    +0.000 A 
ATOM     14  C   UNL     1      -0.953  11.369  22.089  0.00  0.00    +0.000 A 
ENDBRANCH   7   9
BRANCH   1  15
ATOM     15  C   UNL     1       1.392   9.038  18.795  0.00  0.00    +0.000 C 
BRANCH  15  18
ATOM     16  C   UNL     1       2.714   6.988  18.610  0.00  0.00    +0.000 C 
ATOM     17  O   UNL     1       2.355   6.546  19.698  0.00  0.00    +0.000 OA
ATOM     18  N   UNL     1       2.233   8.156  18.032  0.00  0.00    +0.000 N 
ATOM     19  H   UNL     1       2.815   8.509  17.276  0.00  0.00    +0.000 HD
BRANCH  16  24
ATOM     20  C   UNL     1       5.883   4.133  14.933  0.00  0.00    +0.000 C 
ATOM     21  C   UNL     1       5.158   4.884  16.001  0.00  0.00    +0.000 A 
ATOM     22  C   UNL     1       5.231   6.263  16.091  0.00  0.00    +0.000 A 
ATOM     23  N   UNL     1       4.493   6.992  16.968  0.00  0.00    +0.000 NA
ATOM     24  C   UNL     1       3.679   6.245  17.768  0.00  0.00    +0.000 A 
ATOM     25  C   UNL     1       3.641   4.862  17.731  0.00  0.00    +0.000 A 
ATOM     26  N   UNL     1       4.376   4.145  16.841  0.00  0.00    +0.000 NA
ENDBRANCH  16  24
ENDBRANCH  15  18
ENDBRANCH   1  15
BRANCH   8  27
ATOM     27  C   UNL     1      -0.976   9.863  17.427  0.00  0.00    +0.000 C 
BRANCH  27  28
ATOM     28  C   UNL     1      -2.289  10.161  16.752  0.00  0.00    +0.000 A 
ATOM     29  C   UNL     1      -3.386  10.826  17.293  0.00  0.00    +0.000 A 
ATOM     30  C   UNL     1      -4.480  11.130  16.472  0.00  0.00    +0.000 A 
ATOM     31  C   UNL     1      -4.439  10.782  15.130  0.00  0.00    +0.000 A 
ATOM     32  N   UNL     1      -3.386  10.171  14.558  0.00  0.00    +0.000 NA
ATOM     33  C   UNL     1      -2.346   9.890  15.376  0.00  0.00    +0.000 A 
ENDBRANCH  27  28
ENDBRANCH   8  27
TORSDOF 6
ENDMDL
MODEL 4
REMARK VINA RESULT:      -7.1      1.044      1.338
REMARK  Name = 
REMARK  8 active torsions:
REMARK  status: ('A' for Active; 'I' for Inactive)
REMARK    1  A    between atoms: C_1  and  C_2
REMARK    2  A    between atoms: C_5  and  C_6
REMARK    3  A    between atoms: N_8  and  C_9
REMARK    4  A    between atoms: C_9  and  C_10
REMARK    5  A    between atoms: N_12  and  C_13
REMARK    6  A    between atoms: C_16  and  C_17
REMARK    7  A    between atoms: N_23  and  C_24
REMARK    8  A    between atoms: C_24  and  C_25
REMARK                            x       y       z     vdW  Elec       q    Type
REMARK                         _______ _______ _______ _____ _____    ______ ____
ROOT
ATOM      1  C   UNL     1       0.873  11.235  20.441  0.00  0.00    +0.000 C 
ATOM      2  C   UNL     1      -0.057  11.197  21.714  0.00  0.00    +0.000 C 
ATOM      3  N   UNL     1      -1.148  12.217  21.812  0.00  0.00    +0.000 N 
ATOM      4  C   UNL     1      -2.359  11.921  22.555  0.00  0.00    +0.000 C 
ATOM      5  C   UNL     1      -1.274  13.271  20.897  0.00  0.00    +0.000 C 
ATOM      6  O   UNL     1      -1.980  14.258  21.092  0.00  0.00    +0.000 OA
ATOM      7  C   UNL     1      -0.697  12.917  19.509  0.00  0.00    +0.000 C 
ATOM      8  N   UNL     1       0.733  12.536  19.742  0.00  0.00    +0.000 NA
ENDROOT
BRANCH   7   9
ATOM      9  C   UNL     1      -1.763  11.956  18.882  0.00  0.00    +0.000 A 
ATOM     10  C   UNL     1      -1.365  11.058  17.881  0.00  0.00    +0.000 A 
ATOM     11  C   UNL     1      -2.293  10.219  17.227  0.00  0.00    +0.000 A 
ATOM     12  C   UNL     1      -3.648  10.246  17.565  0.00  0.00    +0.000 A 
ATOM     13  C   UNL     1      -4.088  11.201  18.452  0.00  0.00    +0.000 A 
ATOM     14  C   UNL     1      -3.165  12.077  19.020  0.00  0.00    +0.000 A 
ENDBRANCH   7   9
BRANCH   1  15
ATOM     15  C   UNL     1       0.936  10.039  19.406  0.00  0.00    +0.000 C 
BRANCH  15  18
ATOM     16  C   UNL     1       2.154   7.965  18.960  0.00  0.00    +0.000 C 
ATOM     17  O   UNL     1       2.493   8.296  17.828  0.00  0.00    +0.000 OA
ATOM     18  N   UNL     1       1.468   8.779  19.851  0.00  0.00    +0.000 N 
ATOM     19  H   UNL     1       1.041   8.273  20.625  0.00  0.00    +0.000 HD
BRANCH  16  24
ATOM     20  C   UNL     1       3.091   2.659  20.601  0.00  0.00    +0.000 C 
ATOM     21  C   UNL     1       2.941   4.107  20.269  0.00  0.00    +0.000 A 
ATOM     22  C   UNL     1       3.751   4.720  19.328  0.00  0.00    +0.000 A 
ATOM     23  N   UNL     1       3.569   6.000  18.910  0.00  0.00    +0.000 NA
ATOM     24  C   UNL     1       2.522   6.639  19.508  0.00  0.00    +0.000 A 
ATOM     25  C   UNL     1       1.743   6.058  20.494  0.00  0.00    +0.000 A 
ATOM     26  N   UNL     1       1.928   4.774  20.896  0.00  0.00    +0.000 NA
ENDBRANCH  16  24
ENDBRANCH  15  18
ENDBRANCH   1  15
BRANCH   8  27
ATOM     27  C   UNL     1       1.723  12.685  18.670  0.00  0.00    +0.000 C 
BRANCH  27  28
ATOM     28  C   UNL     1       2.569  13.921  18.516  0.00  0.00    +0.000 A 
ATOM     29  C   UNL     1       3.889  13.994  18.080  0.00  0.00    +0.000 A 
ATOM     30  C   UNL     1       4.477  15.250  17.874  0.00  0.00    +0.000 A 
ATOM     31  C   UNL     1       3.724  16.395  18.087  0.00  0.00    +0.000 A 
ATOM     32  N   UNL     1       2.436  16.370  18.473  0.00  0.00    +0.000 NA
ATOM     33  C   UNL     1       1.897  15.145  18.665  0.00  0.00    +0.000 A 
ENDBRANCH  27  28
ENDBRANCH   8  27
TORSDOF 6
ENDMDL
MODEL 5
REMARK VINA RESULT:      -7.0      2.182      4.804
REMARK  Name = 
REMARK  8 active torsions:
REMARK  status: ('A' for Active; 'I' for Inactive)
REMARK    1  A    between atoms: C_1  and  C_2
REMARK    2  A    between atoms: C_5  and  C_6
REMARK    3  A    between atoms: N_8  and  C_9
REMARK    4  A    between atoms: C_9  and  C_10
REMARK    5  A    between atoms: N_12  and  C_13
REMARK    6  A    between atoms: C_16  and  C_17
REMARK    7  A    between atoms: N_23  and  C_24
REMARK    8  A    between atoms: C_24  and  C_25
REMARK                            x       y       z     vdW  Elec       q    Type
REMARK                         _______ _______ _______ _____ _____    ______ ____
ROOT
ATOM      1  C   UNL     1       1.245  10.638  18.305  0.00  0.00    +0.000 C 
ATOM      2  C   UNL     1       2.100  11.781  18.974  0.00  0.00    +0.000 C 
ATOM      3  N   UNL     1       1.370  12.851  19.723  0.00  0.00    +0.000 N 
ATOM      4  C   UNL     1       2.018  13.545  20.821  0.00  0.00    +0.000 C 
ATOM      5  C   UNL     1      -0.028  12.945  19.726  0.00  0.00    +0.000 C 
ATOM      6  O   UNL     1      -0.640  13.942  20.101  0.00  0.00    +0.000 OA
ATOM      7  C   UNL     1      -0.710  11.576  19.513  0.00  0.00    +0.000 C 
ATOM      8  N   UNL     1      -0.178  11.047  18.217  0.00  0.00    +0.000 NA
ENDROOT
BRANCH   7   9
ATOM      9  C   UNL     1      -0.539  10.843  20.888  0.00  0.00    +0.000 A 
ATOM     10  C   UNL     1      -0.318   9.458  20.898  0.00  0.00    +0.000 A 
ATOM     11  C   UNL     1      -0.230   8.732  22.105  0.00  0.00    +0.000 A 
ATOM     12  C   UNL     1      -0.348   9.373  23.340  0.00  0.00    +0.000 A 
ATOM     13  C   UNL     1      -0.689  10.706  23.362  0.00  0.00    +0.000 A 
ATOM     14  C   UNL     1      -0.857  11.384  22.155  0.00  0.00    +0.000 A 
ENDBRANCH   7   9
BRANCH   1  15
ATOM     15  C   UNL     1       1.374   9.121  18.740  0.00  0.00    +0.000 C 
BRANCH  15  18
ATOM     16  C   UNL     1       2.735   7.099  18.538  0.00  0.00    +0.000 C 
ATOM     17  O   UNL     1       2.388   6.643  19.623  0.00  0.00    +0.000 OA
ATOM     18  N   UNL     1       2.230   8.261  17.969  0.00  0.00    +0.000 N 
ATOM     19  H   UNL     1       2.803   8.631  17.214  0.00  0.00    +0.000 HD
BRANCH  16  24
ATOM     20  C   UNL     1       6.928   4.537  15.785  0.00  0.00    +0.000 C 
ATOM     21  C   UNL     1       5.728   5.177  16.402  0.00  0.00    +0.000 A 
ATOM     22  C   UNL     1       4.878   4.469  17.234  0.00  0.00    +0.000 A 
ATOM     23  N   UNL     1       3.848   5.042  17.910  0.00  0.00    +0.000 NA
ATOM     24  C   UNL     1       3.713   6.382  17.688  0.00  0.00    +0.000 A 
ATOM     25  C   UNL     1       4.518   7.091  16.812  0.00  0.00    +0.000 A 
ATOM     26  N   UNL     1       5.551   6.508  16.150  0.00  0.00    +0.000 NA
ENDBRANCH  16  24
ENDBRANCH  15  18
ENDBRANCH   1  15
BRANCH   8  27
ATOM     27  C   UNL     1      -0.968  10.096  17.425  0.00  0.00    +0.000 C 
BRANCH  27  28
ATOM     28  C   UNL     1      -2.396  10.363  17.030  0.00  0.00    +0.000 A 
ATOM     29  C   UNL     1      -3.513  10.388  17.862  0.00  0.00    +0.000 A 
ATOM     30  C   UNL     1      -4.751  10.785  17.339  0.00  0.00    +0.000 A 
ATOM     31  C   UNL     1      -4.835  11.166  16.008  0.00  0.00    +0.000 A 
ATOM     32  N   UNL     1      -3.777  11.192  15.180  0.00  0.00    +0.000 NA
ATOM     33  C   UNL     1      -2.596  10.803  15.712  0.00  0.00    +0.000 A 
ENDBRANCH  27  28
ENDBRANCH   8  27
TORSDOF 6
ENDMDL
MODEL 6
REMARK VINA RESULT:      -6.8      1.968      4.730
REMARK  Name = 
REMARK  8 active torsions:
REMARK  status: ('A' for Active; 'I' for Inactive)
REMARK    1  A    between atoms: C_1  and  C_2
REMARK    2  A    between atoms: C_5  and  C_6
REMARK    3  A    between atoms: N_8  and  C_9
REMARK    4  A    between atoms: C_9  and  C_10
REMARK    5  A    between atoms: N_12  and  C_13
REMARK    6  A    between atoms: C_16  and  C_17
REMARK    7  A    between atoms: N_23  and  C_24
REMARK    8  A    between atoms: C_24  and  C_25
REMARK                            x       y       z     vdW  Elec       q    Type
REMARK                         _______ _______ _______ _____ _____    ______ ____
ROOT
ATOM      1  C   UNL     1       1.133  11.708  18.986  0.00  0.00    +0.000 C 
ATOM      2  C   UNL     1       2.087  12.940  19.226  0.00  0.00    +0.000 C 
ATOM      3  N   UNL     1       1.474  14.306  19.238  0.00  0.00    +0.000 N 
ATOM      4  C   UNL     1       2.084  15.373  20.009  0.00  0.00    +0.000 C 
ATOM      5  C   UNL     1       0.132  14.528  18.905  0.00  0.00    +0.000 C 
ATOM      6  O   UNL     1      -0.329  15.639  18.651  0.00  0.00    +0.000 OA
ATOM      7  C   UNL     1      -0.759  13.301  19.200  0.00  0.00    +0.000 C 
ATOM      8  N   UNL     1      -0.163  12.165  18.427  0.00  0.00    +0.000 NA
ENDROOT
BRANCH   7   9
ATOM      9  C   UNL     1      -0.917  13.306  20.758  0.00  0.00    +0.000 A 
ATOM     10  C   UNL     1      -1.635  12.269  21.373  0.00  0.00    +0.000 A 
ATOM     11  C   UNL     1      -1.875  12.258  22.764  0.00  0.00    +0.000 A 
ATOM     12  C   UNL     1      -1.391  13.280  23.584  0.00  0.00    +0.000 A 
ATOM     13  C   UNL     1      -0.793  14.371  22.997  0.00  0.00    +0.000 A 
ATOM     14  C   UNL     1      -0.645  14.400  21.611  0.00  0.00    +0.000 A 
ENDBRANCH   7   9
BRANCH   1  15
ATOM     15  C   UNL     1       0.915  10.583  20.078  0.00  0.00    +0.000 C 
BRANCH  15  18
ATOM     16  C   UNL     1       1.420   8.282  20.736  0.00  0.00    +0.000 C 
ATOM     17  O   UNL     1       1.167   8.465  21.923  0.00  0.00    +0.000 OA
ATOM     18  N   UNL     1       1.244   9.226  19.733  0.00  0.00    +0.000 N 
ATOM     19  H   UNL     1       1.742   9.009  18.872  0.00  0.00    +0.000 HD
BRANCH  16  24
ATOM     20  C   UNL     1       3.819   3.417  19.218  0.00  0.00    +0.000 C 
ATOM     21  C   UNL     1       3.063   4.663  19.544  0.00  0.00    +0.000 A 
ATOM     22  C   UNL     1       2.251   4.744  20.662  0.00  0.00    +0.000 A 
ATOM     23  N   UNL     1       1.644   5.893  21.060  0.00  0.00    +0.000 NA
ATOM     24  C   UNL     1       1.894   6.964  20.254  0.00  0.00    +0.000 A 
ATOM     25  C   UNL     1       2.654   6.883  19.099  0.00  0.00    +0.000 A 
ATOM     26  N   UNL     1       3.264   5.731  18.717  0.00  0.00    +0.000 NA
ENDBRANCH  16  24
ENDBRANCH  15  18
ENDBRANCH   1  15
BRANCH   8  27
ATOM     27  C   UNL     1      -1.001  11.035  18.007  0.00  0.00    +0.000 C 
BRANCH  27  28
ATOM     28  C   UNL     1      -2.369  11.222  17.408  0.00  0.00    +0.000 A 
ATOM     29  C   UNL     1      -2.764  10.952  16.100  0.00  0.00    +0.000 A 
ATOM     30  C   UNL     1      -4.117  11.064  15.753  0.00  0.00    +0.000 A 
ATOM     31  C   UNL     1      -5.040  11.422  16.724  0.00  0.00    +0.000 A 
ATOM     32  N   UNL     1      -4.708  11.658  18.006  0.00  0.00    +0.000 NA
ATOM     33  C   UNL     1      -3.395  11.542  18.311  0.00  0.00    +0.000 A 
ENDBRANCH  27  28
ENDBRANCH   8  27
TORSDOF 6
ENDMDL
MODEL 7
REMARK VINA RESULT:      -6.7      2.205      4.933
REMARK  Name = 
REMARK  8 active torsions:
REMARK  status: ('A' for Active; 'I' for Inactive)
REMARK    1  A    between atoms: C_1  and  C_2
REMARK    2  A    between atoms: C_5  and  C_6
REMARK    3  A    between atoms: N_8  and  C_9
REMARK    4  A    between atoms: C_9  and  C_10
REMARK    5  A    between atoms: N_12  and  C_13
REMARK    6  A    between atoms: C_16  and  C_17
REMARK    7  A    between atoms: N_23  and  C_24
REMARK    8  A    between atoms: C_24  and  C_25
REMARK                            x       y       z     vdW  Elec       q    Type
REMARK                         _______ _______ _______ _____ _____    ______ ____
ROOT
ATOM      1  C   UNL     1       1.304  10.409  18.250  0.00  0.00    +0.000 C 
ATOM      2  C   UNL     1       2.286  11.476  18.869  0.00  0.00    +0.000 C 
ATOM      3  N   UNL     1       1.687  12.609  19.642  0.00  0.00    +0.000 N 
ATOM      4  C   UNL     1       2.444  13.249  20.702  0.00  0.00    +0.000 C 
ATOM      5  C   UNL     1       0.304  12.825  19.709  0.00  0.00    +0.000 C 
ATOM      6  O   UNL     1      -0.201  13.873  20.104  0.00  0.00    +0.000 OA
ATOM      7  C   UNL     1      -0.504  11.519  19.540  0.00  0.00    +0.000 C 
ATOM      8  N   UNL     1      -0.081  10.940  18.225  0.00  0.00    +0.000 NA
ENDROOT
BRANCH   7   9
ATOM      9  C   UNL     1      -0.332  10.781  20.912  0.00  0.00    +0.000 A 
ATOM     10  C   UNL     1      -1.085  11.210  22.015  0.00  0.00    +0.000 A 
ATOM     11  C   UNL     1      -0.920  10.634  23.293  0.00  0.00    +0.000 A 
ATOM     12  C   UNL     1      -0.004   9.601  23.503  0.00  0.00    +0.000 A 
ATOM     13  C   UNL     1       0.836   9.244  22.472  0.00  0.00    +0.000 A 
ATOM     14  C   UNL     1       0.714   9.889  21.242  0.00  0.00    +0.000 A 
ENDBRANCH   7   9
BRANCH   1  15
ATOM     15  C   UNL     1       1.321   8.889  18.692  0.00  0.00    +0.000 C 
BRANCH  15  18
ATOM     16  C   UNL     1       2.734   6.899  18.849  0.00  0.00    +0.000 C 
ATOM     17  O   UNL     1       2.170   6.461  19.848  0.00  0.00    +0.000 OA
ATOM     18  N   UNL     1       2.341   8.032  18.150  0.00  0.00    +0.000 N 
ATOM     19  H   UNL     1       3.056   8.399  17.525  0.00  0.00    +0.000 HD
BRANCH  16  24
ATOM     20  C   UNL     1       7.520   4.594  16.976  0.00  0.00    +0.000 C 
ATOM     21  C   UNL     1       6.179   5.115  17.379  0.00  0.00    +0.000 A 
ATOM     22  C   UNL     1       5.454   4.529  18.402  0.00  0.00    +0.000 A 
ATOM     23  N   UNL     1       4.290   5.044  18.879  0.00  0.00    +0.000 NA
ATOM     24  C   UNL     1       3.887   6.187  18.253  0.00  0.00    +0.000 A 
ATOM     25  C   UNL     1       4.571   6.749  17.188  0.00  0.00    +0.000 A 
ATOM     26  N   UNL     1       5.739   6.231  16.727  0.00  0.00    +0.000 NA
ENDBRANCH  16  24
ENDBRANCH  15  18
ENDBRANCH   1  15
BRANCH   8  27
ATOM     27  C   UNL     1      -0.987  10.058  17.479  0.00  0.00    +0.000 C 
BRANCH  27  28
ATOM     28  C   UNL     1      -2.286  10.544  16.891  0.00  0.00    +0.000 A 
ATOM     29  C   UNL     1      -2.742  10.366  15.588  0.00  0.00    +0.000 A 
ATOM     30  C   UNL     1      -4.040  10.775  15.252  0.00  0.00    +0.000 A 
ATOM     31  C   UNL     1      -4.851  11.331  16.230  0.00  0.00    +0.000 A 
ATOM     32  N   UNL     1      -4.463  11.489  17.508  0.00  0.00    +0.000 NA
ATOM     33  C   UNL     1      -3.207  11.085  17.802  0.00  0.00    +0.000 A 
ENDBRANCH  27  28
ENDBRANCH   8  27
TORSDOF 6
ENDMDL
MODEL 8
REMARK VINA RESULT:      -6.6      0.699      1.095
REMARK  Name = 
REMARK  8 active torsions:
REMARK  status: ('A' for Active; 'I' for Inactive)
REMARK    1  A    between atoms: C_1  and  C_2
REMARK    2  A    between atoms: C_5  and  C_6
REMARK    3  A    between atoms: N_8  and  C_9
REMARK    4  A    between atoms: C_9  and  C_10
REMARK    5  A    between atoms: N_12  and  C_13
REMARK    6  A    between atoms: C_16  and  C_17
REMARK    7  A    between atoms: N_23  and  C_24
REMARK    8  A    between atoms: C_24  and  C_25
REMARK                            x       y       z     vdW  Elec       q    Type
REMARK                         _______ _______ _______ _____ _____    ______ ____
ROOT
ATOM      1  C   UNL     1       0.611  11.044  21.027  0.00  0.00    +0.000 C 
ATOM      2  C   UNL     1      -0.369  10.917  22.256  0.00  0.00    +0.000 C 
ATOM      3  N   UNL     1      -1.220  12.101  22.594  0.00  0.00    +0.000 N 
ATOM      4  C   UNL     1      -2.503  11.915  23.247  0.00  0.00    +0.000 C 
ATOM      5  C   UNL     1      -1.072  13.339  21.956  0.00  0.00    +0.000 C 
ATOM      6  O   UNL     1      -1.559  14.385  22.381  0.00  0.00    +0.000 OA
ATOM      7  C   UNL     1      -0.513  13.200  20.523  0.00  0.00    +0.000 C 
ATOM      8  N   UNL     1       0.788  12.469  20.657  0.00  0.00    +0.000 NA
ENDROOT
BRANCH   7   9
ATOM      9  C   UNL     1      -1.727  12.668  19.687  0.00  0.00    +0.000 A 
ATOM     10  C   UNL     1      -3.021  12.783  20.217  0.00  0.00    +0.000 A 
ATOM     11  C   UNL     1      -4.145  12.257  19.545  0.00  0.00    +0.000 A 
ATOM     12  C   UNL     1      -4.009  11.610  18.315  0.00  0.00    +0.000 A 
ATOM     13  C   UNL     1      -2.743  11.371  17.831  0.00  0.00    +0.000 A 
ATOM     14  C   UNL     1      -1.642  11.824  18.556  0.00  0.00    +0.000 A 
ENDBRANCH   7   9
BRANCH   1  15
ATOM     15  C   UNL     1       0.470  10.136  19.737  0.00  0.00    +0.000 C 
BRANCH  15  18
ATOM     16  C   UNL     1       1.990   8.770  18.395  0.00  0.00    +0.000 C 
ATOM     17  O   UNL     1       2.003   9.548  17.445  0.00  0.00    +0.000 OA
ATOM     18  N   UNL     1       1.345   9.004  19.602  0.00  0.00    +0.000 N 
ATOM     19  H   UNL     1       1.211   8.166  20.165  0.00  0.00    +0.000 HD
BRANCH  16  24
ATOM     20  C   UNL     1       4.374   3.705  17.775  0.00  0.00    +0.000 C 
ATOM     21  C   UNL     1       3.852   5.079  18.034  0.00  0.00    +0.000 A 
ATOM     22  C   UNL     1       4.268   6.164  17.282  0.00  0.00    +0.000 A 
ATOM     23  N   UNL     1       3.729   7.406  17.404  0.00  0.00    +0.000 NA
ATOM     24  C   UNL     1       2.746   7.497  18.346  0.00  0.00    +0.000 A 
ATOM     25  C   UNL     1       2.363   6.435  19.148  0.00  0.00    +0.000 A 
ATOM     26  N   UNL     1       2.902   5.197  19.009  0.00  0.00    +0.000 NA
ENDBRANCH  16  24
ENDBRANCH  15  18
ENDBRANCH   1  15
BRANCH   8  27
ATOM     27  C   UNL     1       1.841  12.641  19.650  0.00  0.00    +0.000 C 
BRANCH  27  28
ATOM     28  C   UNL     1       2.491  13.972  19.379  0.00  0.00    +0.000 A 
ATOM     29  C   UNL     1       2.867  14.935  20.311  0.00  0.00    +0.000 A 
ATOM     30  C   UNL     1       3.583  16.063  19.886  0.00  0.00    +0.000 A 
ATOM     31  C   UNL     1       3.919  16.187  18.546  0.00  0.00    +0.000 A 
ATOM     32  N   UNL     1       3.608  15.265  17.618  0.00  0.00    +0.000 NA
ATOM     33  C   UNL     1       2.918  14.189  18.058  0.00  0.00    +0.000 A 
ENDBRANCH  27  28
ENDBRANCH   8  27
TORSDOF 6
ENDMDL
MODEL 9
REMARK VINA RESULT:      -6.6      2.285      4.912
REMARK  Name = 
REMARK  8 active torsions:
REMARK  status: ('A' for Active; 'I' for Inactive)
REMARK    1  A    between atoms: C_1  and  C_2
REMARK    2  A    between atoms: C_5  and  C_6
REMARK    3  A    between atoms: N_8  and  C_9
REMARK    4  A    between atoms: C_9  and  C_10
REMARK    5  A    between atoms: N_12  and  C_13
REMARK    6  A    between atoms: C_16  and  C_17
REMARK    7  A    between atoms: N_23  and  C_24
REMARK    8  A    between atoms: C_24  and  C_25
REMARK                            x       y       z     vdW  Elec       q    Type
REMARK                         _______ _______ _______ _____ _____    ______ ____
ROOT
ATOM      1  C   UNL     1       1.192  10.399  18.109  0.00  0.00    +0.000 C 
ATOM      2  C   UNL     1       2.086  11.561  18.688  0.00  0.00    +0.000 C 
ATOM      3  N   UNL     1       1.409  12.628  19.490  0.00  0.00    +0.000 N 
ATOM      4  C   UNL     1       2.143  13.343  20.518  0.00  0.00    +0.000 C 
ATOM      5  C   UNL     1       0.016  12.701  19.618  0.00  0.00    +0.000 C 
ATOM      6  O   UNL     1      -0.576  13.693  20.038  0.00  0.00    +0.000 OA
ATOM      7  C   UNL     1      -0.661  11.320  19.480  0.00  0.00    +0.000 C 
ATOM      8  N   UNL     1      -0.240  10.785  18.146  0.00  0.00    +0.000 NA
ENDROOT
BRANCH   7   9
ATOM      9  C   UNL     1      -0.356  10.605  20.840  0.00  0.00    +0.000 A 
ATOM     10  C   UNL     1      -1.030  11.024  21.997  0.00  0.00    +0.000 A 
ATOM     11  C   UNL     1      -0.744  10.469  23.262  0.00  0.00    +0.000 A 
ATOM     12  C   UNL     1       0.218   9.467  23.407  0.00  0.00    +0.000 A 
ATOM     13  C   UNL     1       0.983   9.124  22.316  0.00  0.00    +0.000 A 
ATOM     14  C   UNL     1       0.741   9.749  21.093  0.00  0.00    +0.000 A 
ENDBRANCH   7   9
BRANCH   1  15
ATOM     15  C   UNL     1       1.383   8.888  18.545  0.00  0.00    +0.000 C 
BRANCH  15  18
ATOM     16  C   UNL     1       2.766   6.898  18.219  0.00  0.00    +0.000 C 
ATOM     17  O   UNL     1       1.810   6.135  18.114  0.00  0.00    +0.000 OA
ATOM     18  N   UNL     1       2.668   8.277  18.341  0.00  0.00    +0.000 N 
ATOM     19  H   UNL     1       3.520   8.721  18.680  0.00  0.00    +0.000 HD
BRANCH  16  24
ATOM     20  C   UNL     1       7.794   4.431  17.626  0.00  0.00    +0.000 C 
ATOM     21  C   UNL     1       6.530   5.190  17.863  0.00  0.00    +0.000 A 
ATOM     22  C   UNL     1       6.118   6.193  17.002  0.00  0.00    +0.000 A 
ATOM     23  N   UNL     1       4.919   6.822  17.113  0.00  0.00    +0.000 NA
ATOM     24  C   UNL     1       4.155   6.390  18.158  0.00  0.00    +0.000 A 
ATOM     25  C   UNL     1       4.581   5.431  19.062  0.00  0.00    +0.000 A 
ATOM     26  N   UNL     1       5.778   4.802  18.934  0.00  0.00    +0.000 NA
ENDBRANCH  16  24
ENDBRANCH  15  18
ENDBRANCH   1  15
BRANCH   8  27
ATOM     27  C   UNL     1      -1.083   9.815  17.437  0.00  0.00    +0.000 C 
BRANCH  27  28
ATOM     28  C   UNL     1      -2.386  10.199  16.788  0.00  0.00    +0.000 A 
ATOM     29  C   UNL     1      -3.419  10.948  17.344  0.00  0.00    +0.000 A 
ATOM     30  C   UNL     1      -4.508  11.320  16.543  0.00  0.00    +0.000 A 
ATOM     31  C   UNL     1      -4.524  10.952  15.206  0.00  0.00    +0.000 A 
ATOM     32  N   UNL     1      -3.531  10.259  14.620  0.00  0.00    +0.000 NA
ATOM     33  C   UNL     1      -2.495   9.914  15.417  0.00  0.00    +0.000 A 
ENDBRANCH  27  28
ENDBRANCH   8  27
TORSDOF 6
ENDMDL
