MODEL 1
REMARK VINA RESULT:      -7.9      0.000      0.000
REMARK  Name = 
REMARK  4 active torsions:
REMARK  status: ('A' for Active; 'I' for Inactive)
REMARK    1  A    between atoms: C_5  and  C_6
REMARK    2  A    between atoms: C_14  and  C_15
REMARK    3  A    between atoms: C_15  and  N_16
REMARK    4  A    between atoms: N_16  and  C_17
REMARK                            x       y       z     vdW  Elec       q    Type
REMARK                         _______ _______ _______ _____ _____    ______ ____
ROOT
ATOM      1  C   UNL     1       4.472   4.258  17.044  0.00  0.00    +0.000 A 
ATOM      2  N   UNL     1       4.611   4.347  15.685  0.00  0.00    +0.000 NA
ATOM      3  N   UNL     1       5.667   5.106  15.427  0.00  0.00    +0.000 NA
ATOM      4  N   UNL     1       6.192   5.487  16.606  0.00  0.00    +0.000 N 
ATOM      5  C   UNL     1       5.502   4.946  17.661  0.00  0.00    +0.000 A 
ATOM      6  C   UNL     1       5.873   5.133  19.082  0.00  0.00    +0.000 C 
ATOM      7  O   UNL     1       7.289   5.173  19.169  0.00  0.00    +0.000 OA
ATOM      8  C   UNL     1       7.844   6.483  19.089  0.00  0.00    +0.000 C 
ATOM      9  C   UNL     1       7.335   7.292  17.886  0.00  0.00    +0.000 C 
ATOM     10  C   UNL     1       7.313   6.411  16.625  0.00  0.00    +0.000 C 
ENDROOT
BRANCH   1  15
ATOM     11  C   UNL     1       1.172   3.305  18.565  0.00  0.00    +0.000 A 
ATOM     12  C   UNL     1       1.512   2.043  19.021  0.00  0.00    +0.000 A 
ATOM     13  N   UNL     1       2.723   1.482  18.819  0.00  0.00    +0.000 NA
ATOM     14  C   UNL     1       3.644   2.223  18.155  0.00  0.00    +0.000 A 
ATOM     15  C   UNL     1       3.414   3.512  17.687  0.00  0.00    +0.000 A 
ATOM     16  C   UNL     1       2.134   4.039  17.875  0.00  0.00    +0.000 A 
ENDBRANCH   1  15
BRANCH   9  17
ATOM     17  C   UNL     1       8.192   8.551  17.723  0.00  0.00    +0.000 C 
BRANCH  17  18
ATOM     18  N   UNL     1       8.850   8.874  18.985  0.00  0.00    +0.000 NA
ATOM     19  H   UNL     1       9.565   8.179  19.204  0.00  0.00    +0.000 HD
BRANCH  18  20
ATOM     20  C   UNL     1       9.451  10.213  19.033  0.00  0.00    +0.000 C 
ATOM     21  C   UNL     1       9.268  10.763  20.454  0.00  0.00    +0.000 C 
ATOM     22  C   UNL     1       9.787  12.190  20.549  0.00  0.00    +0.000 C 
ATOM     23  O   UNL     1       9.155  13.028  19.584  0.00  0.00    +0.000 OA
ATOM     24  C   UNL     1       9.401  12.594  18.249  0.00  0.00    +0.000 C 
ATOM     25  C   UNL     1       8.847  11.195  18.022  0.00  0.00    +0.000 C 
ENDBRANCH  18  20
ENDBRANCH  17  18
ENDBRANCH   9  17
TORSDOF 4
ENDMDL
MODEL 2
REMARK VINA RESULT:      -7.6      0.843      1.492
REMARK  Name = 
REMARK  4 active torsions:
REMARK  status: ('A' for Active; 'I' for Inactive)
REMARK    1  A    between atoms: C_5  and  C_6
REMARK    2  A    between atoms: C_14  and  C_15
REMARK    3  A    between atoms: C_15  and  N_16
REMARK    4  A    between atoms: N_16  and  C_17
REMARK                            x       y       z     vdW  Elec       q    Type
REMARK                         _______ _______ _______ _____ _____    ______ ____
ROOT
ATOM      1  C   UNL     1       4.672   4.583  16.839  0.00  0.00    +0.000 A 
ATOM      2  N   UNL     1       4.783   4.792  15.490  0.00  0.00    +0.000 NA
ATOM      3  N   UNL     1       5.830   5.577  15.280  0.00  0.00    +0.000 NA
ATOM      4  N   UNL     1       6.376   5.858  16.476  0.00  0.00    +0.000 N 
ATOM      5  C   UNL     1       5.710   5.222  17.494  0.00  0.00    +0.000 A 
ATOM      6  C   UNL     1       6.108   5.288  18.918  0.00  0.00    +0.000 C 
ATOM      7  O   UNL     1       7.526   5.331  18.981  0.00  0.00    +0.000 OA
ATOM      8  C   UNL     1       8.071   6.646  19.004  0.00  0.00    +0.000 C 
ATOM      9  C   UNL     1       7.534   7.553  17.887  0.00  0.00    +0.000 C 
ATOM     10  C   UNL     1       7.492   6.785  16.554  0.00  0.00    +0.000 C 
ENDROOT
BRANCH   1  15
ATOM     11  C   UNL     1       2.819   1.727  18.425  0.00  0.00    +0.000 A 
ATOM     12  C   UNL     1       1.555   2.289  18.447  0.00  0.00    +0.000 A 
ATOM     13  N   UNL     1       1.292   3.543  18.024  0.00  0.00    +0.000 NA
ATOM     14  C   UNL     1       2.332   4.260  17.533  0.00  0.00    +0.000 A 
ATOM     15  C   UNL     1       3.631   3.776  17.435  0.00  0.00    +0.000 A 
ATOM     16  C   UNL     1       3.871   2.490  17.927  0.00  0.00    +0.000 A 
ENDBRANCH   1  15
BRANCH   9  17
ATOM     17  C   UNL     1       8.380   8.828  17.817  0.00  0.00    +0.000 C 
BRANCH  17  18
ATOM     18  N   UNL     1       8.915   9.145  19.138  0.00  0.00    +0.000 NA
ATOM     19  H   UNL     1       9.786   8.638  19.303  0.00  0.00    +0.000 HD
BRANCH  18  20
ATOM     20  C   UNL     1       9.140  10.576  19.377  0.00  0.00    +0.000 C 
ATOM     21  C   UNL     1       8.972  11.311  18.039  0.00  0.00    +0.000 C 
ATOM     22  C   UNL     1       9.285  12.792  18.197  0.00  0.00    +0.000 C 
ATOM     23  O   UNL     1      10.594  12.982  18.730  0.00  0.00    +0.000 OA
ATOM     24  C   UNL     1      10.741  12.396  20.021  0.00  0.00    +0.000 C 
ATOM     25  C   UNL     1      10.522  10.891  19.962  0.00  0.00    +0.000 C 
ENDBRANCH  18  20
ENDBRANCH  17  18
ENDBRANCH   9  17
TORSDOF 4
ENDMDL
MODEL 3
REMARK VINA RESULT:      -7.5      4.661      6.393
REMARK  Name = 
REMARK  4 active torsions:
REMARK  status: ('A' for Active; 'I' for Inactive)
REMARK    1  A    between atoms: C_5  and  C_6
REMARK    2  A    between atoms: C_14  and  C_15
REMARK    3  A    between atoms: C_15  and  N_16
REMARK    4  A    between atoms: N_16  and  C_17
REMARK                            x       y       z     vdW  Elec       q    Type
REMARK                         _______ _______ _______ _____ _____    ______ ____
ROOT
ATOM      1  C   UNL     1       6.725   4.472  16.017  0.00  0.00    +0.000 A 
ATOM      2  N   UNL     1       7.789   4.564  16.875  0.00  0.00    +0.000 NA
ATOM      3  N   UNL     1       7.322   4.532  18.115  0.00  0.00    +0.000 NA
ATOM      4  N   UNL     1       5.984   4.417  18.045  0.00  0.00    +0.000 N 
ATOM      5  C   UNL     1       5.555   4.332  16.744  0.00  0.00    +0.000 A 
ATOM      6  C   UNL     1       4.143   4.141  16.343  0.00  0.00    +0.000 C 
ATOM      7  O   UNL     1       3.522   3.296  17.300  0.00  0.00    +0.000 OA
ATOM      8  C   UNL     1       2.885   3.990  18.368  0.00  0.00    +0.000 C 
ATOM      9  C   UNL     1       3.788   5.032  19.046  0.00  0.00    +0.000 C 
ATOM     10  C   UNL     1       5.196   4.453  19.265  0.00  0.00    +0.000 C 
ENDROOT
BRANCH   1  15
ATOM     11  C   UNL     1       6.401   3.593  12.380  0.00  0.00    +0.000 A 
ATOM     12  C   UNL     1       7.282   4.527  11.863  0.00  0.00    +0.000 A 
ATOM     13  N   UNL     1       7.925   5.441  12.621  0.00  0.00    +0.000 NA
ATOM     14  C   UNL     1       7.699   5.403  13.957  0.00  0.00    +0.000 A 
ATOM     15  C   UNL     1       6.862   4.485  14.579  0.00  0.00    +0.000 A 
ATOM     16  C   UNL     1       6.178   3.586  13.755  0.00  0.00    +0.000 A 
ENDBRANCH   1  15
BRANCH   9  17
ATOM     17  C   UNL     1       3.127   5.509  20.343  0.00  0.00    +0.000 C 
BRANCH  17  18
ATOM     18  N   UNL     1       1.895   6.230  20.040  0.00  0.00    +0.000 NA
ATOM     19  H   UNL     1       1.238   6.161  20.819  0.00  0.00    +0.000 HD
BRANCH  18  20
ATOM     20  C   UNL     1       2.085   7.644  19.696  0.00  0.00    +0.000 C 
ATOM     21  C   UNL     1       1.042   8.464  20.470  0.00  0.00    +0.000 C 
ATOM     22  C   UNL     1       1.123   9.934  20.086  0.00  0.00    +0.000 C 
ATOM     23  O   UNL     1       0.973  10.103  18.679  0.00  0.00    +0.000 OA
ATOM     24  C   UNL     1       1.994   9.435  17.943  0.00  0.00    +0.000 C 
ATOM     25  C   UNL     1       1.954   7.935  18.196  0.00  0.00    +0.000 C 
ENDBRANCH  18  20
ENDBRANCH  17  18
ENDBRANCH   9  17
TORSDOF 4
ENDMDL
MODEL 4
REMARK VINA RESULT:      -7.4      0.876      1.393
REMARK  Name = 
REMARK  4 active torsions:
REMARK  status: ('A' for Active; 'I' for Inactive)
REMARK    1  A    between atoms: C_5  and  C_6
REMARK    2  A    between atoms: C_14  and  C_15
REMARK    3  A    between atoms: C_15  and  N_16
REMARK    4  A    between atoms: N_16  and  C_17
REMARK                            x       y       z     vdW  Elec       q    Type
REMARK                         _______ _______ _______ _____ _____    ______ ____
ROOT
ATOM      1  C   UNL     1       4.405   4.317  17.508  0.00  0.00    +0.000 A 
ATOM      2  N   UNL     1       4.357   4.410  16.142  0.00  0.00    +0.000 NA
ATOM      3  N   UNL     1       5.377   5.157  15.744  0.00  0.00    +0.000 NA
ATOM      4  N   UNL     1       6.062   5.529  16.840  0.00  0.00    +0.000 N 
ATOM      5  C   UNL     1       5.518   4.991  17.979  0.00  0.00    +0.000 A 
ATOM      6  C   UNL     1       6.082   5.170  19.336  0.00  0.00    +0.000 C 
ATOM      7  O   UNL     1       7.497   5.194  19.228  0.00  0.00    +0.000 OA
ATOM      8  C   UNL     1       8.050   6.497  19.075  0.00  0.00    +0.000 C 
ATOM      9  C   UNL     1       7.391   7.316  17.955  0.00  0.00    +0.000 C 
ATOM     10  C   UNL     1       7.186   6.440  16.707  0.00  0.00    +0.000 C 
ENDROOT
BRANCH   1  15
ATOM     11  C   UNL     1       1.832   1.795  18.571  0.00  0.00    +0.000 A 
ATOM     12  C   UNL     1       1.531   2.321  19.815  0.00  0.00    +0.000 A 
ATOM     13  N   UNL     1       2.147   3.405  20.332  0.00  0.00    +0.000 NA
ATOM     14  C   UNL     1       3.086   4.007  19.563  0.00  0.00    +0.000 A 
ATOM     15  C   UNL     1       3.437   3.580  18.288  0.00  0.00    +0.000 A 
ATOM     16  C   UNL     1       2.811   2.427  17.807  0.00  0.00    +0.000 A 
ENDBRANCH   1  15
BRANCH   9  17
ATOM     17  C   UNL     1       8.231   8.567  17.679  0.00  0.00    +0.000 C 
BRANCH  17  18
ATOM     18  N   UNL     1       8.910   8.991  18.899  0.00  0.00    +0.000 NA
ATOM     19  H   UNL     1       9.846   8.586  18.947  0.00  0.00    +0.000 HD
BRANCH  18  20
ATOM     20  C   UNL     1       9.009  10.447  19.066  0.00  0.00    +0.000 C 
ATOM     21  C   UNL     1       9.957  10.984  17.985  0.00  0.00    +0.000 C 
ATOM     22  C   UNL     1      10.179  12.479  18.159  0.00  0.00    +0.000 C 
ATOM     23  O   UNL     1      10.665  12.773  19.467  0.00  0.00    +0.000 OA
ATOM     24  C   UNL     1       9.751  12.377  20.485  0.00  0.00    +0.000 C 
ATOM     25  C   UNL     1       9.516  10.874  20.449  0.00  0.00    +0.000 C 
ENDBRANCH  18  20
ENDBRANCH  17  18
ENDBRANCH   9  17
TORSDOF 4
ENDMDL
MODEL 5
REMARK VINA RESULT:      -7.4      4.684      6.627
REMARK  Name = 
REMARK  4 active torsions:
REMARK  status: ('A' for Active; 'I' for Inactive)
REMARK    1  A    between atoms: C_5  and  C_6
REMARK    2  A    between atoms: C_14  and  C_15
REMARK    3  A    between atoms: C_15  and  N_16
REMARK    4  A    between atoms: N_16  and  C_17
REMARK                            x       y       z     vdW  Elec       q    Type
REMARK                         _______ _______ _______ _____ _____    ______ ____
ROOT
ATOM      1  C   UNL     1       1.617   8.133  19.795  0.00  0.00    +0.000 A 
ATOM      2  N   UNL     1       2.098   8.614  18.606  0.00  0.00    +0.000 NA
ATOM      3  N   UNL     1       2.661   7.608  17.952  0.00  0.00    +0.000 NA
ATOM      4  N   UNL     1       2.535   6.506  18.712  0.00  0.00    +0.000 N 
ATOM      5  C   UNL     1       1.845   6.770  19.869  0.00  0.00    +0.000 A 
ATOM      6  C   UNL     1       1.496   5.748  20.882  0.00  0.00    +0.000 C 
ATOM      7  O   UNL     1       1.210   4.533  20.204  0.00  0.00    +0.000 OA
ATOM      8  C   UNL     1       2.333   3.669  20.054  0.00  0.00    +0.000 C 
ATOM      9  C   UNL     1       3.566   4.365  19.457  0.00  0.00    +0.000 C 
ATOM     10  C   UNL     1       3.151   5.263  18.280  0.00  0.00    +0.000 C 
ENDROOT
BRANCH   1  15
ATOM     11  C   UNL     1      -0.694  10.620  21.402  0.00  0.00    +0.000 A 
ATOM     12  C   UNL     1      -0.190  10.566  22.690  0.00  0.00    +0.000 A 
ATOM     13  N   UNL     1       0.813   9.742  23.062  0.00  0.00    +0.000 NA
ATOM     14  C   UNL     1       1.354   8.955  22.100  0.00  0.00    +0.000 A 
ATOM     15  C   UNL     1       0.944   8.958  20.772  0.00  0.00    +0.000 A 
ATOM     16  C   UNL     1      -0.127   9.790  20.437  0.00  0.00    +0.000 A 
ENDBRANCH   1  15
BRANCH   9  17
ATOM     17  C   UNL     1       4.606   3.308  19.069  0.00  0.00    +0.000 C 
BRANCH  17  18
ATOM     18  N   UNL     1       5.937   3.904  19.046  0.00  0.00    +0.000 NA
ATOM     19  H   UNL     1       6.646   3.192  18.859  0.00  0.00    +0.000 HD
BRANCH  18  20
ATOM     20  C   UNL     1       6.097   5.003  18.085  0.00  0.00    +0.000 C 
ATOM     21  C   UNL     1       6.399   4.390  16.710  0.00  0.00    +0.000 C 
ATOM     22  C   UNL     1       6.669   5.480  15.684  0.00  0.00    +0.000 C 
ATOM     23  O   UNL     1       7.727   6.334  16.113  0.00  0.00    +0.000 OA
ATOM     24  C   UNL     1       7.422   6.996  17.337  0.00  0.00    +0.000 C 
ATOM     25  C   UNL     1       7.207   5.991  18.460  0.00  0.00    +0.000 C 
ENDBRANCH  18  20
ENDBRANCH  17  18
ENDBRANCH   9  17
TORSDOF 4
ENDMDL
MODEL 6
REMARK VINA RESULT:      -7.4      1.903      2.092
REMARK  Name = 
REMARK  4 active torsions:
REMARK  status: ('A' for Active; 'I' for Inactive)
REMARK    1  A    between atoms: C_5  and  C_6
REMARK    2  A    between atoms: C_14  and  C_15
REMARK    3  A    between atoms: C_15  and  N_16
REMARK    4  A    between atoms: N_16  and  C_17
REMARK                            x       y       z     vdW  Elec       q    Type
REMARK                         _______ _______ _______ _____ _____    ______ ____
ROOT
ATOM      1  C   UNL     1       3.096   5.609  18.687  0.00  0.00    +0.000 A 
ATOM      2  N   UNL     1       2.462   6.677  18.111  0.00  0.00    +0.000 NA
ATOM      3  N   UNL     1       3.365   7.384  17.447  0.00  0.00    +0.000 NA
ATOM      4  N   UNL     1       4.553   6.770  17.596  0.00  0.00    +0.000 N 
ATOM      5  C   UNL     1       4.434   5.620  18.335  0.00  0.00    +0.000 A 
ATOM      6  C   UNL     1       5.554   4.695  18.621  0.00  0.00    +0.000 C 
ATOM      7  O   UNL     1       6.407   4.667  17.486  0.00  0.00    +0.000 OA
ATOM      8  C   UNL     1       7.474   5.608  17.533  0.00  0.00    +0.000 C 
ATOM      9  C   UNL     1       7.016   7.040  17.851  0.00  0.00    +0.000 C 
ATOM     10  C   UNL     1       5.750   7.383  17.047  0.00  0.00    +0.000 C 
ENDROOT
BRANCH   1  15
ATOM     11  C   UNL     1       1.938   3.558  21.613  0.00  0.00    +0.000 A 
ATOM     12  C   UNL     1       1.162   2.640  20.927  0.00  0.00    +0.000 A 
ATOM     13  N   UNL     1       0.964   2.685  19.593  0.00  0.00    +0.000 NA
ATOM     14  C   UNL     1       1.589   3.675  18.909  0.00  0.00    +0.000 A 
ATOM     15  C   UNL     1       2.416   4.624  19.498  0.00  0.00    +0.000 A 
ATOM     16  C   UNL     1       2.558   4.571  20.887  0.00  0.00    +0.000 A 
ENDBRANCH   1  15
BRANCH   9  17
ATOM     17  C   UNL     1       8.172   8.012  17.595  0.00  0.00    +0.000 C 
BRANCH  17  18
ATOM     18  N   UNL     1       7.791   9.359  18.005  0.00  0.00    +0.000 NA
ATOM     19  H   UNL     1       7.284   9.334  18.892  0.00  0.00    +0.000 HD
BRANCH  18  20
ATOM     20  C   UNL     1       8.912  10.301  18.120  0.00  0.00    +0.000 C 
ATOM     21  C   UNL     1       9.372  10.312  19.585  0.00  0.00    +0.000 C 
ATOM     22  C   UNL     1      10.474  11.340  19.794  0.00  0.00    +0.000 C 
ATOM     23  O   UNL     1      10.049  12.635  19.376  0.00  0.00    +0.000 OA
ATOM     24  C   UNL     1       9.716  12.672  17.991  0.00  0.00    +0.000 C 
ATOM     25  C   UNL     1       8.563  11.729  17.684  0.00  0.00    +0.000 C 
ENDBRANCH  18  20
ENDBRANCH  17  18
ENDBRANCH   9  17
TORSDOF 4
ENDMDL
MODEL 7
REMARK VINA RESULT:      -7.4      4.614      6.665
REMARK  Name = 
REMARK  4 active torsions:
REMARK  status: ('A' for Active; 'I' for Inactive)
REMARK    1  A    between atoms: C_5  and  C_6
REMARK    2  A    between atoms: C_14  and  C_15
REMARK    3  A    between atoms: C_15  and  N_16
REMARK    4  A    between atoms: N_16  and  C_17
REMARK                            x       y       z     vdW  Elec       q    Type
REMARK                         _______ _______ _______ _____ _____    ______ ____
ROOT
ATOM      1  C   UNL     1       5.856   4.478  17.161  0.00  0.00    +0.000 A 
ATOM      2  N   UNL     1       6.727   4.484  18.218  0.00  0.00    +0.000 NA
ATOM      3  N   UNL     1       6.017   4.440  19.337  0.00  0.00    +0.000 NA
ATOM      4  N   UNL     1       4.717   4.402  18.994  0.00  0.00    +0.000 N 
ATOM      5  C   UNL     1       4.558   4.381  17.631  0.00  0.00    +0.000 A 
ATOM      6  C   UNL     1       3.249   4.281  16.946  0.00  0.00    +0.000 C 
ATOM      7  O   UNL     1       2.406   3.443  17.724  0.00  0.00    +0.000 OA
ATOM      8  C   UNL     1       1.601   4.140  18.669  0.00  0.00    +0.000 C 
ATOM      9  C   UNL     1       2.396   5.108  19.557  0.00  0.00    +0.000 C 
ATOM     10  C   UNL     1       3.701   4.445  20.031  0.00  0.00    +0.000 C 
ENDROOT
BRANCH   1  15
ATOM     11  C   UNL     1       6.238   3.728  13.500  0.00  0.00    +0.000 A 
ATOM     12  C   UNL     1       7.247   4.629  13.210  0.00  0.00    +0.000 A 
ATOM     13  N   UNL     1       7.763   5.484  14.118  0.00  0.00    +0.000 NA
ATOM     14  C   UNL     1       7.269   5.418  15.378  0.00  0.00    +0.000 A 
ATOM     15  C   UNL     1       6.283   4.527  15.781  0.00  0.00    +0.000 A 
ATOM     16  C   UNL     1       5.741   3.691  14.801  0.00  0.00    +0.000 A 
ENDBRANCH   1  15
BRANCH   9  17
ATOM     17  C   UNL     1       1.510   5.582  20.714  0.00  0.00    +0.000 C 
BRANCH  17  18
ATOM     18  N   UNL     1       1.952   6.893  21.177  0.00  0.00    +0.000 NA
ATOM     19  H   UNL     1       2.858   7.131  20.769  0.00  0.00    +0.000 HD
BRANCH  18  20
ATOM     20  C   UNL     1       1.005   7.984  20.914  0.00  0.00    +0.000 C 
ATOM     21  C   UNL     1       1.491   8.742  19.671  0.00  0.00    +0.000 C 
ATOM     22  C   UNL     1       0.604   9.947  19.396  0.00  0.00    +0.000 C 
ATOM     23  O   UNL     1       0.542  10.804  20.534  0.00  0.00    +0.000 OA
ATOM     24  C   UNL     1      -0.006  10.148  21.674  0.00  0.00    +0.000 C 
ATOM     25  C   UNL     1       0.855   8.963  22.084  0.00  0.00    +0.000 C 
ENDBRANCH  18  20
ENDBRANCH  17  18
ENDBRANCH   9  17
TORSDOF 4
ENDMDL
MODEL 8
REMARK VINA RESULT:      -7.4      4.750      6.645
REMARK  Name = 
REMARK  4 active torsions:
REMARK  status: ('A' for Active; 'I' for Inactive)
REMARK    1  A    between atoms: C_5  and  C_6
REMARK    2  A    between atoms: C_14  and  C_15
REMARK    3  A    between atoms: C_15  and  N_16
REMARK    4  A    between atoms: N_16  and  C_17
REMARK                            x       y       z     vdW  Elec       q    Type
REMARK                         _______ _______ _______ _____ _____    ______ ____
ROOT
ATOM      1  C   UNL     1       1.548   8.229  19.831  0.00  0.00    +0.000 A 
ATOM      2  N   UNL     1       2.006   8.786  18.667  0.00  0.00    +0.000 NA
ATOM      3  N   UNL     1       2.575   7.830  17.948  0.00  0.00    +0.000 NA
ATOM      4  N   UNL     1       2.476   6.683  18.643  0.00  0.00    +0.000 N 
ATOM      5  C   UNL     1       1.798   6.868  19.822  0.00  0.00    +0.000 A 
ATOM      6  C   UNL     1       1.477   5.783  20.777  0.00  0.00    +0.000 C 
ATOM      7  O   UNL     1       1.200   4.605  20.033  0.00  0.00    +0.000 OA
ATOM      8  C   UNL     1       2.333   3.770  19.819  0.00  0.00    +0.000 C 
ATOM      9  C   UNL     1       3.548   4.518  19.248  0.00  0.00    +0.000 C 
ATOM     10  C   UNL     1       3.104   5.477  18.131  0.00  0.00    +0.000 C 
ENDROOT
BRANCH   1  15
ATOM     11  C   UNL     1      -0.817  10.536  21.618  0.00  0.00    +0.000 A 
ATOM     12  C   UNL     1      -0.256  10.467  22.881  0.00  0.00    +0.000 A 
ATOM     13  N   UNL     1       0.803   9.685  23.183  0.00  0.00    +0.000 NA
ATOM     14  C   UNL     1       1.341   8.960  22.172  0.00  0.00    +0.000 A 
ATOM     15  C   UNL     1       0.876   8.985  20.863  0.00  0.00    +0.000 A 
ATOM     16  C   UNL     1      -0.250   9.770  20.602  0.00  0.00    +0.000 A 
ENDBRANCH   1  15
BRANCH   9  17
ATOM     17  C   UNL     1       4.598   3.503  18.785  0.00  0.00    +0.000 C 
BRANCH  17  18
ATOM     18  N   UNL     1       5.930   3.943  19.188  0.00  0.00    +0.000 NA
ATOM     19  H   UNL     1       6.458   3.167  19.591  0.00  0.00    +0.000 HD
BRANCH  18  20
ATOM     20  C   UNL     1       6.720   4.554  18.112  0.00  0.00    +0.000 C 
ATOM     21  C   UNL     1       6.736   6.072  18.339  0.00  0.00    +0.000 C 
ATOM     22  C   UNL     1       7.462   6.778  17.204  0.00  0.00    +0.000 C 
ATOM     23  O   UNL     1       6.880   6.449  15.944  0.00  0.00    +0.000 OA
ATOM     24  C   UNL     1       6.950   5.054  15.665  0.00  0.00    +0.000 C 
ATOM     25  C   UNL     1       6.183   4.253  16.708  0.00  0.00    +0.000 C 
ENDBRANCH  18  20
ENDBRANCH  17  18
ENDBRANCH   9  17
TORSDOF 4
ENDMDL
MODEL 9
REMARK VINA RESULT:      -7.3      6.660      8.272
REMARK  Name = 
REMARK  4 active torsions:
REMARK  status: ('A' for Active; 'I' for Inactive)
REMARK    1  A    between atoms: C_5  and  C_6
REMARK    2  A    between atoms: C_14  and  C_15
REMARK    3  A    between atoms: C_15  and  N_16
REMARK    4  A    between atoms: N_16  and  C_17
REMARK                            x       y       z     vdW  Elec       q    Type
REMARK                         _______ _______ _______ _____ _____    ______ ____
ROOT
ATOM      1  C   UNL     1       2.338   6.312  19.282  0.00  0.00    +0.000 A 
ATOM      2  N   UNL     1       2.881   6.592  18.057  0.00  0.00    +0.000 NA
ATOM      3  N   UNL     1       2.688   7.879  17.805  0.00  0.00    +0.000 NA
ATOM      4  N   UNL     1       2.037   8.407  18.857  0.00  0.00    +0.000 N 
ATOM      5  C   UNL     1       1.828   7.471  19.839  0.00  0.00    +0.000 A 
ATOM      6  C   UNL     1       1.188   7.761  21.143  0.00  0.00    +0.000 C 
ATOM      7  O   UNL     1       1.575   9.067  21.545  0.00  0.00    +0.000 OA
ATOM      8  C   UNL     1       0.678  10.094  21.136  0.00  0.00    +0.000 C 
ATOM      9  C   UNL     1       0.336  10.050  19.639  0.00  0.00    +0.000 C 
ATOM     10  C   UNL     1       1.607   9.794  18.811  0.00  0.00    +0.000 C 
ENDROOT
BRANCH   1  15
ATOM     11  C   UNL     1       1.346   3.210  21.154  0.00  0.00    +0.000 A 
ATOM     12  C   UNL     1       2.545   2.525  21.068  0.00  0.00    +0.000 A 
ATOM     13  N   UNL     1       3.623   2.995  20.403  0.00  0.00    +0.000 NA
ATOM     14  C   UNL     1       3.506   4.213  19.821  0.00  0.00    +0.000 A 
ATOM     15  C   UNL     1       2.359   4.995  19.878  0.00  0.00    +0.000 A 
ATOM     16  C   UNL     1       1.251   4.454  20.535  0.00  0.00    +0.000 A 
ENDBRANCH   1  15
BRANCH   9  17
ATOM     17  C   UNL     1      -0.386  11.342  19.244  0.00  0.00    +0.000 C 
BRANCH  17  18
ATOM     18  N   UNL     1      -1.824  11.105  19.162  0.00  0.00    +0.000 NA
ATOM     19  H   UNL     1      -2.318  11.643  19.876  0.00  0.00    +0.000 HD
BRANCH  18  20
ATOM     20  C   UNL     1      -2.415  11.395  17.849  0.00  0.00    +0.000 C 
ATOM     21  C   UNL     1      -3.939  11.463  18.021  0.00  0.00    +0.000 C 
ATOM     22  C   UNL     1      -4.622  11.668  16.677  0.00  0.00    +0.000 C 
ATOM     23  O   UNL     1      -4.251  10.646  15.756  0.00  0.00    +0.000 OA
ATOM     24  C   UNL     1      -2.849  10.632  15.500  0.00  0.00    +0.000 C 
ATOM     25  C   UNL     1      -2.068  10.356  16.776  0.00  0.00    +0.000 C 
ENDBRANCH  18  20
ENDBRANCH  17  18
ENDBRANCH   9  17
TORSDOF 4
ENDMDL
