MODEL 1
REMARK VINA RESULT:      -7.6      0.000      0.000
REMARK  Name = 
REMARK  2 active torsions:
REMARK  status: ('A' for Active; 'I' for Inactive)
REMARK    1  A    between atoms: C_4  and  N_5
REMARK    2  A    between atoms: C_10  and  C_11
REMARK                            x       y       z     vdW  Elec       q    Type
REMARK                         _______ _______ _______ _____ _____    ______ ____
ROOT
ATOM      1  N   UNL     1       4.626   3.511  16.887  0.00  0.00    +0.000 NA
ATOM      2  C   UNL     1       5.426   4.479  17.194  0.00  0.00    +0.000 A 
ATOM      3  S   UNL     1       5.405   5.729  18.378  0.00  0.00    +0.000 S 
ATOM      4  S   UNL     1       7.393   5.552  18.747  0.00  0.00    +0.000 S 
ATOM      5  N   UNL     1       7.744   5.272  17.141  0.00  0.00    +0.000 NA
ATOM      6  C   UNL     1       6.730   4.777  16.488  0.00  0.00    +0.000 A 
ENDROOT
BRANCH   1  10
ATOM      7  C   UNL     1       1.043   2.621  18.947  0.00  0.00    +0.000 A 
ATOM      8  C   UNL     1       2.150   1.781  19.013  0.00  0.00    +0.000 A 
ATOM      9  C   UNL     1       3.311   2.100  18.302  0.00  0.00    +0.000 A 
ATOM     10  C   UNL     1       3.396   3.259  17.520  0.00  0.00    +0.000 A 
ATOM     11  C   UNL     1       2.293   4.119  17.510  0.00  0.00    +0.000 A 
ATOM     12  C   UNL     1       1.115   3.793  18.194  0.00  0.00    +0.000 A 
ENDBRANCH   1  10
BRANCH   6  13
ATOM     13  C   UNL     1       6.801   4.574  15.058  0.00  0.00    +0.000 A 
ATOM     14  C   UNL     1       6.096   3.784  14.166  0.00  0.00    +0.000 A 
ATOM     15  C   UNL     1       6.578   4.086  12.868  0.00  0.00    +0.000 A 
ATOM     16  C   UNL     1       7.561   5.030  13.038  0.00  0.00    +0.000 A 
ATOM     17  O   UNL     1       7.707   5.326  14.352  0.00  0.00    +0.000 OA
ENDBRANCH   6  13
TORSDOF 2
ENDMDL
MODEL 2
REMARK VINA RESULT:      -7.6      0.286      1.193
REMARK  Name = 
REMARK  2 active torsions:
REMARK  status: ('A' for Active; 'I' for Inactive)
REMARK    1  A    between atoms: C_4  and  N_5
REMARK    2  A    between atoms: C_10  and  C_11
REMARK                            x       y       z     vdW  Elec       q    Type
REMARK                         _______ _______ _______ _____ _____    ______ ____
ROOT
ATOM      1  N   UNL     1       4.666   3.450  17.195  0.00  0.00    +0.000 NA
ATOM      2  C   UNL     1       5.460   4.422  17.503  0.00  0.00    +0.000 A 
ATOM      3  S   UNL     1       5.447   5.652  18.707  0.00  0.00    +0.000 S 
ATOM      4  S   UNL     1       7.443   5.493  19.037  0.00  0.00    +0.000 S 
ATOM      5  N   UNL     1       7.767   5.244  17.419  0.00  0.00    +0.000 NA
ATOM      6  C   UNL     1       6.747   4.748  16.777  0.00  0.00    +0.000 A 
ENDROOT
BRANCH   1  10
ATOM      7  C   UNL     1       0.903   2.733  18.980  0.00  0.00    +0.000 A 
ATOM      8  C   UNL     1       1.110   3.811  18.128  0.00  0.00    +0.000 A 
ATOM      9  C   UNL     1       2.376   4.027  17.572  0.00  0.00    +0.000 A 
ATOM     10  C   UNL     1       3.452   3.172  17.846  0.00  0.00    +0.000 A 
ATOM     11  C   UNL     1       3.209   2.063  18.661  0.00  0.00    +0.000 A 
ATOM     12  C   UNL     1       1.954   1.856  19.247  0.00  0.00    +0.000 A 
ENDBRANCH   1  10
BRANCH   6  13
ATOM     13  C   UNL     1       6.793   4.569  15.343  0.00  0.00    +0.000 A 
ATOM     14  C   UNL     1       6.075   3.792  14.450  0.00  0.00    +0.000 A 
ATOM     15  C   UNL     1       6.534   4.118  13.149  0.00  0.00    +0.000 A 
ATOM     16  C   UNL     1       7.517   5.062  13.318  0.00  0.00    +0.000 A 
ATOM     17  O   UNL     1       7.685   5.336  14.634  0.00  0.00    +0.000 OA
ENDBRANCH   6  13
TORSDOF 2
ENDMDL
MODEL 3
REMARK VINA RESULT:      -7.6      0.975      1.424
REMARK  Name = 
REMARK  2 active torsions:
REMARK  status: ('A' for Active; 'I' for Inactive)
REMARK    1  A    between atoms: C_4  and  N_5
REMARK    2  A    between atoms: C_10  and  C_11
REMARK                            x       y       z     vdW  Elec       q    Type
REMARK                         _______ _______ _______ _____ _____    ______ ____
ROOT
ATOM      1  N   UNL     1       4.986   3.829  16.866  0.00  0.00    +0.000 NA
ATOM      2  C   UNL     1       5.514   5.002  16.744  0.00  0.00    +0.000 A 
ATOM      3  S   UNL     1       5.258   6.523  17.511  0.00  0.00    +0.000 S 
ATOM      4  S   UNL     1       7.244   6.941  17.572  0.00  0.00    +0.000 S 
ATOM      5  N   UNL     1       7.512   6.254  16.076  0.00  0.00    +0.000 NA
ATOM      6  C   UNL     1       6.618   5.355  15.772  0.00  0.00    +0.000 A 
ENDROOT
BRANCH   1  10
ATOM      7  C   UNL     1       1.682   2.857  19.316  0.00  0.00    +0.000 A 
ATOM      8  C   UNL     1       1.513   3.423  18.056  0.00  0.00    +0.000 A 
ATOM      9  C   UNL     1       2.633   3.749  17.283  0.00  0.00    +0.000 A 
ATOM     10  C   UNL     1       3.935   3.512  17.743  0.00  0.00    +0.000 A 
ATOM     11  C   UNL     1       4.082   2.893  18.988  0.00  0.00    +0.000 A 
ATOM     12  C   UNL     1       2.969   2.591  19.782  0.00  0.00    +0.000 A 
ENDBRANCH   1  10
BRANCH   6  13
ATOM     13  C   UNL     1       6.613   4.730  14.468  0.00  0.00    +0.000 A 
ATOM     14  C   UNL     1       5.849   3.733  13.886  0.00  0.00    +0.000 A 
ATOM     15  C   UNL     1       6.272   3.616  12.538  0.00  0.00    +0.000 A 
ATOM     16  C   UNL     1       7.279   4.534  12.375  0.00  0.00    +0.000 A 
ATOM     17  O   UNL     1       7.497   5.205  13.531  0.00  0.00    +0.000 OA
ENDBRANCH   6  13
TORSDOF 2
ENDMDL
MODEL 4
REMARK VINA RESULT:      -7.4      2.713      3.575
REMARK  Name = 
REMARK  2 active torsions:
REMARK  status: ('A' for Active; 'I' for Inactive)
REMARK    1  A    between atoms: C_4  and  N_5
REMARK    2  A    between atoms: C_10  and  C_11
REMARK                            x       y       z     vdW  Elec       q    Type
REMARK                         _______ _______ _______ _____ _____    ______ ____
ROOT
ATOM      1  N   UNL     1       4.496   5.733  17.886  0.00  0.00    +0.000 NA
ATOM      2  C   UNL     1       5.367   5.172  17.113  0.00  0.00    +0.000 A 
ATOM      3  S   UNL     1       5.551   3.593  16.452  0.00  0.00    +0.000 S 
ATOM      4  S   UNL     1       6.176   4.306  14.657  0.00  0.00    +0.000 S 
ATOM      5  N   UNL     1       7.045   5.541  15.365  0.00  0.00    +0.000 NA
ATOM      6  C   UNL     1       6.586   5.864  16.542  0.00  0.00    +0.000 A 
ENDROOT
BRANCH   1  10
ATOM      7  C   UNL     1       1.171   3.912  19.754  0.00  0.00    +0.000 A 
ATOM      8  C   UNL     1       2.131   4.601  20.487  0.00  0.00    +0.000 A 
ATOM      9  C   UNL     1       3.228   5.173  19.835  0.00  0.00    +0.000 A 
ATOM     10  C   UNL     1       3.386   5.078  18.446  0.00  0.00    +0.000 A 
ATOM     11  C   UNL     1       2.381   4.429  17.721  0.00  0.00    +0.000 A 
ATOM     12  C   UNL     1       1.295   3.827  18.368  0.00  0.00    +0.000 A 
ENDBRANCH   1  10
BRANCH   6  13
ATOM     13  C   UNL     1       7.275   6.834  17.363  0.00  0.00    +0.000 A 
ATOM     14  C   UNL     1       8.021   6.749  18.526  0.00  0.00    +0.000 A 
ATOM     15  C   UNL     1       8.512   8.049  18.804  0.00  0.00    +0.000 A 
ATOM     16  C   UNL     1       8.027   8.859  17.807  0.00  0.00    +0.000 A 
ATOM     17  O   UNL     1       7.276   8.140  16.939  0.00  0.00    +0.000 OA
ENDBRANCH   6  13
TORSDOF 2
ENDMDL
MODEL 5
REMARK VINA RESULT:      -7.2      2.664      3.582
REMARK  Name = 
REMARK  2 active torsions:
REMARK  status: ('A' for Active; 'I' for Inactive)
REMARK    1  A    between atoms: C_4  and  N_5
REMARK    2  A    between atoms: C_10  and  C_11
REMARK                            x       y       z     vdW  Elec       q    Type
REMARK                         _______ _______ _______ _____ _____    ______ ____
ROOT
ATOM      1  N   UNL     1       4.341   5.724  18.016  0.00  0.00    +0.000 NA
ATOM      2  C   UNL     1       5.140   5.176  17.160  0.00  0.00    +0.000 A 
ATOM      3  S   UNL     1       5.244   3.617  16.438  0.00  0.00    +0.000 S 
ATOM      4  S   UNL     1       5.743   4.379  14.624  0.00  0.00    +0.000 S 
ATOM      5  N   UNL     1       6.686   5.576  15.302  0.00  0.00    +0.000 NA
ATOM      6  C   UNL     1       6.324   5.867  16.520  0.00  0.00    +0.000 A 
ENDROOT
BRANCH   1  10
ATOM      7  C   UNL     1       1.072   3.633  19.689  0.00  0.00    +0.000 A 
ATOM      8  C   UNL     1       1.203   3.798  18.315  0.00  0.00    +0.000 A 
ATOM      9  C   UNL     1       2.290   4.514  17.799  0.00  0.00    +0.000 A 
ATOM     10  C   UNL     1       3.265   5.070  18.638  0.00  0.00    +0.000 A 
ATOM     11  C   UNL     1       3.143   4.845  20.013  0.00  0.00    +0.000 A 
ATOM     12  C   UNL     1       2.044   4.156  20.540  0.00  0.00    +0.000 A 
ENDBRANCH   1  10
BRANCH   6  13
ATOM     13  C   UNL     1       7.091   6.798  17.316  0.00  0.00    +0.000 A 
ATOM     14  C   UNL     1       7.881   6.670  18.446  0.00  0.00    +0.000 A 
ATOM     15  C   UNL     1       8.443   7.945  18.710  0.00  0.00    +0.000 A 
ATOM     16  C   UNL     1       7.955   8.783  17.738  0.00  0.00    +0.000 A 
ATOM     17  O   UNL     1       7.136   8.106  16.899  0.00  0.00    +0.000 OA
ENDBRANCH   6  13
TORSDOF 2
ENDMDL
MODEL 6
REMARK VINA RESULT:      -7.1      1.224      1.395
REMARK  Name = 
REMARK  2 active torsions:
REMARK  status: ('A' for Active; 'I' for Inactive)
REMARK    1  A    between atoms: C_4  and  N_5
REMARK    2  A    between atoms: C_10  and  C_11
REMARK                            x       y       z     vdW  Elec       q    Type
REMARK                         _______ _______ _______ _____ _____    ______ ____
ROOT
ATOM      1  N   UNL     1       4.759   3.727  16.724  0.00  0.00    +0.000 NA
ATOM      2  C   UNL     1       5.328   4.883  16.625  0.00  0.00    +0.000 A 
ATOM      3  S   UNL     1       5.145   6.388  17.440  0.00  0.00    +0.000 S 
ATOM      4  S   UNL     1       7.145   6.731  17.470  0.00  0.00    +0.000 S 
ATOM      5  N   UNL     1       7.356   6.080  15.949  0.00  0.00    +0.000 NA
ATOM      6  C   UNL     1       6.423   5.224  15.639  0.00  0.00    +0.000 A 
ENDROOT
BRANCH   1  10
ATOM      7  C   UNL     1       1.772   2.839  19.580  0.00  0.00    +0.000 A 
ATOM      8  C   UNL     1       3.121   2.645  19.853  0.00  0.00    +0.000 A 
ATOM      9  C   UNL     1       4.080   2.932  18.875  0.00  0.00    +0.000 A 
ATOM     10  C   UNL     1       3.715   3.423  17.614  0.00  0.00    +0.000 A 
ATOM     11  C   UNL     1       2.357   3.663  17.378  0.00  0.00    +0.000 A 
ATOM     12  C   UNL     1       1.389   3.350  18.340  0.00  0.00    +0.000 A 
ENDBRANCH   1  10
BRANCH   6  13
ATOM     13  C   UNL     1       6.368   4.639  14.319  0.00  0.00    +0.000 A 
ATOM     14  C   UNL     1       7.300   4.453  13.312  0.00  0.00    +0.000 A 
ATOM     15  C   UNL     1       6.657   3.734  12.273  0.00  0.00    +0.000 A 
ATOM     16  C   UNL     1       5.365   3.534  12.694  0.00  0.00    +0.000 A 
ATOM     17  O   UNL     1       5.179   4.079  13.920  0.00  0.00    +0.000 OA
ENDBRANCH   6  13
TORSDOF 2
ENDMDL
MODEL 7
REMARK VINA RESULT:      -7.1      1.903      5.638
REMARK  Name = 
REMARK  2 active torsions:
REMARK  status: ('A' for Active; 'I' for Inactive)
REMARK    1  A    between atoms: C_4  and  N_5
REMARK    2  A    between atoms: C_10  and  C_11
REMARK                            x       y       z     vdW  Elec       q    Type
REMARK                         _______ _______ _______ _____ _____    ______ ____
ROOT
ATOM      1  N   UNL     1       5.324   4.629  15.607  0.00  0.00    +0.000 NA
ATOM      2  C   UNL     1       5.843   4.599  16.791  0.00  0.00    +0.000 A 
ATOM      3  S   UNL     1       7.446   4.450  17.399  0.00  0.00    +0.000 S 
ATOM      4  S   UNL     1       7.124   5.811  18.870  0.00  0.00    +0.000 S 
ATOM      5  N   UNL     1       5.567   5.274  19.130  0.00  0.00    +0.000 NA
ATOM      6  C   UNL     1       5.056   4.694  18.080  0.00  0.00    +0.000 A 
ENDROOT
BRANCH   1  10
ATOM      7  C   UNL     1       7.317   4.168  11.908  0.00  0.00    +0.000 A 
ATOM      8  C   UNL     1       6.179   3.433  12.219  0.00  0.00    +0.000 A 
ATOM      9  C   UNL     1       5.558   3.599  13.462  0.00  0.00    +0.000 A 
ATOM     10  C   UNL     1       6.053   4.502  14.412  0.00  0.00    +0.000 A 
ATOM     11  C   UNL     1       7.166   5.272  14.059  0.00  0.00    +0.000 A 
ATOM     12  C   UNL     1       7.811   5.091  12.830  0.00  0.00    +0.000 A 
ENDBRANCH   1  10
BRANCH   6  13
ATOM     13  C   UNL     1       3.759   4.060  18.143  0.00  0.00    +0.000 A 
ATOM     14  C   UNL     1       2.466   4.534  18.283  0.00  0.00    +0.000 A 
ATOM     15  C   UNL     1       1.598   3.417  18.190  0.00  0.00    +0.000 A 
ATOM     16  C   UNL     1       2.407   2.322  18.014  0.00  0.00    +0.000 A 
ATOM     17  O   UNL     1       3.709   2.696  17.991  0.00  0.00    +0.000 OA
ENDBRANCH   6  13
TORSDOF 2
ENDMDL
MODEL 8
REMARK VINA RESULT:      -7.1      1.018      1.693
REMARK  Name = 
REMARK  2 active torsions:
REMARK  status: ('A' for Active; 'I' for Inactive)
REMARK    1  A    between atoms: C_4  and  N_5
REMARK    2  A    between atoms: C_10  and  C_11
REMARK                            x       y       z     vdW  Elec       q    Type
REMARK                         _______ _______ _______ _____ _____    ______ ____
ROOT
ATOM      1  N   UNL     1       4.771   3.680  16.596  0.00  0.00    +0.000 NA
ATOM      2  C   UNL     1       5.355   4.833  16.582  0.00  0.00    +0.000 A 
ATOM      3  S   UNL     1       5.146   6.299  17.461  0.00  0.00    +0.000 S 
ATOM      4  S   UNL     1       7.145   6.617  17.606  0.00  0.00    +0.000 S 
ATOM      5  N   UNL     1       7.425   6.039  16.067  0.00  0.00    +0.000 NA
ATOM      6  C   UNL     1       6.501   5.210  15.669  0.00  0.00    +0.000 A 
ENDROOT
BRANCH   1  10
ATOM      7  C   UNL     1       1.354   2.788  18.918  0.00  0.00    +0.000 A 
ATOM      8  C   UNL     1       1.393   3.893  18.074  0.00  0.00    +0.000 A 
ATOM      9  C   UNL     1       2.550   4.166  17.336  0.00  0.00    +0.000 A 
ATOM     10  C   UNL     1       3.682   3.345  17.418  0.00  0.00    +0.000 A 
ATOM     11  C   UNL     1       3.604   2.209  18.230  0.00  0.00    +0.000 A 
ATOM     12  C   UNL     1       2.462   1.944  18.996  0.00  0.00    +0.000 A 
ENDBRANCH   1  10
BRANCH   6  13
ATOM     13  C   UNL     1       6.505   4.690  14.320  0.00  0.00    +0.000 A 
ATOM     14  C   UNL     1       7.429   4.709  13.289  0.00  0.00    +0.000 A 
ATOM     15  C   UNL     1       6.882   3.949  12.224  0.00  0.00    +0.000 A 
ATOM     16  C   UNL     1       5.650   3.522  12.656  0.00  0.00    +0.000 A 
ATOM     17  O   UNL     1       5.411   3.968  13.912  0.00  0.00    +0.000 OA
ENDBRANCH   6  13
TORSDOF 2
ENDMDL
MODEL 9
REMARK VINA RESULT:      -6.9      3.577      4.805
REMARK  Name = 
REMARK  2 active torsions:
REMARK  status: ('A' for Active; 'I' for Inactive)
REMARK    1  A    between atoms: C_4  and  N_5
REMARK    2  A    between atoms: C_10  and  C_11
REMARK                            x       y       z     vdW  Elec       q    Type
REMARK                         _______ _______ _______ _____ _____    ______ ____
ROOT
ATOM      1  N   UNL     1       3.198   6.305  18.064  0.00  0.00    +0.000 NA
ATOM      2  C   UNL     1       3.101   5.068  18.425  0.00  0.00    +0.000 A 
ATOM      3  S   UNL     1       2.159   4.224  19.592  0.00  0.00    +0.000 S 
ATOM      4  S   UNL     1       1.846   2.648  18.351  0.00  0.00    +0.000 S 
ATOM      5  N   UNL     1       3.391   2.736  17.727  0.00  0.00    +0.000 NA
ATOM      6  C   UNL     1       3.903   3.931  17.830  0.00  0.00    +0.000 A 
ENDROOT
BRANCH   1  10
ATOM      7  C   UNL     1       0.943   9.535  19.596  0.00  0.00    +0.000 A 
ATOM      8  C   UNL     1       1.274   9.453  18.248  0.00  0.00    +0.000 A 
ATOM      9  C   UNL     1       2.039   8.378  17.782  0.00  0.00    +0.000 A 
ATOM     10  C   UNL     1       2.480   7.365  18.643  0.00  0.00    +0.000 A 
ATOM     11  C   UNL     1       2.090   7.438  19.985  0.00  0.00    +0.000 A 
ATOM     12  C   UNL     1       1.350   8.525  20.466  0.00  0.00    +0.000 A 
ENDBRANCH   1  10
BRANCH   6  13
ATOM     13  C   UNL     1       5.275   4.181  17.451  0.00  0.00    +0.000 A 
ATOM     14  C   UNL     1       5.922   4.335  16.236  0.00  0.00    +0.000 A 
ATOM     15  C   UNL     1       7.275   4.647  16.519  0.00  0.00    +0.000 A 
ATOM     16  C   UNL     1       7.386   4.651  17.887  0.00  0.00    +0.000 A 
ATOM     17  O   UNL     1       6.191   4.366  18.457  0.00  0.00    +0.000 OA
ENDBRANCH   6  13
TORSDOF 2
ENDMDL
