MODEL 1
REMARK VINA RESULT:      -5.4      0.000      0.000
REMARK  Name = 
REMARK  1 active torsions:
REMARK  status: ('A' for Active; 'I' for Inactive)
REMARK    1  A    between atoms: C_1  and  N_2
REMARK                            x       y       z     vdW  Elec       q    Type
REMARK                         _______ _______ _______ _____ _____    ______ ____
ROOT
ATOM      1  C   UNL     1       4.982   6.676  16.590  0.00  0.00    +0.000 C 
ATOM      2  N   UNL     1       4.210   5.570  17.143  0.00  0.00    +0.000 N 
ATOM      3 SE   UNL     1       4.598   3.854  16.761  0.00  0.00    +0.000 Se
ATOM      4  C   UNL     1       3.199   3.439  17.834  0.00  0.00    +0.000 A 
ATOM      5  C   UNL     1       2.757   2.148  18.122  0.00  0.00    +0.000 A 
ATOM      6  C   UNL     1       1.656   1.982  18.973  0.00  0.00    +0.000 A 
ATOM      7  C   UNL     1       1.014   3.103  19.525  0.00  0.00    +0.000 A 
ATOM      8  C   UNL     1       1.472   4.397  19.228  0.00  0.00    +0.000 A 
ATOM      9  C   UNL     1       2.571   4.545  18.375  0.00  0.00    +0.000 A 
ATOM     10  C   UNL     1       3.154   5.731  17.975  0.00  0.00    +0.000 A 
ATOM     11 CL   UNL     1       2.580   7.316  18.493  0.00  0.00    +0.000 Cl
ENDROOT
TORSDOF 0
ENDMDL
MODEL 2
REMARK VINA RESULT:      -5.3      1.967      2.439
REMARK  Name = 
REMARK  1 active torsions:
REMARK  status: ('A' for Active; 'I' for Inactive)
REMARK    1  A    between atoms: C_1  and  N_2
REMARK                            x       y       z     vdW  Elec       q    Type
REMARK                         _______ _______ _______ _____ _____    ______ ____
ROOT
ATOM      1  C   UNL     1       4.618   7.001  17.206  0.00  0.00    +0.000 C 
ATOM      2  N   UNL     1       3.731   6.051  17.868  0.00  0.00    +0.000 N 
ATOM      3 SE   UNL     1       2.663   6.539  19.232  0.00  0.00    +0.000 Se
ATOM      4  C   UNL     1       2.119   4.812  19.246  0.00  0.00    +0.000 A 
ATOM      5  C   UNL     1       1.172   4.269  20.117  0.00  0.00    +0.000 A 
ATOM      6  C   UNL     1       0.852   2.909  20.008  0.00  0.00    +0.000 A 
ATOM      7  C   UNL     1       1.476   2.111  19.035  0.00  0.00    +0.000 A 
ATOM      8  C   UNL     1       2.424   2.671  18.165  0.00  0.00    +0.000 A 
ATOM      9  C   UNL     1       2.735   4.030  18.287  0.00  0.00    +0.000 A 
ATOM     10  C   UNL     1       3.637   4.745  17.525  0.00  0.00    +0.000 A 
ATOM     11 CL   UNL     1       4.584   4.030  16.221  0.00  0.00    +0.000 Cl
ENDROOT
TORSDOF 0
ENDMDL
MODEL 3
REMARK VINA RESULT:      -5.3      2.512      4.538
REMARK  Name = 
REMARK  1 active torsions:
REMARK  status: ('A' for Active; 'I' for Inactive)
REMARK    1  A    between atoms: C_1  and  N_2
REMARK                            x       y       z     vdW  Elec       q    Type
REMARK                         _______ _______ _______ _____ _____    ______ ____
ROOT
ATOM      1  C   UNL     1       2.025   3.400  20.431  0.00  0.00    +0.000 C 
ATOM      2  N   UNL     1       2.758   4.128  19.402  0.00  0.00    +0.000 N 
ATOM      3 SE   UNL     1       2.859   5.925  19.398  0.00  0.00    +0.000 Se
ATOM      4  C   UNL     1       3.856   5.732  17.899  0.00  0.00    +0.000 A 
ATOM      5  C   UNL     1       4.412   6.775  17.158  0.00  0.00    +0.000 A 
ATOM      6  C   UNL     1       5.163   6.470  16.014  0.00  0.00    +0.000 A 
ATOM      7  C   UNL     1       5.350   5.132  15.628  0.00  0.00    +0.000 A 
ATOM      8  C   UNL     1       4.786   4.093  16.383  0.00  0.00    +0.000 A 
ATOM      9  C   UNL     1       4.037   4.414  17.522  0.00  0.00    +0.000 A 
ATOM     10  C   UNL     1       3.413   3.530  18.378  0.00  0.00    +0.000 A 
ATOM     11 CL   UNL     1       3.457   1.780  18.167  0.00  0.00    +0.000 Cl
ENDROOT
TORSDOF 0
ENDMDL
MODEL 4
REMARK VINA RESULT:      -5.3      1.130      1.183
REMARK  Name = 
REMARK  1 active torsions:
REMARK  status: ('A' for Active; 'I' for Inactive)
REMARK    1  A    between atoms: C_1  and  N_2
REMARK                            x       y       z     vdW  Elec       q    Type
REMARK                         _______ _______ _______ _____ _____    ______ ____
ROOT
ATOM      1  C   UNL     1       6.181   7.098  17.132  0.00  0.00    +0.000 C 
ATOM      2  N   UNL     1       5.262   5.984  17.332  0.00  0.00    +0.000 N 
ATOM      3 SE   UNL     1       5.804   4.271  17.229  0.00  0.00    +0.000 Se
ATOM      4  C   UNL     1       4.082   3.845  17.592  0.00  0.00    +0.000 A 
ATOM      5  C   UNL     1       3.577   2.549  17.706  0.00  0.00    +0.000 A 
ATOM      6  C   UNL     1       2.216   2.374  17.992  0.00  0.00    +0.000 A 
ATOM      7  C   UNL     1       1.380   3.491  18.161  0.00  0.00    +0.000 A 
ATOM      8  C   UNL     1       1.902   4.788  18.045  0.00  0.00    +0.000 A 
ATOM      9  C   UNL     1       3.263   4.946  17.757  0.00  0.00    +0.000 A 
ATOM     10  C   UNL     1       3.944   6.137  17.607  0.00  0.00    +0.000 A 
ATOM     11 CL   UNL     1       3.178   7.718  17.757  0.00  0.00    +0.000 Cl
ENDROOT
TORSDOF 0
ENDMDL
MODEL 5
REMARK VINA RESULT:      -5.2      1.845      3.804
REMARK  Name = 
REMARK  1 active torsions:
REMARK  status: ('A' for Active; 'I' for Inactive)
REMARK    1  A    between atoms: C_1  and  N_2
REMARK                            x       y       z     vdW  Elec       q    Type
REMARK                         _______ _______ _______ _____ _____    ______ ____
ROOT
ATOM      1  C   UNL     1       1.522   2.789  20.370  0.00  0.00    +0.000 C 
ATOM      2  N   UNL     1       2.375   3.399  19.357  0.00  0.00    +0.000 N 
ATOM      3 SE   UNL     1       3.208   2.418  18.099  0.00  0.00    +0.000 Se
ATOM      4  C   UNL     1       3.873   3.994  17.503  0.00  0.00    +0.000 A 
ATOM      5  C   UNL     1       4.728   4.149  16.411  0.00  0.00    +0.000 A 
ATOM      6  C   UNL     1       5.163   5.436  16.067  0.00  0.00    +0.000 A 
ATOM      7  C   UNL     1       4.739   6.548  16.814  0.00  0.00    +0.000 A 
ATOM      8  C   UNL     1       3.878   6.377  17.909  0.00  0.00    +0.000 A 
ATOM      9  C   UNL     1       3.454   5.085  18.240  0.00  0.00    +0.000 A 
ATOM     10  C   UNL     1       2.614   4.730  19.276  0.00  0.00    +0.000 A 
ATOM     11 CL   UNL     1       1.913   5.895  20.399  0.00  0.00    +0.000 Cl
ENDROOT
TORSDOF 0
ENDMDL
MODEL 6
REMARK VINA RESULT:      -5.2      1.627      1.895
REMARK  Name = 
REMARK  1 active torsions:
REMARK  status: ('A' for Active; 'I' for Inactive)
REMARK    1  A    between atoms: C_1  and  N_2
REMARK                            x       y       z     vdW  Elec       q    Type
REMARK                         _______ _______ _______ _____ _____    ______ ____
ROOT
ATOM      1  C   UNL     1       5.300   3.991  16.109  0.00  0.00    +0.000 C 
ATOM      2  N   UNL     1       4.327   3.896  17.190  0.00  0.00    +0.000 N 
ATOM      3 SE   UNL     1       3.669   2.314  17.741  0.00  0.00    +0.000 Se
ATOM      4  C   UNL     1       2.706   3.281  18.932  0.00  0.00    +0.000 A 
ATOM      5  C   UNL     1       1.816   2.755  19.869  0.00  0.00    +0.000 A 
ATOM      6  C   UNL     1       1.139   3.632  20.728  0.00  0.00    +0.000 A 
ATOM      7  C   UNL     1       1.361   5.016  20.643  0.00  0.00    +0.000 A 
ATOM      8  C   UNL     1       2.261   5.531  19.697  0.00  0.00    +0.000 A 
ATOM      9  C   UNL     1       2.927   4.643  18.844  0.00  0.00    +0.000 A 
ATOM     10  C   UNL     1       3.840   4.967  17.861  0.00  0.00    +0.000 A 
ATOM     11 CL   UNL     1       4.331   6.622  17.502  0.00  0.00    +0.000 Cl
ENDROOT
TORSDOF 0
ENDMDL
MODEL 7
REMARK VINA RESULT:      -5.2      1.455      1.455
REMARK  Name = 
REMARK  1 active torsions:
REMARK  status: ('A' for Active; 'I' for Inactive)
REMARK    1  A    between atoms: C_1  and  N_2
REMARK                            x       y       z     vdW  Elec       q    Type
REMARK                         _______ _______ _______ _____ _____    ______ ____
ROOT
ATOM      1  C   UNL     1       5.037   6.730  17.123  0.00  0.00    +0.000 C 
ATOM      2  N   UNL     1       4.395   5.779  18.024  0.00  0.00    +0.000 N 
ATOM      3 SE   UNL     1       5.120   4.172  18.385  0.00  0.00    +0.000 Se
ATOM      4  C   UNL     1       3.675   3.908  19.444  0.00  0.00    +0.000 A 
ATOM      5  C   UNL     1       3.423   2.760  20.196  0.00  0.00    +0.000 A 
ATOM      6  C   UNL     1       2.258   2.700  20.972  0.00  0.00    +0.000 A 
ATOM      7  C   UNL     1       1.363   3.783  20.989  0.00  0.00    +0.000 A 
ATOM      8  C   UNL     1       1.631   4.933  20.229  0.00  0.00    +0.000 A 
ATOM      9  C   UNL     1       2.798   4.976  19.458  0.00  0.00    +0.000 A 
ATOM     10  C   UNL     1       3.220   6.016  18.654  0.00  0.00    +0.000 A 
ATOM     11 CL   UNL     1       2.318   7.518  18.459  0.00  0.00    +0.000 Cl
ENDROOT
TORSDOF 0
ENDMDL
MODEL 8
REMARK VINA RESULT:      -5.1      2.064      3.836
REMARK  Name = 
REMARK  1 active torsions:
REMARK  status: ('A' for Active; 'I' for Inactive)
REMARK    1  A    between atoms: C_1  and  N_2
REMARK                            x       y       z     vdW  Elec       q    Type
REMARK                         _______ _______ _______ _____ _____    ______ ____
ROOT
ATOM      1  C   UNL     1       2.037   4.365  20.887  0.00  0.00    +0.000 C 
ATOM      2  N   UNL     1       2.842   4.576  19.689  0.00  0.00    +0.000 N 
ATOM      3 SE   UNL     1       3.662   3.216  18.841  0.00  0.00    +0.000 Se
ATOM      4  C   UNL     1       4.264   4.475  17.688  0.00  0.00    +0.000 A 
ATOM      5  C   UNL     1       5.080   4.234  16.582  0.00  0.00    +0.000 A 
ATOM      6  C   UNL     1       5.468   5.314  15.778  0.00  0.00    +0.000 A 
ATOM      7  C   UNL     1       5.038   6.616  16.085  0.00  0.00    +0.000 A 
ATOM      8  C   UNL     1       4.216   6.843  17.200  0.00  0.00    +0.000 A 
ATOM      9  C   UNL     1       3.839   5.754  17.995  0.00  0.00    +0.000 A 
ATOM     10  C   UNL     1       3.042   5.789  19.121  0.00  0.00    +0.000 A 
ATOM     11 CL   UNL     1       2.344   7.273  19.770  0.00  0.00    +0.000 Cl
ENDROOT
TORSDOF 0
ENDMDL
MODEL 9
REMARK VINA RESULT:      -5.1      2.046      2.512
REMARK  Name = 
REMARK  1 active torsions:
REMARK  status: ('A' for Active; 'I' for Inactive)
REMARK    1  A    between atoms: C_1  and  N_2
REMARK                            x       y       z     vdW  Elec       q    Type
REMARK                         _______ _______ _______ _____ _____    ______ ____
ROOT
ATOM      1  C   UNL     1       5.540   6.811  16.882  0.00  0.00    +0.000 C 
ATOM      2  N   UNL     1       4.507   5.895  17.351  0.00  0.00    +0.000 N 
ATOM      3 SE   UNL     1       3.132   6.453  18.369  0.00  0.00    +0.000 Se
ATOM      4  C   UNL     1       2.588   4.726  18.344  0.00  0.00    +0.000 A 
ATOM      5  C   UNL     1       1.447   4.228  18.975  0.00  0.00    +0.000 A 
ATOM      6  C   UNL     1       1.153   2.862  18.867  0.00  0.00    +0.000 A 
ATOM      7  C   UNL     1       1.997   2.014  18.131  0.00  0.00    +0.000 A 
ATOM      8  C   UNL     1       3.140   2.528  17.500  0.00  0.00    +0.000 A 
ATOM      9  C   UNL     1       3.421   3.895  17.619  0.00  0.00    +0.000 A 
ATOM     10  C   UNL     1       4.492   4.570  17.070  0.00  0.00    +0.000 A 
ATOM     11 CL   UNL     1       5.734   3.788  16.093  0.00  0.00    +0.000 Cl
ENDROOT
TORSDOF 0
ENDMDL
