MODEL 1
REMARK VINA RESULT:      -7.6      0.000      0.000
REMARK  Name = 
REMARK  5 active torsions:
REMARK  status: ('A' for Active; 'I' for Inactive)
REMARK    1  A    between atoms: C_1  and  C_2
REMARK    2  A    between atoms: C_3  and  C_4
REMARK    3  A    between atoms: C_4  and  C_6
REMARK    4  A    between atoms: C_7  and  C_8
REMARK    5  A    between atoms: C_11  and  N_12
REMARK                            x       y       z     vdW  Elec       q    Type
REMARK                         _______ _______ _______ _____ _____    ______ ____
ROOT
ATOM      1  C   UNL     1       1.128   3.108  18.473  0.00  0.00    +0.000 C 
ATOM      2  C   UNL     1       2.497   3.719  18.368  0.00  0.00    +0.000 A 
ATOM      3  C   UNL     1       3.133   4.532  19.349  0.00  0.00    +0.000 A 
ATOM      4  N   UNL     1       4.416   5.029  19.091  0.00  0.00    +0.000 N 
ATOM      5  O   UNL     1       5.012   5.855  19.860  0.00  0.00    +0.000 OA
ATOM      6  C   UNL     1       5.104   4.647  17.918  0.00  0.00    +0.000 A 
ATOM      7  C   UNL     1       6.452   5.023  17.711  0.00  0.00    +0.000 A 
ATOM      8  C   UNL     1       7.139   4.669  16.551  0.00  0.00    +0.000 A 
ATOM      9  C   UNL     1       6.487   3.949  15.562  0.00  0.00    +0.000 A 
ATOM     10  C   UNL     1       5.157   3.571  15.741  0.00  0.00    +0.000 A 
ATOM     11  C   UNL     1       4.457   3.891  16.927  0.00  0.00    +0.000 A 
ATOM     12  N   UNL     1       3.137   3.465  17.147  0.00  0.00    +0.000 N 
ATOM     13  O   UNL     1       2.526   2.825  16.223  0.00  0.00    +0.000 OA
ENDROOT
BRANCH   3  14
ATOM     14  C   UNL     1       2.445   4.923  20.639  0.00  0.00    +0.000 C 
ATOM     15  O   UNL     1       2.575   4.217  21.637  0.00  0.00    +0.000 OA
BRANCH  14  16
ATOM     16  C   UNL     1       1.582   6.140  20.751  0.00  0.00    +0.000 C 
ATOM     17  C   UNL     1       1.935   7.317  20.206  0.00  0.00    +0.000 C 
BRANCH  17  18
ATOM     18  C   UNL     1       1.250   8.532  20.663  0.00  0.00    +0.000 A 
ATOM     19  C   UNL     1       0.952   8.643  22.032  0.00  0.00    +0.000 A 
ATOM     20  C   UNL     1       0.171   9.697  22.513  0.00  0.00    +0.000 A 
ATOM     21  C   UNL     1      -0.318  10.652  21.615  0.00  0.00    +0.000 A 
ATOM     22  C   UNL     1      -0.009  10.569  20.250  0.00  0.00    +0.000 A 
ATOM     23  C   UNL     1       0.774   9.506  19.778  0.00  0.00    +0.000 A 
BRANCH  21  24
ATOM     24  N   UNL     1      -1.184  11.733  22.108  0.00  0.00    +0.000 N 
ATOM     25  O   UNL     1      -2.009  12.218  21.320  0.00  0.00    +0.000 OA
ATOM     26  O   UNL     1      -1.035  12.101  23.282  0.00  0.00    +0.000 OA
ENDBRANCH  21  24
ENDBRANCH  17  18
ENDBRANCH  14  16
ENDBRANCH   3  14
TORSDOF 4
ENDMDL
MODEL 2
REMARK VINA RESULT:      -7.5      3.087      9.231
REMARK  Name = 
REMARK  5 active torsions:
REMARK  status: ('A' for Active; 'I' for Inactive)
REMARK    1  A    between atoms: C_1  and  C_2
REMARK    2  A    between atoms: C_3  and  C_4
REMARK    3  A    between atoms: C_4  and  C_6
REMARK    4  A    between atoms: C_7  and  C_8
REMARK    5  A    between atoms: C_11  and  N_12
REMARK                            x       y       z     vdW  Elec       q    Type
REMARK                         _______ _______ _______ _____ _____    ______ ____
ROOT
ATOM      1  C   UNL     1       1.107  12.033  20.641  0.00  0.00    +0.000 C 
ATOM      2  C   UNL     1      -0.024  11.579  19.762  0.00  0.00    +0.000 A 
ATOM      3  C   UNL     1       0.061  10.629  18.705  0.00  0.00    +0.000 A 
ATOM      4  N   UNL     1      -1.094  10.320  17.976  0.00  0.00    +0.000 N 
ATOM      5  O   UNL     1      -1.087   9.569  16.944  0.00  0.00    +0.000 OA
ATOM      6  C   UNL     1      -2.340  10.872  18.349  0.00  0.00    +0.000 A 
ATOM      7  C   UNL     1      -3.536  10.460  17.715  0.00  0.00    +0.000 A 
ATOM      8  C   UNL     1      -4.770  11.008  18.060  0.00  0.00    +0.000 A 
ATOM      9  C   UNL     1      -4.835  11.994  19.031  0.00  0.00    +0.000 A 
ATOM     10  C   UNL     1      -3.668  12.420  19.667  0.00  0.00    +0.000 A 
ATOM     11  C   UNL     1      -2.413  11.849  19.355  0.00  0.00    +0.000 A 
ATOM     12  N   UNL     1      -1.240  12.225  20.029  0.00  0.00    +0.000 N 
ATOM     13  O   UNL     1      -1.294  13.155  20.905  0.00  0.00    +0.000 OA
ENDROOT
BRANCH   3  14
ATOM     14  C   UNL     1       1.369   9.981  18.308  0.00  0.00    +0.000 C 
ATOM     15  O   UNL     1       2.140  10.575  17.558  0.00  0.00    +0.000 OA
BRANCH  14  16
ATOM     16  C   UNL     1       1.762   8.616  18.778  0.00  0.00    +0.000 C 
ATOM     17  C   UNL     1       2.715   7.896  18.161  0.00  0.00    +0.000 C 
BRANCH  17  18
ATOM     18  C   UNL     1       2.786   6.455  18.428  0.00  0.00    +0.000 A 
ATOM     19  C   UNL     1       3.543   5.660  17.551  0.00  0.00    +0.000 A 
ATOM     20  C   UNL     1       3.532   4.266  17.655  0.00  0.00    +0.000 A 
ATOM     21  C   UNL     1       2.754   3.660  18.648  0.00  0.00    +0.000 A 
ATOM     22  C   UNL     1       2.013   4.440  19.547  0.00  0.00    +0.000 A 
ATOM     23  C   UNL     1       2.030   5.838  19.432  0.00  0.00    +0.000 A 
BRANCH  21  24
ATOM     24  N   UNL     1       2.697   2.194  18.728  0.00  0.00    +0.000 N 
ATOM     25  O   UNL     1       1.787   1.686  19.401  0.00  0.00    +0.000 OA
ATOM     26  O   UNL     1       3.566   1.549  18.123  0.00  0.00    +0.000 OA
ENDBRANCH  21  24
ENDBRANCH  17  18
ENDBRANCH  14  16
ENDBRANCH   3  14
TORSDOF 4
ENDMDL
MODEL 3
REMARK VINA RESULT:      -7.4      0.543      1.149
REMARK  Name = 
REMARK  5 active torsions:
REMARK  status: ('A' for Active; 'I' for Inactive)
REMARK    1  A    between atoms: C_1  and  C_2
REMARK    2  A    between atoms: C_3  and  C_4
REMARK    3  A    between atoms: C_4  and  C_6
REMARK    4  A    between atoms: C_7  and  C_8
REMARK    5  A    between atoms: C_11  and  N_12
REMARK                            x       y       z     vdW  Elec       q    Type
REMARK                         _______ _______ _______ _____ _____    ______ ____
ROOT
ATOM      1  C   UNL     1       1.056   3.158  18.416  0.00  0.00    +0.000 C 
ATOM      2  C   UNL     1       2.441   3.735  18.333  0.00  0.00    +0.000 A 
ATOM      3  C   UNL     1       3.113   4.459  19.358  0.00  0.00    +0.000 A 
ATOM      4  N   UNL     1       4.407   4.935  19.116  0.00  0.00    +0.000 N 
ATOM      5  O   UNL     1       5.038   5.687  19.931  0.00  0.00    +0.000 OA
ATOM      6  C   UNL     1       5.068   4.616  17.908  0.00  0.00    +0.000 A 
ATOM      7  C   UNL     1       6.424   4.967  17.707  0.00  0.00    +0.000 A 
ATOM      8  C   UNL     1       7.084   4.675  16.515  0.00  0.00    +0.000 A 
ATOM      9  C   UNL     1       6.398   4.046  15.489  0.00  0.00    +0.000 A 
ATOM     10  C   UNL     1       5.059   3.694  15.661  0.00  0.00    +0.000 A 
ATOM     11  C   UNL     1       4.386   3.950  16.878  0.00  0.00    +0.000 A 
ATOM     12  N   UNL     1       3.056   3.548  17.087  0.00  0.00    +0.000 N 
ATOM     13  O   UNL     1       2.414   2.993  16.131  0.00  0.00    +0.000 OA
ENDROOT
BRANCH   3  14
ATOM     14  C   UNL     1       2.455   4.778  20.683  0.00  0.00    +0.000 C 
ATOM     15  O   UNL     1       2.623   4.028  21.643  0.00  0.00    +0.000 OA
BRANCH  14  16
ATOM     16  C   UNL     1       1.576   5.973  20.874  0.00  0.00    +0.000 C 
ATOM     17  C   UNL     1       1.817   7.141  20.255  0.00  0.00    +0.000 C 
BRANCH  17  18
ATOM     18  C   UNL     1       1.160   8.351  20.765  0.00  0.00    +0.000 A 
ATOM     19  C   UNL     1       1.177   9.499  19.955  0.00  0.00    +0.000 A 
ATOM     20  C   UNL     1       0.706  10.724  20.436  0.00  0.00    +0.000 A 
ATOM     21  C   UNL     1       0.211  10.801  21.743  0.00  0.00    +0.000 A 
ATOM     22  C   UNL     1       0.164   9.659  22.555  0.00  0.00    +0.000 A 
ATOM     23  C   UNL     1       0.642   8.436  22.062  0.00  0.00    +0.000 A 
BRANCH  21  24
ATOM     24  N   UNL     1      -0.236  12.097  22.272  0.00  0.00    +0.000 N 
ATOM     25  O   UNL     1      -1.096  12.091  23.166  0.00  0.00    +0.000 OA
ATOM     26  O   UNL     1       0.268  13.121  21.791  0.00  0.00    +0.000 OA
ENDBRANCH  21  24
ENDBRANCH  17  18
ENDBRANCH  14  16
ENDBRANCH   3  14
TORSDOF 4
ENDMDL
MODEL 4
REMARK VINA RESULT:      -7.4      2.784      9.084
REMARK  Name = 
REMARK  5 active torsions:
REMARK  status: ('A' for Active; 'I' for Inactive)
REMARK    1  A    between atoms: C_1  and  C_2
REMARK    2  A    between atoms: C_3  and  C_4
REMARK    3  A    between atoms: C_4  and  C_6
REMARK    4  A    between atoms: C_7  and  C_8
REMARK    5  A    between atoms: C_11  and  N_12
REMARK                            x       y       z     vdW  Elec       q    Type
REMARK                         _______ _______ _______ _____ _____    ______ ____
ROOT
ATOM      1  C   UNL     1       0.960   8.309  21.286  0.00  0.00    +0.000 C 
ATOM      2  C   UNL     1       0.356   9.652  20.989  0.00  0.00    +0.000 A 
ATOM      3  C   UNL     1       0.167  10.223  19.699  0.00  0.00    +0.000 A 
ATOM      4  N   UNL     1      -0.410  11.494  19.596  0.00  0.00    +0.000 N 
ATOM      5  O   UNL     1      -0.512  12.127  18.493  0.00  0.00    +0.000 OA
ATOM      6  C   UNL     1      -0.883  12.155  20.752  0.00  0.00    +0.000 A 
ATOM      7  C   UNL     1      -1.596  13.374  20.651  0.00  0.00    +0.000 A 
ATOM      8  C   UNL     1      -2.055  14.046  21.783  0.00  0.00    +0.000 A 
ATOM      9  C   UNL     1      -1.793  13.528  23.040  0.00  0.00    +0.000 A 
ATOM     10  C   UNL     1      -1.088  12.331  23.166  0.00  0.00    +0.000 A 
ATOM     11  C   UNL     1      -0.648  11.617  22.027  0.00  0.00    +0.000 A 
ATOM     12  N   UNL     1       0.010  10.381  22.136  0.00  0.00    +0.000 N 
ATOM     13  O   UNL     1       0.277   9.916  23.297  0.00  0.00    +0.000 OA
ENDROOT
BRANCH   3  14
ATOM     14  C   UNL     1       0.618   9.523  18.435  0.00  0.00    +0.000 C 
ATOM     15  O   UNL     1      -0.145   9.449  17.474  0.00  0.00    +0.000 OA
BRANCH  14  16
ATOM     16  C   UNL     1       1.967   8.887  18.308  0.00  0.00    +0.000 C 
ATOM     17  C   UNL     1       2.154   7.742  17.629  0.00  0.00    +0.000 C 
BRANCH  17  18
ATOM     18  C   UNL     1       3.393   6.990  17.857  0.00  0.00    +0.000 A 
ATOM     19  C   UNL     1       3.473   6.188  19.008  0.00  0.00    +0.000 A 
ATOM     20  C   UNL     1       4.672   5.565  19.367  0.00  0.00    +0.000 A 
ATOM     21  C   UNL     1       5.804   5.746  18.564  0.00  0.00    +0.000 A 
ATOM     22  C   UNL     1       5.734   6.522  17.399  0.00  0.00    +0.000 A 
ATOM     23  C   UNL     1       4.527   7.145  17.050  0.00  0.00    +0.000 A 
BRANCH  21  24
ATOM     24  N   UNL     1       7.080   5.136  18.966  0.00  0.00    +0.000 N 
ATOM     25  O   UNL     1       7.662   4.417  18.140  0.00  0.00    +0.000 OA
ATOM     26  O   UNL     1       7.497   5.372  20.108  0.00  0.00    +0.000 OA
ENDBRANCH  21  24
ENDBRANCH  17  18
ENDBRANCH  14  16
ENDBRANCH   3  14
TORSDOF 4
ENDMDL
MODEL 5
REMARK VINA RESULT:      -7.3      3.039      9.216
REMARK  Name = 
REMARK  5 active torsions:
REMARK  status: ('A' for Active; 'I' for Inactive)
REMARK    1  A    between atoms: C_1  and  C_2
REMARK    2  A    between atoms: C_3  and  C_4
REMARK    3  A    between atoms: C_4  and  C_6
REMARK    4  A    between atoms: C_7  and  C_8
REMARK    5  A    between atoms: C_11  and  N_12
REMARK                            x       y       z     vdW  Elec       q    Type
REMARK                         _______ _______ _______ _____ _____    ______ ____
ROOT
ATOM      1  C   UNL     1       1.094  11.838  20.779  0.00  0.00    +0.000 C 
ATOM      2  C   UNL     1      -0.058  11.492  19.877  0.00  0.00    +0.000 A 
ATOM      3  C   UNL     1      -0.019  10.601  18.768  0.00  0.00    +0.000 A 
ATOM      4  N   UNL     1      -1.186  10.392  18.024  0.00  0.00    +0.000 N 
ATOM      5  O   UNL     1      -1.216   9.702  16.951  0.00  0.00    +0.000 OA
ATOM      6  C   UNL     1      -2.404  10.983  18.430  0.00  0.00    +0.000 A 
ATOM      7  C   UNL     1      -3.618  10.668  17.775  0.00  0.00    +0.000 A 
ATOM      8  C   UNL     1      -4.824  11.256  18.153  0.00  0.00    +0.000 A 
ATOM      9  C   UNL     1      -4.841  12.187  19.178  0.00  0.00    +0.000 A 
ATOM     10  C   UNL     1      -3.656  12.517  19.836  0.00  0.00    +0.000 A 
ATOM     11  C   UNL     1      -2.430  11.903  19.490  0.00  0.00    +0.000 A 
ATOM     12  N   UNL     1      -1.240  12.181  20.183  0.00  0.00    +0.000 N 
ATOM     13  O   UNL     1      -1.249  13.061  21.110  0.00  0.00    +0.000 OA
ENDROOT
BRANCH   3  14
ATOM     14  C   UNL     1       1.256   9.912  18.332  0.00  0.00    +0.000 C 
ATOM     15  O   UNL     1       2.180  10.577  17.868  0.00  0.00    +0.000 OA
BRANCH  14  16
ATOM     16  C   UNL     1       1.438   8.430  18.423  0.00  0.00    +0.000 C 
ATOM     17  C   UNL     1       1.992   7.844  19.498  0.00  0.00    +0.000 C 
BRANCH  17  18
ATOM     18  C   UNL     1       2.478   6.464  19.368  0.00  0.00    +0.000 A 
ATOM     19  C   UNL     1       1.959   5.500  20.249  0.00  0.00    +0.000 A 
ATOM     20  C   UNL     1       2.483   4.205  20.284  0.00  0.00    +0.000 A 
ATOM     21  C   UNL     1       3.538   3.870  19.428  0.00  0.00    +0.000 A 
ATOM     22  C   UNL     1       4.050   4.813  18.526  0.00  0.00    +0.000 A 
ATOM     23  C   UNL     1       3.518   6.111  18.501  0.00  0.00    +0.000 A 
BRANCH  21  24
ATOM     24  N   UNL     1       4.128   2.525  19.498  0.00  0.00    +0.000 N 
ATOM     25  O   UNL     1       5.110   2.363  20.237  0.00  0.00    +0.000 OA
ATOM     26  O   UNL     1       3.612   1.633  18.810  0.00  0.00    +0.000 OA
ENDBRANCH  21  24
ENDBRANCH  17  18
ENDBRANCH  14  16
ENDBRANCH   3  14
TORSDOF 4
ENDMDL
MODEL 6
REMARK VINA RESULT:      -7.3      2.853      9.179
REMARK  Name = 
REMARK  5 active torsions:
REMARK  status: ('A' for Active; 'I' for Inactive)
REMARK    1  A    between atoms: C_1  and  C_2
REMARK    2  A    between atoms: C_3  and  C_4
REMARK    3  A    between atoms: C_4  and  C_6
REMARK    4  A    between atoms: C_7  and  C_8
REMARK    5  A    between atoms: C_11  and  N_12
REMARK                            x       y       z     vdW  Elec       q    Type
REMARK                         _______ _______ _______ _____ _____    ______ ____
ROOT
ATOM      1  C   UNL     1       1.181   8.212  21.151  0.00  0.00    +0.000 C 
ATOM      2  C   UNL     1       0.505   9.525  20.871  0.00  0.00    +0.000 A 
ATOM      3  C   UNL     1       0.265  10.090  19.586  0.00  0.00    +0.000 A 
ATOM      4  N   UNL     1      -0.376  11.332  19.500  0.00  0.00    +0.000 N 
ATOM      5  O   UNL     1      -0.530  11.963  18.401  0.00  0.00    +0.000 OA
ATOM      6  C   UNL     1      -0.861  11.964  20.666  0.00  0.00    +0.000 A 
ATOM      7  C   UNL     1      -1.635  13.146  20.584  0.00  0.00    +0.000 A 
ATOM      8  C   UNL     1      -2.106  13.791  21.726  0.00  0.00    +0.000 A 
ATOM      9  C   UNL     1      -1.796  13.283  22.976  0.00  0.00    +0.000 A 
ATOM     10  C   UNL     1      -1.030  12.121  23.084  0.00  0.00    +0.000 A 
ATOM     11  C   UNL     1      -0.576  11.435  21.935  0.00  0.00    +0.000 A 
ATOM     12  N   UNL     1       0.144  10.232  22.026  0.00  0.00    +0.000 N 
ATOM     13  O   UNL     1       0.455   9.777  23.181  0.00  0.00    +0.000 OA
ENDROOT
BRANCH   3  14
ATOM     14  C   UNL     1       0.727   9.418  18.312  0.00  0.00    +0.000 C 
ATOM     15  O   UNL     1      -0.048   9.311  17.364  0.00  0.00    +0.000 OA
BRANCH  14  16
ATOM     16  C   UNL     1       2.103   8.849  18.159  0.00  0.00    +0.000 C 
ATOM     17  C   UNL     1       2.309   7.579  17.771  0.00  0.00    +0.000 C 
BRANCH  17  18
ATOM     18  C   UNL     1       3.631   6.984  18.003  0.00  0.00    +0.000 A 
ATOM     19  C   UNL     1       4.673   7.338  17.129  0.00  0.00    +0.000 A 
ATOM     20  C   UNL     1       5.914   6.699  17.196  0.00  0.00    +0.000 A 
ATOM     21  C   UNL     1       6.116   5.694  18.149  0.00  0.00    +0.000 A 
ATOM     22  C   UNL     1       5.094   5.347  19.044  0.00  0.00    +0.000 A 
ATOM     23  C   UNL     1       3.853   5.993  18.966  0.00  0.00    +0.000 A 
BRANCH  21  24
ATOM     24  N   UNL     1       7.401   4.982  18.189  0.00  0.00    +0.000 N 
ATOM     25  O   UNL     1       8.035   4.992  19.254  0.00  0.00    +0.000 OA
ATOM     26  O   UNL     1       7.779   4.417  17.153  0.00  0.00    +0.000 OA
ENDBRANCH  21  24
ENDBRANCH  17  18
ENDBRANCH  14  16
ENDBRANCH   3  14
TORSDOF 4
ENDMDL
MODEL 7
REMARK VINA RESULT:      -7.3      3.028      9.173
REMARK  Name = 
REMARK  5 active torsions:
REMARK  status: ('A' for Active; 'I' for Inactive)
REMARK    1  A    between atoms: C_1  and  C_2
REMARK    2  A    between atoms: C_3  and  C_4
REMARK    3  A    between atoms: C_4  and  C_6
REMARK    4  A    between atoms: C_7  and  C_8
REMARK    5  A    between atoms: C_11  and  N_12
REMARK                            x       y       z     vdW  Elec       q    Type
REMARK                         _______ _______ _______ _____ _____    ______ ____
ROOT
ATOM      1  C   UNL     1       1.438  12.384  20.584  0.00  0.00    +0.000 C 
ATOM      2  C   UNL     1       0.207  11.950  19.839  0.00  0.00    +0.000 A 
ATOM      3  C   UNL     1       0.138  10.927  18.852  0.00  0.00    +0.000 A 
ATOM      4  N   UNL     1      -1.093  10.649  18.247  0.00  0.00    +0.000 N 
ATOM      5  O   UNL     1      -1.225   9.831  17.276  0.00  0.00    +0.000 OA
ATOM      6  C   UNL     1      -2.264  11.311  18.681  0.00  0.00    +0.000 A 
ATOM      7  C   UNL     1      -3.535  10.940  18.181  0.00  0.00    +0.000 A 
ATOM      8  C   UNL     1      -4.697  11.595  18.586  0.00  0.00    +0.000 A 
ATOM      9  C   UNL     1      -4.613  12.647  19.483  0.00  0.00    +0.000 A 
ATOM     10  C   UNL     1      -3.370  13.034  19.986  0.00  0.00    +0.000 A 
ATOM     11  C   UNL     1      -2.186  12.357  19.614  0.00  0.00    +0.000 A 
ATOM     12  N   UNL     1      -0.936  12.695  20.158  0.00  0.00    +0.000 N 
ATOM     13  O   UNL     1      -0.854  13.685  20.964  0.00  0.00    +0.000 OA
ENDROOT
BRANCH   3  14
ATOM     14  C   UNL     1       1.363  10.164  18.396  0.00  0.00    +0.000 C 
ATOM     15  O   UNL     1       2.057  10.612  17.486  0.00  0.00    +0.000 OA
BRANCH  14  16
ATOM     16  C   UNL     1       1.762   8.854  18.999  0.00  0.00    +0.000 C 
ATOM     17  C   UNL     1       2.326   7.876  18.270  0.00  0.00    +0.000 C 
BRANCH  17  18
ATOM     18  C   UNL     1       2.343   6.515  18.820  0.00  0.00    +0.000 A 
ATOM     19  C   UNL     1       2.472   5.444  17.919  0.00  0.00    +0.000 A 
ATOM     20  C   UNL     1       2.344   4.122  18.354  0.00  0.00    +0.000 A 
ATOM     21  C   UNL     1       2.085   3.868  19.706  0.00  0.00    +0.000 A 
ATOM     22  C   UNL     1       1.978   4.925  20.621  0.00  0.00    +0.000 A 
ATOM     23  C   UNL     1       2.105   6.247  20.173  0.00  0.00    +0.000 A 
BRANCH  21  24
ATOM     24  N   UNL     1       1.897   2.482  20.159  0.00  0.00    +0.000 N 
ATOM     25  O   UNL     1       1.978   1.581  19.311  0.00  0.00    +0.000 OA
ATOM     26  O   UNL     1       1.662   2.295  21.361  0.00  0.00    +0.000 OA
ENDBRANCH  21  24
ENDBRANCH  17  18
ENDBRANCH  14  16
ENDBRANCH   3  14
TORSDOF 4
ENDMDL
MODEL 8
REMARK VINA RESULT:      -7.3      2.141      3.680
REMARK  Name = 
REMARK  5 active torsions:
REMARK  status: ('A' for Active; 'I' for Inactive)
REMARK    1  A    between atoms: C_1  and  C_2
REMARK    2  A    between atoms: C_3  and  C_4
REMARK    3  A    between atoms: C_4  and  C_6
REMARK    4  A    between atoms: C_7  and  C_8
REMARK    5  A    between atoms: C_11  and  N_12
REMARK                            x       y       z     vdW  Elec       q    Type
REMARK                         _______ _______ _______ _____ _____    ______ ____
ROOT
ATOM      1  C   UNL     1       7.035   6.698  18.248  0.00  0.00    +0.000 C 
ATOM      2  C   UNL     1       6.517   5.725  17.227  0.00  0.00    +0.000 A 
ATOM      3  C   UNL     1       5.467   4.783  17.419  0.00  0.00    +0.000 A 
ATOM      4  N   UNL     1       5.108   3.941  16.360  0.00  0.00    +0.000 N 
ATOM      5  O   UNL     1       4.260   2.995  16.477  0.00  0.00    +0.000 OA
ATOM      6  C   UNL     1       5.716   4.093  15.093  0.00  0.00    +0.000 A 
ATOM      7  C   UNL     1       5.265   3.349  13.977  0.00  0.00    +0.000 A 
ATOM      8  C   UNL     1       5.865   3.475  12.725  0.00  0.00    +0.000 A 
ATOM      9  C   UNL     1       6.942   4.331  12.566  0.00  0.00    +0.000 A 
ATOM     10  C   UNL     1       7.408   5.072  13.652  0.00  0.00    +0.000 A 
ATOM     11  C   UNL     1       6.787   4.983  14.920  0.00  0.00    +0.000 A 
ATOM     12  N   UNL     1       7.207   5.767  16.007  0.00  0.00    +0.000 N 
ATOM     13  O   UNL     1       8.219   6.537  15.868  0.00  0.00    +0.000 OA
ENDROOT
BRANCH   3  14
ATOM     14  C   UNL     1       4.761   4.625  18.748  0.00  0.00    +0.000 C 
ATOM     15  O   UNL     1       5.137   3.763  19.539  0.00  0.00    +0.000 OA
BRANCH  14  16
ATOM     16  C   UNL     1       3.590   5.471  19.139  0.00  0.00    +0.000 C 
ATOM     17  C   UNL     1       3.176   6.506  18.388  0.00  0.00    +0.000 C 
BRANCH  17  18
ATOM     18  C   UNL     1       2.288   7.502  18.999  0.00  0.00    +0.000 A 
ATOM     19  C   UNL     1       1.930   8.623  18.232  0.00  0.00    +0.000 A 
ATOM     20  C   UNL     1       1.215   9.682  18.798  0.00  0.00    +0.000 A 
ATOM     21  C   UNL     1       0.851   9.618  20.148  0.00  0.00    +0.000 A 
ATOM     22  C   UNL     1       1.179   8.494  20.921  0.00  0.00    +0.000 A 
ATOM     23  C   UNL     1       1.900   7.440  20.343  0.00  0.00    +0.000 A 
BRANCH  21  24
ATOM     24  N   UNL     1       0.145  10.751  20.762  0.00  0.00    +0.000 N 
ATOM     25  O   UNL     1      -0.947  11.082  20.278  0.00  0.00    +0.000 OA
ATOM     26  O   UNL     1       0.685  11.314  21.725  0.00  0.00    +0.000 OA
ENDBRANCH  21  24
ENDBRANCH  17  18
ENDBRANCH  14  16
ENDBRANCH   3  14
TORSDOF 4
ENDMDL
MODEL 9
REMARK VINA RESULT:      -7.3      3.029      8.850
REMARK  Name = 
REMARK  5 active torsions:
REMARK  status: ('A' for Active; 'I' for Inactive)
REMARK    1  A    between atoms: C_1  and  C_2
REMARK    2  A    between atoms: C_3  and  C_4
REMARK    3  A    between atoms: C_4  and  C_6
REMARK    4  A    between atoms: C_7  and  C_8
REMARK    5  A    between atoms: C_11  and  N_12
REMARK                            x       y       z     vdW  Elec       q    Type
REMARK                         _______ _______ _______ _____ _____    ______ ____
ROOT
ATOM      1  C   UNL     1      -1.591  12.070  21.941  0.00  0.00    +0.000 C 
ATOM      2  C   UNL     1      -1.669  11.567  20.527  0.00  0.00    +0.000 A 
ATOM      3  C   UNL     1      -0.710  10.744  19.873  0.00  0.00    +0.000 A 
ATOM      4  N   UNL     1      -0.933  10.366  18.543  0.00  0.00    +0.000 N 
ATOM      5  O   UNL     1      -0.076   9.727  17.846  0.00  0.00    +0.000 OA
ATOM      6  C   UNL     1      -2.139  10.718  17.897  0.00  0.00    +0.000 A 
ATOM      7  C   UNL     1      -2.442  10.225  16.605  0.00  0.00    +0.000 A 
ATOM      8  C   UNL     1      -3.620  10.578  15.948  0.00  0.00    +0.000 A 
ATOM      9  C   UNL     1      -4.509  11.448  16.556  0.00  0.00    +0.000 A 
ATOM     10  C   UNL     1      -4.230  11.952  17.826  0.00  0.00    +0.000 A 
ATOM     11  C   UNL     1      -3.058  11.575  18.522  0.00  0.00    +0.000 A 
ATOM     12  N   UNL     1      -2.794  12.026  19.826  0.00  0.00    +0.000 N 
ATOM     13  O   UNL     1      -3.601  12.852  20.377  0.00  0.00    +0.000 OA
ENDROOT
BRANCH   3  14
ATOM     14  C   UNL     1       0.571  10.306  20.550  0.00  0.00    +0.000 C 
ATOM     15  O   UNL     1       1.332  11.151  21.018  0.00  0.00    +0.000 OA
BRANCH  14  16
ATOM     16  C   UNL     1       0.970   8.868  20.656  0.00  0.00    +0.000 C 
ATOM     17  C   UNL     1       1.945   8.341  19.895  0.00  0.00    +0.000 C 
BRANCH  17  18
ATOM     18  C   UNL     1       2.026   6.880  19.779  0.00  0.00    +0.000 A 
ATOM     19  C   UNL     1       2.421   6.340  18.543  0.00  0.00    +0.000 A 
ATOM     20  C   UNL     1       2.376   4.962  18.315  0.00  0.00    +0.000 A 
ATOM     21  C   UNL     1       1.930   4.113  19.335  0.00  0.00    +0.000 A 
ATOM     22  C   UNL     1       1.556   4.634  20.582  0.00  0.00    +0.000 A 
ATOM     23  C   UNL     1       1.604   6.019  20.799  0.00  0.00    +0.000 A 
BRANCH  21  24
ATOM     24  N   UNL     1       1.830   2.669  19.082  0.00  0.00    +0.000 N 
ATOM     25  O   UNL     1       2.841   1.977  19.273  0.00  0.00    +0.000 OA
ATOM     26  O   UNL     1       0.742   2.227  18.688  0.00  0.00    +0.000 OA
ENDBRANCH  21  24
ENDBRANCH  17  18
ENDBRANCH  14  16
ENDBRANCH   3  14
TORSDOF 4
ENDMDL
