MODEL 1
REMARK VINA RESULT:      -7.5      0.000      0.000
REMARK  Name = 
REMARK  10 active torsions:
REMARK  status: ('A' for Active; 'I' for Inactive)
REMARK    1  A    between atoms: C_1  and  C_2
REMARK    2  A    between atoms: C_6  and  C_8
REMARK    3  A    between atoms: C_8  and  C_9
REMARK    4  A    between atoms: C_8  and  N_18
REMARK    5  A    between atoms: C_9  and  C_10
REMARK    6  A    between atoms: C_10  and  N_11
REMARK    7  A    between atoms: C_15  and  C_16
REMARK    8  A    between atoms: N_18  and  S_19
REMARK    9  A    between atoms: S_19  and  C_22
REMARK   10  A    between atoms: N_30  and  C_31
REMARK                            x       y       z     vdW  Elec       q    Type
REMARK                         _______ _______ _______ _____ _____    ______ ____
ROOT
ATOM      1  C   UNL     1       2.798   6.829  19.171  0.00  0.00    +0.000 C 
ENDROOT
BRANCH   1   7
ATOM      2  C   UNL     1       6.592   4.167  14.272  0.00  0.00    +0.000 C 
ATOM      3  C   UNL     1       6.490   5.180  15.423  0.00  0.00    +0.000 C 
ATOM      4  C   UNL     1       6.719   4.492  16.776  0.00  0.00    +0.000 C 
ATOM      5  C   UNL     1       6.375   5.397  17.971  0.00  0.00    +0.000 C 
ATOM      6  N   UNL     1       5.031   6.042  17.862  0.00  0.00    +0.000 N 
ATOM      7  C   UNL     1       4.205   6.075  18.986  0.00  0.00    +0.000 C 
ATOM      8  O   UNL     1       4.601   5.457  19.994  0.00  0.00    +0.000 OA
ATOM      9  C   UNL     1       4.900   6.799  16.629  0.00  0.00    +0.000 C 
ATOM     10  C   UNL     1       5.126   5.893  15.407  0.00  0.00    +0.000 C 
ENDBRANCH   1   7
BRANCH   1  11
ATOM     11  N   UNL     1       2.062   7.056  20.463  0.00  0.00    +0.000 NA
ATOM     12  H   UNL     1       2.798   7.184  21.169  0.00  0.00    +0.000 HD
BRANCH  11  13
ATOM     13  S   UNL     1       1.131   8.462  20.787  0.00  0.00    +0.000 S 
ATOM     14  O   UNL     1      -0.175   7.963  21.215  0.00  0.00    +0.000 OA
ATOM     15  O   UNL     1       1.961   9.118  21.823  0.00  0.00    +0.000 OA
BRANCH  13  16
ATOM     16  C   UNL     1       0.792   9.743  19.558  0.00  0.00    +0.000 A 
ATOM     17  C   UNL     1      -0.231   9.388  18.686  0.00  0.00    +0.000 A 
ATOM     18  C   UNL     1      -1.187  10.349  18.428  0.00  0.00    +0.000 A 
ATOM     19  C   UNL     1      -0.836  11.690  18.365  0.00  0.00    +0.000 A 
ATOM     20  C   UNL     1       0.371  12.052  18.973  0.00  0.00    +0.000 A 
ATOM     21  C   UNL     1       1.323  11.060  19.324  0.00  0.00    +0.000 A 
ATOM     22  C   UNL     1       2.350  11.534  18.335  0.00  0.00    +0.000 A 
ATOM     23  C   UNL     1       2.144  12.880  18.028  0.00  0.00    +0.000 A 
ATOM     24  N   UNL     1       1.089  13.218  18.816  0.00  0.00    +0.000 N 
ATOM     25  C   UNL     1       1.121  14.304  19.765  0.00  0.00    +0.000 C 
ENDBRANCH  13  16
ENDBRANCH  11  13
ENDBRANCH   1  11
BRANCH   1  26
ATOM     26  C   UNL     1       1.811   6.081  18.251  0.00  0.00    +0.000 C 
BRANCH  26  27
ATOM     27  C   UNL     1       1.383   4.766  18.910  0.00  0.00    +0.000 C 
BRANCH  27  28
ATOM     28  N   UNL     1       2.200   3.614  18.601  0.00  0.00    +0.000 N 
ATOM     29  C   UNL     1       2.655   3.221  17.373  0.00  0.00    +0.000 A 
ATOM     30  C   UNL     1       3.357   2.014  17.512  0.00  0.00    +0.000 A 
ATOM     31  C   UNL     1       3.285   1.672  18.864  0.00  0.00    +0.000 A 
ATOM     32  C   UNL     1       2.630   2.684  19.535  0.00  0.00    +0.000 A 
BRANCH  32  33
ATOM     33  C   UNL     1       2.369   2.796  20.949  0.00  0.00    +0.000 C 
ATOM     34  N   UNL     1       2.193   2.913  22.082  0.00  0.00    +0.000 NA
ENDBRANCH  32  33
ENDBRANCH  27  28
ENDBRANCH  26  27
ENDBRANCH   1  26
TORSDOF 8
ENDMDL
MODEL 2
REMARK VINA RESULT:      -7.3      1.743      2.624
REMARK  Name = 
REMARK  10 active torsions:
REMARK  status: ('A' for Active; 'I' for Inactive)
REMARK    1  A    between atoms: C_1  and  C_2
REMARK    2  A    between atoms: C_6  and  C_8
REMARK    3  A    between atoms: C_8  and  C_9
REMARK    4  A    between atoms: C_8  and  N_18
REMARK    5  A    between atoms: C_9  and  C_10
REMARK    6  A    between atoms: C_10  and  N_11
REMARK    7  A    between atoms: C_15  and  C_16
REMARK    8  A    between atoms: N_18  and  S_19
REMARK    9  A    between atoms: S_19  and  C_22
REMARK   10  A    between atoms: N_30  and  C_31
REMARK                            x       y       z     vdW  Elec       q    Type
REMARK                         _______ _______ _______ _____ _____    ______ ____
ROOT
ATOM      1  C   UNL     1       2.606   6.639  19.107  0.00  0.00    +0.000 C 
ENDROOT
BRANCH   1   7
ATOM      2  C   UNL     1       6.830   4.364  14.368  0.00  0.00    +0.000 C 
ATOM      3  C   UNL     1       6.584   5.364  15.508  0.00  0.00    +0.000 C 
ATOM      4  C   UNL     1       6.830   4.704  16.872  0.00  0.00    +0.000 C 
ATOM      5  C   UNL     1       6.352   5.572  18.049  0.00  0.00    +0.000 C 
ATOM      6  N   UNL     1       4.955   6.079  17.887  0.00  0.00    +0.000 N 
ATOM      7  C   UNL     1       4.088   6.030  18.979  0.00  0.00    +0.000 C 
ATOM      8  O   UNL     1       4.506   5.457  20.004  0.00  0.00    +0.000 OA
ATOM      9  C   UNL     1       4.794   6.817  16.645  0.00  0.00    +0.000 C 
ATOM     10  C   UNL     1       5.156   5.936  15.438  0.00  0.00    +0.000 C 
ENDBRANCH   1   7
BRANCH   1  11
ATOM     11  N   UNL     1       2.242   8.061  19.434  0.00  0.00    +0.000 NA
ATOM     12  H   UNL     1       3.132   8.513  19.679  0.00  0.00    +0.000 HD
BRANCH  11  13
ATOM     13  S   UNL     1       1.682   9.186  18.265  0.00  0.00    +0.000 S 
ATOM     14  O   UNL     1       2.759  10.167  18.135  0.00  0.00    +0.000 OA
ATOM     15  O   UNL     1       1.452   8.298  17.103  0.00  0.00    +0.000 OA
BRANCH  13  16
ATOM     16  C   UNL     1       0.161  10.145  18.448  0.00  0.00    +0.000 A 
ATOM     17  C   UNL     1       0.289  11.178  19.370  0.00  0.00    +0.000 A 
ATOM     18  C   UNL     1      -0.213  12.408  18.995  0.00  0.00    +0.000 A 
ATOM     19  C   UNL     1      -1.355  12.492  18.212  0.00  0.00    +0.000 A 
ATOM     20  C   UNL     1      -1.708  11.346  17.491  0.00  0.00    +0.000 A 
ATOM     21  C   UNL     1      -1.129  10.091  17.811  0.00  0.00    +0.000 A 
ATOM     22  C   UNL     1      -2.422   9.487  18.281  0.00  0.00    +0.000 A 
ATOM     23  C   UNL     1      -3.506  10.143  17.696  0.00  0.00    +0.000 A 
ATOM     24  N   UNL     1      -2.912  11.058  16.884  0.00  0.00    +0.000 N 
ATOM     25  C   UNL     1      -3.165  11.148  15.467  0.00  0.00    +0.000 C 
ENDBRANCH  13  16
ENDBRANCH  11  13
ENDBRANCH   1  11
BRANCH   1  26
ATOM     26  C   UNL     1       1.899   5.770  20.168  0.00  0.00    +0.000 C 
BRANCH  26  27
ATOM     27  C   UNL     1       1.125   4.640  19.481  0.00  0.00    +0.000 C 
BRANCH  27  28
ATOM     28  N   UNL     1       1.929   3.588  18.904  0.00  0.00    +0.000 N 
ATOM     29  C   UNL     1       2.186   3.367  17.578  0.00  0.00    +0.000 A 
ATOM     30  C   UNL     1       2.957   2.202  17.451  0.00  0.00    +0.000 A 
ATOM     31  C   UNL     1       3.133   1.705  18.745  0.00  0.00    +0.000 A 
ATOM     32  C   UNL     1       2.556   2.589  19.632  0.00  0.00    +0.000 A 
BRANCH  32  33
ATOM     33  C   UNL     1       2.536   2.523  21.073  0.00  0.00    +0.000 C 
ATOM     34  N   UNL     1       2.494   2.502  22.225  0.00  0.00    +0.000 NA
ENDBRANCH  32  33
ENDBRANCH  27  28
ENDBRANCH  26  27
ENDBRANCH   1  26
TORSDOF 8
ENDMDL
MODEL 3
REMARK VINA RESULT:      -7.3      1.711      2.195
REMARK  Name = 
REMARK  10 active torsions:
REMARK  status: ('A' for Active; 'I' for Inactive)
REMARK    1  A    between atoms: C_1  and  C_2
REMARK    2  A    between atoms: C_6  and  C_8
REMARK    3  A    between atoms: C_8  and  C_9
REMARK    4  A    between atoms: C_8  and  N_18
REMARK    5  A    between atoms: C_9  and  C_10
REMARK    6  A    between atoms: C_10  and  N_11
REMARK    7  A    between atoms: C_15  and  C_16
REMARK    8  A    between atoms: N_18  and  S_19
REMARK    9  A    between atoms: S_19  and  C_22
REMARK   10  A    between atoms: N_30  and  C_31
REMARK                            x       y       z     vdW  Elec       q    Type
REMARK                         _______ _______ _______ _____ _____    ______ ____
ROOT
ATOM      1  C   UNL     1       3.143   6.788  18.671  0.00  0.00    +0.000 C 
ENDROOT
BRANCH   1   7
ATOM      2  C   UNL     1       6.607   3.844  13.690  0.00  0.00    +0.000 C 
ATOM      3  C   UNL     1       6.598   4.889  14.816  0.00  0.00    +0.000 C 
ATOM      4  C   UNL     1       6.856   4.226  16.176  0.00  0.00    +0.000 C 
ATOM      5  C   UNL     1       6.602   5.175  17.360  0.00  0.00    +0.000 C 
ATOM      6  N   UNL     1       5.283   5.874  17.291  0.00  0.00    +0.000 N 
ATOM      7  C   UNL     1       4.508   5.970  18.447  0.00  0.00    +0.000 C 
ATOM      8  O   UNL     1       4.922   5.361  19.454  0.00  0.00    +0.000 OA
ATOM      9  C   UNL     1       5.130   6.605  16.044  0.00  0.00    +0.000 C 
ATOM     10  C   UNL     1       5.265   5.659  14.839  0.00  0.00    +0.000 C 
ENDBRANCH   1   7
BRANCH   1  11
ATOM     11  N   UNL     1       3.003   8.274  18.850  0.00  0.00    +0.000 NA
ATOM     12  H   UNL     1       3.720   8.684  18.236  0.00  0.00    +0.000 HD
BRANCH  11  13
ATOM     13  S   UNL     1       1.642   9.168  18.308  0.00  0.00    +0.000 S 
ATOM     14  O   UNL     1       2.200  10.293  17.558  0.00  0.00    +0.000 OA
ATOM     15  O   UNL     1       0.923   8.141  17.521  0.00  0.00    +0.000 OA
BRANCH  13  16
ATOM     16  C   UNL     1       0.406   9.879  19.418  0.00  0.00    +0.000 A 
ATOM     17  C   UNL     1       0.299   9.181  20.615  0.00  0.00    +0.000 A 
ATOM     18  C   UNL     1       0.254   9.935  21.770  0.00  0.00    +0.000 A 
ATOM     19  C   UNL     1      -0.383  11.168  21.780  0.00  0.00    +0.000 A 
ATOM     20  C   UNL     1      -0.584  11.781  20.539  0.00  0.00    +0.000 A 
ATOM     21  C   UNL     1      -0.451  11.033  19.340  0.00  0.00    +0.000 A 
ATOM     22  C   UNL     1      -1.905  11.144  18.977  0.00  0.00    +0.000 A 
ATOM     23  C   UNL     1      -2.473  12.266  19.581  0.00  0.00    +0.000 A 
ATOM     24  N   UNL     1      -1.422  12.832  20.233  0.00  0.00    +0.000 N 
ATOM     25  C   UNL     1      -0.996  14.195  20.025  0.00  0.00    +0.000 C 
ENDBRANCH  13  16
ENDBRANCH  11  13
ENDBRANCH   1  11
BRANCH   1  26
ATOM     26  C   UNL     1       2.486   6.152  19.914  0.00  0.00    +0.000 C 
BRANCH  26  27
ATOM     27  C   UNL     1       1.435   5.127  19.478  0.00  0.00    +0.000 C 
BRANCH  27  28
ATOM     28  N   UNL     1       1.949   3.901  18.911  0.00  0.00    +0.000 N 
ATOM     29  C   UNL     1       2.106   3.598  17.586  0.00  0.00    +0.000 A 
ATOM     30  C   UNL     1       2.575   2.281  17.473  0.00  0.00    +0.000 A 
ATOM     31  C   UNL     1       2.667   1.784  18.775  0.00  0.00    +0.000 A 
ATOM     32  C   UNL     1       2.342   2.798  19.652  0.00  0.00    +0.000 A 
BRANCH  32  33
ATOM     33  C   UNL     1       2.350   2.769  21.094  0.00  0.00    +0.000 C 
ATOM     34  N   UNL     1       2.343   2.785  22.246  0.00  0.00    +0.000 NA
ENDBRANCH  32  33
ENDBRANCH  27  28
ENDBRANCH  26  27
ENDBRANCH   1  26
TORSDOF 8
ENDMDL
MODEL 4
REMARK VINA RESULT:      -7.2      3.262      7.921
REMARK  Name = 
REMARK  10 active torsions:
REMARK  status: ('A' for Active; 'I' for Inactive)
REMARK    1  A    between atoms: C_1  and  C_2
REMARK    2  A    between atoms: C_6  and  C_8
REMARK    3  A    between atoms: C_8  and  C_9
REMARK    4  A    between atoms: C_8  and  N_18
REMARK    5  A    between atoms: C_9  and  C_10
REMARK    6  A    between atoms: C_10  and  N_11
REMARK    7  A    between atoms: C_15  and  C_16
REMARK    8  A    between atoms: N_18  and  S_19
REMARK    9  A    between atoms: S_19  and  C_22
REMARK   10  A    between atoms: N_30  and  C_31
REMARK                            x       y       z     vdW  Elec       q    Type
REMARK                         _______ _______ _______ _____ _____    ______ ____
ROOT
ATOM      1  C   UNL     1       4.474   4.669  17.635  0.00  0.00    +0.000 C 
ENDROOT
BRANCH   1   7
ATOM      2  C   UNL     1      -0.058   9.120  19.901  0.00  0.00    +0.000 C 
ATOM      3  C   UNL     1       1.419   8.812  19.613  0.00  0.00    +0.000 C 
ATOM      4  C   UNL     1       1.737   9.011  18.125  0.00  0.00    +0.000 C 
ATOM      5  C   UNL     1       3.124   8.471  17.734  0.00  0.00    +0.000 C 
ATOM      6  N   UNL     1       3.374   7.075  18.204  0.00  0.00    +0.000 N 
ATOM      7  C   UNL     1       3.969   6.164  17.330  0.00  0.00    +0.000 C 
ATOM      8  O   UNL     1       4.154   6.548  16.159  0.00  0.00    +0.000 OA
ATOM      9  C   UNL     1       3.196   6.955  19.642  0.00  0.00    +0.000 C 
ATOM     10  C   UNL     1       1.776   7.380  20.052  0.00  0.00    +0.000 C 
ENDBRANCH   1   7
BRANCH   1  11
ATOM     11  N   UNL     1       5.859   4.126  17.419  0.00  0.00    +0.000 NA
ATOM     12  H   UNL     1       5.719   3.201  16.993  0.00  0.00    +0.000 HD
BRANCH  11  13
ATOM     13  S   UNL     1       6.966   4.782  16.282  0.00  0.00    +0.000 S 
ATOM     14  O   UNL     1       7.081   6.196  16.636  0.00  0.00    +0.000 OA
ATOM     15  O   UNL     1       8.158   3.939  16.530  0.00  0.00    +0.000 OA
BRANCH  13  16
ATOM     16  C   UNL     1       6.707   4.740  14.495  0.00  0.00    +0.000 A 
ATOM     17  C   UNL     1       7.345   5.786  13.838  0.00  0.00    +0.000 A 
ATOM     18  C   UNL     1       8.049   5.462  12.696  0.00  0.00    +0.000 A 
ATOM     19  C   UNL     1       7.593   4.463  11.848  0.00  0.00    +0.000 A 
ATOM     20  C   UNL     1       6.683   3.548  12.390  0.00  0.00    +0.000 A 
ATOM     21  C   UNL     1       6.021   3.832  13.612  0.00  0.00    +0.000 A 
ATOM     22  C   UNL     1       4.660   3.928  12.983  0.00  0.00    +0.000 A 
ATOM     23  C   UNL     1       4.623   3.203  11.791  0.00  0.00    +0.000 A 
ATOM     24  N   UNL     1       5.868   2.660  11.722  0.00  0.00    +0.000 N 
ATOM     25  C   UNL     1       6.113   1.243  11.601  0.00  0.00    +0.000 C 
ENDBRANCH  13  16
ENDBRANCH  11  13
ENDBRANCH   1  11
BRANCH   1  26
ATOM     26  C   UNL     1       3.532   3.749  16.831  0.00  0.00    +0.000 C 
BRANCH  26  27
ATOM     27  C   UNL     1       3.036   2.608  17.725  0.00  0.00    +0.000 C 
BRANCH  27  28
ATOM     28  N   UNL     1       2.379   3.007  18.949  0.00  0.00    +0.000 N 
ATOM     29  C   UNL     1       1.167   3.628  19.079  0.00  0.00    +0.000 A 
ATOM     30  C   UNL     1       0.936   3.894  20.437  0.00  0.00    +0.000 A 
ATOM     31  C   UNL     1       2.065   3.441  21.123  0.00  0.00    +0.000 A 
ATOM     32  C   UNL     1       2.916   2.845  20.217  0.00  0.00    +0.000 A 
BRANCH  32  33
ATOM     33  C   UNL     1       4.174   2.188  20.470  0.00  0.00    +0.000 C 
ATOM     34  N   UNL     1       5.190   1.667  20.633  0.00  0.00    +0.000 NA
ENDBRANCH  32  33
ENDBRANCH  27  28
ENDBRANCH  26  27
ENDBRANCH   1  26
TORSDOF 8
ENDMDL
MODEL 5
REMARK VINA RESULT:      -7.2      1.463      1.705
REMARK  Name = 
REMARK  10 active torsions:
REMARK  status: ('A' for Active; 'I' for Inactive)
REMARK    1  A    between atoms: C_1  and  C_2
REMARK    2  A    between atoms: C_6  and  C_8
REMARK    3  A    between atoms: C_8  and  C_9
REMARK    4  A    between atoms: C_8  and  N_18
REMARK    5  A    between atoms: C_9  and  C_10
REMARK    6  A    between atoms: C_10  and  N_11
REMARK    7  A    between atoms: C_15  and  C_16
REMARK    8  A    between atoms: N_18  and  S_19
REMARK    9  A    between atoms: S_19  and  C_22
REMARK   10  A    between atoms: N_30  and  C_31
REMARK                            x       y       z     vdW  Elec       q    Type
REMARK                         _______ _______ _______ _____ _____    ______ ____
ROOT
ATOM      1  C   UNL     1       2.641   6.559  18.879  0.00  0.00    +0.000 C 
ENDROOT
BRANCH   1   7
ATOM      2  C   UNL     1       6.921   4.140  14.262  0.00  0.00    +0.000 C 
ATOM      3  C   UNL     1       6.636   5.214  15.324  0.00  0.00    +0.000 C 
ATOM      4  C   UNL     1       6.935   4.679  16.732  0.00  0.00    +0.000 C 
ATOM      5  C   UNL     1       6.425   5.612  17.844  0.00  0.00    +0.000 C 
ATOM      6  N   UNL     1       5.001   6.029  17.666  0.00  0.00    +0.000 N 
ATOM      7  C   UNL     1       4.152   6.022  18.774  0.00  0.00    +0.000 C 
ATOM      8  O   UNL     1       4.614   5.555  19.833  0.00  0.00    +0.000 OA
ATOM      9  C   UNL     1       4.785   6.656  16.373  0.00  0.00    +0.000 C 
ATOM     10  C   UNL     1       5.179   5.701  15.233  0.00  0.00    +0.000 C 
ENDBRANCH   1   7
BRANCH   1  11
ATOM     11  N   UNL     1       2.202   7.930  19.312  0.00  0.00    +0.000 NA
ATOM     12  H   UNL     1       3.055   8.383  19.664  0.00  0.00    +0.000 HD
BRANCH  11  13
ATOM     13  S   UNL     1       1.683   9.147  18.217  0.00  0.00    +0.000 S 
ATOM     14  O   UNL     1       2.815   9.354  17.315  0.00  0.00    +0.000 OA
ATOM     15  O   UNL     1       0.481   8.509  17.634  0.00  0.00    +0.000 OA
BRANCH  13  16
ATOM     16  C   UNL     1       1.153  10.796  18.732  0.00  0.00    +0.000 A 
ATOM     17  C   UNL     1      -0.213  10.864  18.985  0.00  0.00    +0.000 A 
ATOM     18  C   UNL     1      -0.597  11.515  20.138  0.00  0.00    +0.000 A 
ATOM     19  C   UNL     1       0.113  12.618  20.593  0.00  0.00    +0.000 A 
ATOM     20  C   UNL     1       1.417  12.766  20.110  0.00  0.00    +0.000 A 
ATOM     21  C   UNL     1       1.851  12.031  18.977  0.00  0.00    +0.000 A 
ATOM     22  C   UNL     1       2.012  13.247  18.108  0.00  0.00    +0.000 A 
ATOM     23  C   UNL     1       2.212  14.383  18.894  0.00  0.00    +0.000 A 
ATOM     24  N   UNL     1       2.222  13.884  20.160  0.00  0.00    +0.000 N 
ATOM     25  C   UNL     1       3.315  14.076  21.082  0.00  0.00    +0.000 C 
ENDBRANCH  13  16
ENDBRANCH  11  13
ENDBRANCH   1  11
BRANCH   1  26
ATOM     26  C   UNL     1       1.921   5.571  19.820  0.00  0.00    +0.000 C 
BRANCH  26  27
ATOM     27  C   UNL     1       1.335   4.413  19.005  0.00  0.00    +0.000 C 
BRANCH  27  28
ATOM     28  N   UNL     1       2.260   3.359  18.655  0.00  0.00    +0.000 N 
ATOM     29  C   UNL     1       2.706   3.023  17.406  0.00  0.00    +0.000 A 
ATOM     30  C   UNL     1       3.541   1.900  17.507  0.00  0.00    +0.000 A 
ATOM     31  C   UNL     1       3.560   1.547  18.858  0.00  0.00    +0.000 A 
ATOM     32  C   UNL     1       2.826   2.477  19.563  0.00  0.00    +0.000 A 
BRANCH  32  33
ATOM     33  C   UNL     1       2.611   2.555  20.987  0.00  0.00    +0.000 C 
ATOM     34  N   UNL     1       2.405   2.593  22.120  0.00  0.00    +0.000 NA
ENDBRANCH  32  33
ENDBRANCH  27  28
ENDBRANCH  26  27
ENDBRANCH   1  26
TORSDOF 8
ENDMDL
MODEL 6
REMARK VINA RESULT:      -7.2      1.610      2.270
REMARK  Name = 
REMARK  10 active torsions:
REMARK  status: ('A' for Active; 'I' for Inactive)
REMARK    1  A    between atoms: C_1  and  C_2
REMARK    2  A    between atoms: C_6  and  C_8
REMARK    3  A    between atoms: C_8  and  C_9
REMARK    4  A    between atoms: C_8  and  N_18
REMARK    5  A    between atoms: C_9  and  C_10
REMARK    6  A    between atoms: C_10  and  N_11
REMARK    7  A    between atoms: C_15  and  C_16
REMARK    8  A    between atoms: N_18  and  S_19
REMARK    9  A    between atoms: S_19  and  C_22
REMARK   10  A    between atoms: N_30  and  C_31
REMARK                            x       y       z     vdW  Elec       q    Type
REMARK                         _______ _______ _______ _____ _____    ______ ____
ROOT
ATOM      1  C   UNL     1       2.636   6.624  18.929  0.00  0.00    +0.000 C 
ENDROOT
BRANCH   1   7
ATOM      2  C   UNL     1       6.882   4.207  14.281  0.00  0.00    +0.000 C 
ATOM      3  C   UNL     1       6.626   5.249  15.381  0.00  0.00    +0.000 C 
ATOM      4  C   UNL     1       6.880   4.647  16.770  0.00  0.00    +0.000 C 
ATOM      5  C   UNL     1       6.393   5.557  17.911  0.00  0.00    +0.000 C 
ATOM      6  N   UNL     1       4.990   6.041  17.730  0.00  0.00    +0.000 N 
ATOM      7  C   UNL     1       4.124   6.027  18.824  0.00  0.00    +0.000 C 
ATOM      8  O   UNL     1       4.549   5.499  19.871  0.00  0.00    +0.000 OA
ATOM      9  C   UNL     1       4.821   6.727  16.460  0.00  0.00    +0.000 C 
ATOM     10  C   UNL     1       5.193   5.802  15.288  0.00  0.00    +0.000 C 
ENDBRANCH   1   7
BRANCH   1  11
ATOM     11  N   UNL     1       2.249   7.995  19.409  0.00  0.00    +0.000 NA
ATOM     12  H   UNL     1       3.132   8.436  19.697  0.00  0.00    +0.000 HD
BRANCH  11  13
ATOM     13  S   UNL     1       1.657   9.229  18.373  0.00  0.00    +0.000 S 
ATOM     14  O   UNL     1       2.811   9.638  17.572  0.00  0.00    +0.000 OA
ATOM     15  O   UNL     1       0.581   8.507  17.658  0.00  0.00    +0.000 OA
BRANCH  13  16
ATOM     16  C   UNL     1       0.902  10.759  18.967  0.00  0.00    +0.000 A 
ATOM     17  C   UNL     1       1.722  11.867  18.782  0.00  0.00    +0.000 A 
ATOM     18  C   UNL     1       1.126  12.998  18.264  0.00  0.00    +0.000 A 
ATOM     19  C   UNL     1      -0.183  13.318  18.594  0.00  0.00    +0.000 A 
ATOM     20  C   UNL     1      -0.976  12.279  19.093  0.00  0.00    +0.000 A 
ATOM     21  C   UNL     1      -0.378  11.075  19.545  0.00  0.00    +0.000 A 
ATOM     22  C   UNL     1      -0.774  11.285  20.979  0.00  0.00    +0.000 A 
ATOM     23  C   UNL     1      -1.887  12.123  21.059  0.00  0.00    +0.000 A 
ATOM     24  N   UNL     1      -2.182  12.369  19.755  0.00  0.00    +0.000 N 
ATOM     25  C   UNL     1      -3.471  12.100  19.165  0.00  0.00    +0.000 C 
ENDBRANCH  13  16
ENDBRANCH  11  13
ENDBRANCH   1  11
BRANCH   1  26
ATOM     26  C   UNL     1       1.860   5.632  19.820  0.00  0.00    +0.000 C 
BRANCH  26  27
ATOM     27  C   UNL     1       1.299   4.494  18.962  0.00  0.00    +0.000 C 
BRANCH  27  28
ATOM     28  N   UNL     1       2.221   3.424  18.656  0.00  0.00    +0.000 N 
ATOM     29  C   UNL     1       2.756   3.107  17.438  0.00  0.00    +0.000 A 
ATOM     30  C   UNL     1       3.551   1.959  17.573  0.00  0.00    +0.000 A 
ATOM     31  C   UNL     1       3.454   1.571  18.912  0.00  0.00    +0.000 A 
ATOM     32  C   UNL     1       2.690   2.504  19.581  0.00  0.00    +0.000 A 
BRANCH  32  33
ATOM     33  C   UNL     1       2.365   2.551  20.986  0.00  0.00    +0.000 C 
ATOM     34  N   UNL     1       2.081   2.621  22.101  0.00  0.00    +0.000 NA
ENDBRANCH  32  33
ENDBRANCH  27  28
ENDBRANCH  26  27
ENDBRANCH   1  26
TORSDOF 8
ENDMDL
MODEL 7
REMARK VINA RESULT:      -7.2      1.764      2.068
REMARK  Name = 
REMARK  10 active torsions:
REMARK  status: ('A' for Active; 'I' for Inactive)
REMARK    1  A    between atoms: C_1  and  C_2
REMARK    2  A    between atoms: C_6  and  C_8
REMARK    3  A    between atoms: C_8  and  C_9
REMARK    4  A    between atoms: C_8  and  N_18
REMARK    5  A    between atoms: C_9  and  C_10
REMARK    6  A    between atoms: C_10  and  N_11
REMARK    7  A    between atoms: C_15  and  C_16
REMARK    8  A    between atoms: N_18  and  S_19
REMARK    9  A    between atoms: S_19  and  C_22
REMARK   10  A    between atoms: N_30  and  C_31
REMARK                            x       y       z     vdW  Elec       q    Type
REMARK                         _______ _______ _______ _____ _____    ______ ____
ROOT
ATOM      1  C   UNL     1       2.762   6.631  18.992  0.00  0.00    +0.000 C 
ENDROOT
BRANCH   1   7
ATOM      2  C   UNL     1       6.787   4.161  14.177  0.00  0.00    +0.000 C 
ATOM      3  C   UNL     1       6.595   5.195  15.298  0.00  0.00    +0.000 C 
ATOM      4  C   UNL     1       6.876   4.567  16.670  0.00  0.00    +0.000 C 
ATOM      5  C   UNL     1       6.452   5.474  17.838  0.00  0.00    +0.000 C 
ATOM      6  N   UNL     1       5.059   5.999  17.709  0.00  0.00    +0.000 N 
ATOM      7  C   UNL     1       4.229   5.994  18.830  0.00  0.00    +0.000 C 
ATOM      8  O   UNL     1       4.672   5.440  19.856  0.00  0.00    +0.000 OA
ATOM      9  C   UNL     1       4.868   6.707  16.454  0.00  0.00    +0.000 C 
ATOM     10  C   UNL     1       5.176   5.789  15.259  0.00  0.00    +0.000 C 
ENDBRANCH   1   7
BRANCH   1  11
ATOM     11  N   UNL     1       2.433   8.048  19.371  0.00  0.00    +0.000 NA
ATOM     12  H   UNL     1       3.341   8.529  19.414  0.00  0.00    +0.000 HD
BRANCH  11  13
ATOM     13  S   UNL     1       1.601   9.136  18.336  0.00  0.00    +0.000 S 
ATOM     14  O   UNL     1       2.649   9.801  17.562  0.00  0.00    +0.000 OA
ATOM     15  O   UNL     1       0.722   8.204  17.593  0.00  0.00    +0.000 OA
BRANCH  13  16
ATOM     16  C   UNL     1       0.516  10.452  18.931  0.00  0.00    +0.000 A 
ATOM     17  C   UNL     1      -0.340  10.927  17.943  0.00  0.00    +0.000 A 
ATOM     18  C   UNL     1      -1.661  11.098  18.300  0.00  0.00    +0.000 A 
ATOM     19  C   UNL     1      -1.996  11.516  19.580  0.00  0.00    +0.000 A 
ATOM     20  C   UNL     1      -1.024  11.343  20.571  0.00  0.00    +0.000 A 
ATOM     21  C   UNL     1       0.323  11.076  20.214  0.00  0.00    +0.000 A 
ATOM     22  C   UNL     1       0.843  12.379  20.751  0.00  0.00    +0.000 A 
ATOM     23  C   UNL     1      -0.015  12.877  21.733  0.00  0.00    +0.000 A 
ATOM     24  N   UNL     1      -0.972  11.914  21.824  0.00  0.00    +0.000 N 
ATOM     25  C   UNL     1      -1.309  11.241  23.055  0.00  0.00    +0.000 C 
ENDBRANCH  13  16
ENDBRANCH  11  13
ENDBRANCH   1  11
BRANCH   1  26
ATOM     26  C   UNL     1       2.043   5.741  20.027  0.00  0.00    +0.000 C 
BRANCH  26  27
ATOM     27  C   UNL     1       1.285   4.620  19.309  0.00  0.00    +0.000 C 
BRANCH  27  28
ATOM     28  N   UNL     1       2.095   3.531  18.813  0.00  0.00    +0.000 N 
ATOM     29  C   UNL     1       2.400   3.247  17.510  0.00  0.00    +0.000 A 
ATOM     30  C   UNL     1       3.157   2.066  17.467  0.00  0.00    +0.000 A 
ATOM     31  C   UNL     1       3.273   1.626  18.788  0.00  0.00    +0.000 A 
ATOM     32  C   UNL     1       2.675   2.557  19.611  0.00  0.00    +0.000 A 
BRANCH  32  33
ATOM     33  C   UNL     1       2.596   2.557  21.051  0.00  0.00    +0.000 C 
ATOM     34  N   UNL     1       2.492   2.564  22.199  0.00  0.00    +0.000 NA
ENDBRANCH  32  33
ENDBRANCH  27  28
ENDBRANCH  26  27
ENDBRANCH   1  26
TORSDOF 8
ENDMDL
MODEL 8
REMARK VINA RESULT:      -7.2      1.807      2.644
REMARK  Name = 
REMARK  10 active torsions:
REMARK  status: ('A' for Active; 'I' for Inactive)
REMARK    1  A    between atoms: C_1  and  C_2
REMARK    2  A    between atoms: C_6  and  C_8
REMARK    3  A    between atoms: C_8  and  C_9
REMARK    4  A    between atoms: C_8  and  N_18
REMARK    5  A    between atoms: C_9  and  C_10
REMARK    6  A    between atoms: C_10  and  N_11
REMARK    7  A    between atoms: C_15  and  C_16
REMARK    8  A    between atoms: N_18  and  S_19
REMARK    9  A    between atoms: S_19  and  C_22
REMARK   10  A    between atoms: N_30  and  C_31
REMARK                            x       y       z     vdW  Elec       q    Type
REMARK                         _______ _______ _______ _____ _____    ______ ____
ROOT
ATOM      1  C   UNL     1       4.508   4.852  19.077  0.00  0.00    +0.000 C 
ENDROOT
BRANCH   1   7
ATOM      2  C   UNL     1       6.401   3.618  12.723  0.00  0.00    +0.000 C 
ATOM      3  C   UNL     1       6.295   4.641  13.865  0.00  0.00    +0.000 C 
ATOM      4  C   UNL     1       7.450   4.467  14.860  0.00  0.00    +0.000 C 
ATOM      5  C   UNL     1       7.253   5.283  16.150  0.00  0.00    +0.000 C 
ATOM      6  N   UNL     1       5.908   5.096  16.774  0.00  0.00    +0.000 N 
ATOM      7  C   UNL     1       5.823   4.923  18.156  0.00  0.00    +0.000 C 
ATOM      8  O   UNL     1       6.900   4.823  18.778  0.00  0.00    +0.000 OA
ATOM      9  C   UNL     1       4.837   5.401  15.840  0.00  0.00    +0.000 C 
ATOM     10  C   UNL     1       4.940   4.518  14.586  0.00  0.00    +0.000 C 
ENDBRANCH   1   7
BRANCH   1  11
ATOM     11  N   UNL     1       3.773   6.014  19.687  0.00  0.00    +0.000 NA
ATOM     12  H   UNL     1       4.504   6.702  19.912  0.00  0.00    +0.000 HD
BRANCH  11  13
ATOM     13  S   UNL     1       2.710   7.030  18.802  0.00  0.00    +0.000 S 
ATOM     14  O   UNL     1       3.575   7.806  17.915  0.00  0.00    +0.000 OA
ATOM     15  O   UNL     1       1.831   6.028  18.158  0.00  0.00    +0.000 OA
BRANCH  13  16
ATOM     16  C   UNL     1       1.595   8.226  19.574  0.00  0.00    +0.000 A 
ATOM     17  C   UNL     1       1.178   7.827  20.839  0.00  0.00    +0.000 A 
ATOM     18  C   UNL     1       1.211   8.784  21.832  0.00  0.00    +0.000 A 
ATOM     19  C   UNL     1       0.929  10.111  21.540  0.00  0.00    +0.000 A 
ATOM     20  C   UNL     1       1.034  10.494  20.198  0.00  0.00    +0.000 A 
ATOM     21  C   UNL     1       1.091   9.513  19.175  0.00  0.00    +0.000 A 
ATOM     22  C   UNL     1      -0.233   9.898  18.577  0.00  0.00    +0.000 A 
ATOM     23  C   UNL     1      -0.543  11.221  18.892  0.00  0.00    +0.000 A 
ATOM     24  N   UNL     1       0.545  11.634  19.597  0.00  0.00    +0.000 N 
ATOM     25  C   UNL     1       1.338  12.784  19.236  0.00  0.00    +0.000 C 
ENDBRANCH  13  16
ENDBRANCH  11  13
ENDBRANCH   1  11
BRANCH   1  26
ATOM     26  C   UNL     1       4.882   3.927  20.253  0.00  0.00    +0.000 C 
BRANCH  26  27
ATOM     27  C   UNL     1       4.372   2.509  19.980  0.00  0.00    +0.000 C 
BRANCH  27  28
ATOM     28  N   UNL     1       3.133   2.418  19.241  0.00  0.00    +0.000 N 
ATOM     29  C   UNL     1       2.979   2.300  17.887  0.00  0.00    +0.000 A 
ATOM     30  C   UNL     1       1.609   2.309  17.582  0.00  0.00    +0.000 A 
ATOM     31  C   UNL     1       0.939   2.469  18.797  0.00  0.00    +0.000 A 
ATOM     32  C   UNL     1       1.872   2.473  19.812  0.00  0.00    +0.000 A 
BRANCH  32  33
ATOM     33  C   UNL     1       1.645   2.558  21.234  0.00  0.00    +0.000 C 
ATOM     34  N   UNL     1       1.425   2.638  22.363  0.00  0.00    +0.000 NA
ENDBRANCH  32  33
ENDBRANCH  27  28
ENDBRANCH  26  27
ENDBRANCH   1  26
TORSDOF 8
ENDMDL
MODEL 9
REMARK VINA RESULT:      -7.1      1.918      3.105
REMARK  Name = 
REMARK  10 active torsions:
REMARK  status: ('A' for Active; 'I' for Inactive)
REMARK    1  A    between atoms: C_1  and  C_2
REMARK    2  A    between atoms: C_6  and  C_8
REMARK    3  A    between atoms: C_8  and  C_9
REMARK    4  A    between atoms: C_8  and  N_18
REMARK    5  A    between atoms: C_9  and  C_10
REMARK    6  A    between atoms: C_10  and  N_11
REMARK    7  A    between atoms: C_15  and  C_16
REMARK    8  A    between atoms: N_18  and  S_19
REMARK    9  A    between atoms: S_19  and  C_22
REMARK   10  A    between atoms: N_30  and  C_31
REMARK                            x       y       z     vdW  Elec       q    Type
REMARK                         _______ _______ _______ _____ _____    ______ ____
ROOT
ATOM      1  C   UNL     1       4.699   5.004  18.794  0.00  0.00    +0.000 C 
ENDROOT
BRANCH   1   7
ATOM      2  C   UNL     1       6.589   3.527  12.491  0.00  0.00    +0.000 C 
ATOM      3  C   UNL     1       6.353   4.617  13.548  0.00  0.00    +0.000 C 
ATOM      4  C   UNL     1       7.548   4.713  14.507  0.00  0.00    +0.000 C 
ATOM      5  C   UNL     1       7.260   5.598  15.732  0.00  0.00    +0.000 C 
ATOM      6  N   UNL     1       5.979   5.259  16.424  0.00  0.00    +0.000 N 
ATOM      7  C   UNL     1       5.961   5.198  17.818  0.00  0.00    +0.000 C 
ATOM      8  O   UNL     1       7.056   5.322  18.401  0.00  0.00    +0.000 OA
ATOM      9  C   UNL     1       4.848   5.312  15.512  0.00  0.00    +0.000 C 
ATOM     10  C   UNL     1       5.056   4.348  14.332  0.00  0.00    +0.000 C 
ENDBRANCH   1   7
BRANCH   1  11
ATOM     11  N   UNL     1       3.908   6.091  19.467  0.00  0.00    +0.000 NA
ATOM     12  H   UNL     1       4.602   6.804  19.726  0.00  0.00    +0.000 HD
BRANCH  11  13
ATOM     13  S   UNL     1       2.786   7.095  18.642  0.00  0.00    +0.000 S 
ATOM     14  O   UNL     1       3.599   7.920  17.749  0.00  0.00    +0.000 OA
ATOM     15  O   UNL     1       1.919   6.082  17.998  0.00  0.00    +0.000 OA
BRANCH  13  16
ATOM     16  C   UNL     1       1.659   8.234  19.477  0.00  0.00    +0.000 A 
ATOM     17  C   UNL     1       1.259   7.770  20.726  0.00  0.00    +0.000 A 
ATOM     18  C   UNL     1       1.286   8.680  21.762  0.00  0.00    +0.000 A 
ATOM     19  C   UNL     1       0.979  10.015  21.535  0.00  0.00    +0.000 A 
ATOM     20  C   UNL     1       1.066  10.461  20.212  0.00  0.00    +0.000 A 
ATOM     21  C   UNL     1       1.130   9.531  19.143  0.00  0.00    +0.000 A 
ATOM     22  C   UNL     1      -0.205   9.920  18.574  0.00  0.00    +0.000 A 
ATOM     23  C   UNL     1      -0.534  11.222  18.953  0.00  0.00    +0.000 A 
ATOM     24  N   UNL     1       0.553  11.619  19.668  0.00  0.00    +0.000 N 
ATOM     25  C   UNL     1       1.324  12.798  19.355  0.00  0.00    +0.000 C 
ENDBRANCH  13  16
ENDBRANCH  11  13
ENDBRANCH   1  11
BRANCH   1  26
ATOM     26  C   UNL     1       5.197   4.084  19.927  0.00  0.00    +0.000 C 
BRANCH  26  27
ATOM     27  C   UNL     1       4.452   2.746  19.873  0.00  0.00    +0.000 C 
BRANCH  27  28
ATOM     28  N   UNL     1       3.065   2.782  20.279  0.00  0.00    +0.000 N 
ATOM     29  C   UNL     1       2.571   2.798  21.555  0.00  0.00    +0.000 A 
ATOM     30  C   UNL     1       1.169   2.767  21.500  0.00  0.00    +0.000 A 
ATOM     31  C   UNL     1       0.831   2.700  20.146  0.00  0.00    +0.000 A 
ATOM     32  C   UNL     1       1.990   2.772  19.404  0.00  0.00    +0.000 A 
BRANCH  32  33
ATOM     33  C   UNL     1       2.132   2.795  17.968  0.00  0.00    +0.000 C 
ATOM     34  N   UNL     1       2.215   2.841  16.820  0.00  0.00    +0.000 NA
ENDBRANCH  32  33
ENDBRANCH  27  28
ENDBRANCH  26  27
ENDBRANCH   1  26
TORSDOF 8
ENDMDL
