MODEL 1
REMARK VINA RESULT:      -7.2      0.000      0.000
REMARK  Name = 
REMARK  4 active torsions:
REMARK  status: ('A' for Active; 'I' for Inactive)
REMARK    1  A    between atoms: C_1  and  C_2
REMARK    2  A    between atoms: C_3  and  C_4
REMARK    3  A    between atoms: C_7  and  O_8
REMARK    4  A    between atoms: C_16  and  O_17
REMARK                            x       y       z     vdW  Elec       q    Type
REMARK                         _______ _______ _______ _____ _____    ______ ____
ROOT
ATOM      1  C   UNL     1       6.192   5.155  19.263  0.00  0.00    +0.000 C 
ATOM      2  C   UNL     1       5.358   4.594  18.165  0.00  0.00    +0.000 C 
ATOM      3  C   UNL     1       4.170   3.958  18.239  0.00  0.00    +0.000 C 
ATOM      4  C   UNL     1       3.768   3.567  16.860  0.00  0.00    +0.000 C 
ATOM      5  O   UNL     1       2.765   2.972  16.519  0.00  0.00    +0.000 OA
ATOM      6  C   UNL     1       4.823   4.041  15.972  0.00  0.00    +0.000 A 
ATOM      7  C   UNL     1       4.933   3.931  14.598  0.00  0.00    +0.000 A 
ATOM      8  C   UNL     1       6.067   4.487  13.999  0.00  0.00    +0.000 A 
ATOM      9  C   UNL     1       7.035   5.121  14.793  0.00  0.00    +0.000 A 
ATOM     10  C   UNL     1       6.903   5.217  16.181  0.00  0.00    +0.000 A 
ATOM     11  C   UNL     1       5.777   4.663  16.769  0.00  0.00    +0.000 A 
ENDROOT
BRANCH   3  12
ATOM     12  C   UNL     1       3.409   3.676  19.451  0.00  0.00    +0.000 A 
ATOM     13  C   UNL     1       3.798   2.638  20.309  0.00  0.00    +0.000 A 
ATOM     14  C   UNL     1       3.002   2.293  21.406  0.00  0.00    +0.000 A 
ATOM     15  C   UNL     1       1.823   2.992  21.643  0.00  0.00    +0.000 A 
ATOM     16  C   UNL     1       1.445   4.049  20.823  0.00  0.00    +0.000 A 
ATOM     17  C   UNL     1       2.236   4.390  19.724  0.00  0.00    +0.000 A 
BRANCH  15  18
ATOM     18  O   UNL     1       0.992   2.659  22.671  0.00  0.00    +0.000 OA
ATOM     19  H   UNL     1       0.776   1.715  22.601  0.00  0.00    +0.000 HD
ENDBRANCH  15  18
ENDBRANCH   3  12
BRANCH   9  20
ATOM     20  O   UNL     1       8.150   5.673  14.232  0.00  0.00    +0.000 OA
ATOM     21  H   UNL     1       8.443   6.420  14.779  0.00  0.00    +0.000 HD
ENDBRANCH   9  20
TORSDOF 3
ENDMDL
MODEL 2
REMARK VINA RESULT:      -7.1      3.937      7.099
REMARK  Name = 
REMARK  4 active torsions:
REMARK  status: ('A' for Active; 'I' for Inactive)
REMARK    1  A    between atoms: C_1  and  C_2
REMARK    2  A    between atoms: C_3  and  C_4
REMARK    3  A    between atoms: C_7  and  O_8
REMARK    4  A    between atoms: C_16  and  O_17
REMARK                            x       y       z     vdW  Elec       q    Type
REMARK                         _______ _______ _______ _____ _____    ______ ____
ROOT
ATOM      1  C   UNL     1       2.280   5.428  20.838  0.00  0.00    +0.000 C 
ATOM      2  C   UNL     1       2.111   6.648  20.003  0.00  0.00    +0.000 C 
ATOM      3  C   UNL     1       2.592   6.908  18.769  0.00  0.00    +0.000 C 
ATOM      4  C   UNL     1       2.167   8.283  18.387  0.00  0.00    +0.000 C 
ATOM      5  O   UNL     1       2.411   8.876  17.355  0.00  0.00    +0.000 OA
ATOM      6  C   UNL     1       1.386   8.799  19.505  0.00  0.00    +0.000 A 
ATOM      7  C   UNL     1       0.767  10.027  19.653  0.00  0.00    +0.000 A 
ATOM      8  C   UNL     1       0.075  10.255  20.845  0.00  0.00    +0.000 A 
ATOM      9  C   UNL     1       0.032   9.256  21.830  0.00  0.00    +0.000 A 
ATOM     10  C   UNL     1       0.668   8.024  21.658  0.00  0.00    +0.000 A 
ATOM     11  C   UNL     1       1.354   7.804  20.474  0.00  0.00    +0.000 A 
ENDROOT
BRANCH   3  12
ATOM     12  C   UNL     1       3.405   6.018  17.948  0.00  0.00    +0.000 A 
ATOM     13  C   UNL     1       2.948   4.732  17.627  0.00  0.00    +0.000 A 
ATOM     14  C   UNL     1       3.777   3.839  16.940  0.00  0.00    +0.000 A 
ATOM     15  C   UNL     1       5.058   4.239  16.572  0.00  0.00    +0.000 A 
ATOM     16  C   UNL     1       5.510   5.525  16.850  0.00  0.00    +0.000 A 
ATOM     17  C   UNL     1       4.684   6.414  17.540  0.00  0.00    +0.000 A 
BRANCH  15  18
ATOM     18  O   UNL     1       5.917   3.387  15.945  0.00  0.00    +0.000 OA
ATOM     19  H   UNL     1       6.357   3.866  15.224  0.00  0.00    +0.000 HD
ENDBRANCH  15  18
ENDBRANCH   3  12
BRANCH   9  20
ATOM     20  O   UNL     1      -0.639   9.454  23.002  0.00  0.00    +0.000 OA
ATOM     21  H   UNL     1      -0.770   8.597  23.441  0.00  0.00    +0.000 HD
ENDBRANCH   9  20
TORSDOF 3
ENDMDL
MODEL 3
REMARK VINA RESULT:      -7.1      1.354      2.187
REMARK  Name = 
REMARK  4 active torsions:
REMARK  status: ('A' for Active; 'I' for Inactive)
REMARK    1  A    between atoms: C_1  and  C_2
REMARK    2  A    between atoms: C_3  and  C_4
REMARK    3  A    between atoms: C_7  and  O_8
REMARK    4  A    between atoms: C_16  and  O_17
REMARK                            x       y       z     vdW  Elec       q    Type
REMARK                         _______ _______ _______ _____ _____    ______ ____
ROOT
ATOM      1  C   UNL     1       2.873   2.923  16.642  0.00  0.00    +0.000 C 
ATOM      2  C   UNL     1       4.060   3.584  17.250  0.00  0.00    +0.000 C 
ATOM      3  C   UNL     1       4.306   3.865  18.547  0.00  0.00    +0.000 C 
ATOM      4  C   UNL     1       5.620   4.559  18.629  0.00  0.00    +0.000 C 
ATOM      5  O   UNL     1       6.180   4.976  19.623  0.00  0.00    +0.000 OA
ATOM      6  C   UNL     1       6.124   4.651  17.264  0.00  0.00    +0.000 A 
ATOM      7  C   UNL     1       7.301   5.207  16.796  0.00  0.00    +0.000 A 
ATOM      8  C   UNL     1       7.532   5.151  15.419  0.00  0.00    +0.000 A 
ATOM      9  C   UNL     1       6.585   4.549  14.575  0.00  0.00    +0.000 A 
ATOM     10  C   UNL     1       5.402   3.997  15.072  0.00  0.00    +0.000 A 
ATOM     11  C   UNL     1       5.177   4.056  16.438  0.00  0.00    +0.000 A 
ENDROOT
BRANCH   3  12
ATOM     12  C   UNL     1       3.438   3.566  19.681  0.00  0.00    +0.000 A 
ATOM     13  C   UNL     1       3.753   2.520  20.560  0.00  0.00    +0.000 A 
ATOM     14  C   UNL     1       2.862   2.160  21.576  0.00  0.00    +0.000 A 
ATOM     15  C   UNL     1       1.661   2.851  21.710  0.00  0.00    +0.000 A 
ATOM     16  C   UNL     1       1.354   3.915  20.870  0.00  0.00    +0.000 A 
ATOM     17  C   UNL     1       2.241   4.271  19.852  0.00  0.00    +0.000 A 
BRANCH  15  18
ATOM     18  O   UNL     1       0.742   2.502  22.654  0.00  0.00    +0.000 OA
ATOM     19  H   UNL     1       0.916   1.589  22.934  0.00  0.00    +0.000 HD
ENDBRANCH  15  18
ENDBRANCH   3  12
BRANCH   9  20
ATOM     20  O   UNL     1       6.788   4.481  13.228  0.00  0.00    +0.000 OA
ATOM     21  H   UNL     1       6.934   5.377  12.883  0.00  0.00    +0.000 HD
ENDBRANCH   9  20
TORSDOF 3
ENDMDL
MODEL 4
REMARK VINA RESULT:      -6.9      3.842      7.132
REMARK  Name = 
REMARK  4 active torsions:
REMARK  status: ('A' for Active; 'I' for Inactive)
REMARK    1  A    between atoms: C_1  and  C_2
REMARK    2  A    between atoms: C_3  and  C_4
REMARK    3  A    between atoms: C_7  and  O_8
REMARK    4  A    between atoms: C_16  and  O_17
REMARK                            x       y       z     vdW  Elec       q    Type
REMARK                         _______ _______ _______ _____ _____    ______ ____
ROOT
ATOM      1  C   UNL     1       2.467   5.359  20.766  0.00  0.00    +0.000 C 
ATOM      2  C   UNL     1       2.245   6.576  19.939  0.00  0.00    +0.000 C 
ATOM      3  C   UNL     1       2.735   6.875  18.717  0.00  0.00    +0.000 C 
ATOM      4  C   UNL     1       2.239   8.227  18.338  0.00  0.00    +0.000 C 
ATOM      5  O   UNL     1       2.469   8.843  17.317  0.00  0.00    +0.000 OA
ATOM      6  C   UNL     1       1.407   8.686  19.444  0.00  0.00    +0.000 A 
ATOM      7  C   UNL     1       0.716   9.875  19.590  0.00  0.00    +0.000 A 
ATOM      8  C   UNL     1      -0.013  10.051  20.770  0.00  0.00    +0.000 A 
ATOM      9  C   UNL     1      -0.017   9.041  21.745  0.00  0.00    +0.000 A 
ATOM     10  C   UNL     1       0.693   7.850  21.575  0.00  0.00    +0.000 A 
ATOM     11  C   UNL     1       1.414   7.681  20.404  0.00  0.00    +0.000 A 
ENDROOT
BRANCH   3  12
ATOM     12  C   UNL     1       3.614   6.042  17.905  0.00  0.00    +0.000 A 
ATOM     13  C   UNL     1       4.805   6.564  17.382  0.00  0.00    +0.000 A 
ATOM     14  C   UNL     1       5.587   5.802  16.508  0.00  0.00    +0.000 A 
ATOM     15  C   UNL     1       5.176   4.517  16.165  0.00  0.00    +0.000 A 
ATOM     16  C   UNL     1       4.017   3.972  16.707  0.00  0.00    +0.000 A 
ATOM     17  C   UNL     1       3.234   4.736  17.575  0.00  0.00    +0.000 A 
BRANCH  15  18
ATOM     18  O   UNL     1       5.880   3.757  15.280  0.00  0.00    +0.000 OA
ATOM     19  H   UNL     1       5.271   3.131  14.855  0.00  0.00    +0.000 HD
ENDBRANCH  15  18
ENDBRANCH   3  12
BRANCH   9  20
ATOM     20  O   UNL     1      -0.721   9.189  22.905  0.00  0.00    +0.000 OA
ATOM     21  H   UNL     1      -0.114   9.099  23.658  0.00  0.00    +0.000 HD
ENDBRANCH   9  20
TORSDOF 3
ENDMDL
MODEL 5
REMARK VINA RESULT:      -6.8      1.096      6.423
REMARK  Name = 
REMARK  4 active torsions:
REMARK  status: ('A' for Active; 'I' for Inactive)
REMARK    1  A    between atoms: C_1  and  C_2
REMARK    2  A    between atoms: C_3  and  C_4
REMARK    3  A    between atoms: C_7  and  O_8
REMARK    4  A    between atoms: C_16  and  O_17
REMARK                            x       y       z     vdW  Elec       q    Type
REMARK                         _______ _______ _______ _____ _____    ______ ____
ROOT
ATOM      1  C   UNL     1       5.543   4.590  19.519  0.00  0.00    +0.000 C 
ATOM      2  C   UNL     1       4.351   4.103  18.774  0.00  0.00    +0.000 C 
ATOM      3  C   UNL     1       4.142   4.053  17.441  0.00  0.00    +0.000 C 
ATOM      4  C   UNL     1       2.776   3.510  17.207  0.00  0.00    +0.000 C 
ATOM      5  O   UNL     1       2.223   3.323  16.141  0.00  0.00    +0.000 OA
ATOM      6  C   UNL     1       2.209   3.237  18.522  0.00  0.00    +0.000 A 
ATOM      7  C   UNL     1       0.967   2.728  18.857  0.00  0.00    +0.000 A 
ATOM      8  C   UNL     1       0.687   2.566  20.217  0.00  0.00    +0.000 A 
ATOM      9  C   UNL     1       1.650   2.920  21.175  0.00  0.00    +0.000 A 
ATOM     10  C   UNL     1       2.896   3.436  20.811  0.00  0.00    +0.000 A 
ATOM     11  C   UNL     1       3.168   3.595  19.462  0.00  0.00    +0.000 A 
ENDROOT
BRANCH   3  12
ATOM     12  C   UNL     1       5.072   4.473  16.399  0.00  0.00    +0.000 A 
ATOM     13  C   UNL     1       5.644   3.529  15.535  0.00  0.00    +0.000 A 
ATOM     14  C   UNL     1       6.623   3.916  14.614  0.00  0.00    +0.000 A 
ATOM     15  C   UNL     1       7.023   5.248  14.560  0.00  0.00    +0.000 A 
ATOM     16  C   UNL     1       6.436   6.202  15.385  0.00  0.00    +0.000 A 
ATOM     17  C   UNL     1       5.462   5.814  16.307  0.00  0.00    +0.000 A 
BRANCH  15  18
ATOM     18  O   UNL     1       8.008   5.662  13.713  0.00  0.00    +0.000 OA
ATOM     19  H   UNL     1       8.361   4.887  13.247  0.00  0.00    +0.000 HD
ENDBRANCH  15  18
ENDBRANCH   3  12
BRANCH   9  20
ATOM     20  O   UNL     1       1.400   2.770  22.508  0.00  0.00    +0.000 OA
ATOM     21  H   UNL     1       0.555   3.198  22.722  0.00  0.00    +0.000 HD
ENDBRANCH   9  20
TORSDOF 3
ENDMDL
MODEL 6
REMARK VINA RESULT:      -6.7      1.528      6.713
REMARK  Name = 
REMARK  4 active torsions:
REMARK  status: ('A' for Active; 'I' for Inactive)
REMARK    1  A    between atoms: C_1  and  C_2
REMARK    2  A    between atoms: C_3  and  C_4
REMARK    3  A    between atoms: C_7  and  O_8
REMARK    4  A    between atoms: C_16  and  O_17
REMARK                            x       y       z     vdW  Elec       q    Type
REMARK                         _______ _______ _______ _____ _____    ______ ____
ROOT
ATOM      1  C   UNL     1       4.148   1.848  17.461  0.00  0.00    +0.000 C 
ATOM      2  C   UNL     1       3.887   3.276  17.786  0.00  0.00    +0.000 C 
ATOM      3  C   UNL     1       4.377   4.387  17.196  0.00  0.00    +0.000 C 
ATOM      4  C   UNL     1       3.832   5.571  17.914  0.00  0.00    +0.000 C 
ATOM      5  O   UNL     1       4.048   6.745  17.684  0.00  0.00    +0.000 OA
ATOM      6  C   UNL     1       2.970   5.053  18.970  0.00  0.00    +0.000 A 
ATOM      7  C   UNL     1       2.230   5.738  19.917  0.00  0.00    +0.000 A 
ATOM      8  C   UNL     1       1.482   4.976  20.819  0.00  0.00    +0.000 A 
ATOM      9  C   UNL     1       1.508   3.574  20.738  0.00  0.00    +0.000 A 
ATOM     10  C   UNL     1       2.267   2.906  19.773  0.00  0.00    +0.000 A 
ATOM     11  C   UNL     1       3.006   3.667  18.883  0.00  0.00    +0.000 A 
ENDROOT
BRANCH   3  12
ATOM     12  C   UNL     1       5.298   4.436  16.066  0.00  0.00    +0.000 A 
ATOM     13  C   UNL     1       6.606   4.912  16.235  0.00  0.00    +0.000 A 
ATOM     14  C   UNL     1       7.449   5.070  15.131  0.00  0.00    +0.000 A 
ATOM     15  C   UNL     1       6.980   4.745  13.861  0.00  0.00    +0.000 A 
ATOM     16  C   UNL     1       5.699   4.235  13.684  0.00  0.00    +0.000 A 
ATOM     17  C   UNL     1       4.856   4.083  14.786  0.00  0.00    +0.000 A 
BRANCH  15  18
ATOM     18  O   UNL     1       7.750   4.928  12.750  0.00  0.00    +0.000 OA
ATOM     19  H   UNL     1       8.324   5.697  12.895  0.00  0.00    +0.000 HD
ENDBRANCH  15  18
ENDBRANCH   3  12
BRANCH   9  20
ATOM     20  O   UNL     1       0.785   2.808  21.605  0.00  0.00    +0.000 OA
ATOM     21  H   UNL     1       1.080   1.885  21.534  0.00  0.00    +0.000 HD
ENDBRANCH   9  20
TORSDOF 3
ENDMDL
MODEL 7
REMARK VINA RESULT:      -6.7      4.109      5.804
REMARK  Name = 
REMARK  4 active torsions:
REMARK  status: ('A' for Active; 'I' for Inactive)
REMARK    1  A    between atoms: C_1  and  C_2
REMARK    2  A    between atoms: C_3  and  C_4
REMARK    3  A    between atoms: C_7  and  O_8
REMARK    4  A    between atoms: C_16  and  O_17
REMARK                            x       y       z     vdW  Elec       q    Type
REMARK                         _______ _______ _______ _____ _____    ______ ____
ROOT
ATOM      1  C   UNL     1       3.673   7.189  16.698  0.00  0.00    +0.000 C 
ATOM      2  C   UNL     1       2.915   7.193  17.978  0.00  0.00    +0.000 C 
ATOM      3  C   UNL     1       2.677   6.173  18.830  0.00  0.00    +0.000 C 
ATOM      4  C   UNL     1       1.843   6.689  19.949  0.00  0.00    +0.000 C 
ATOM      5  O   UNL     1       1.418   6.073  20.906  0.00  0.00    +0.000 OA
ATOM      6  C   UNL     1       1.623   8.106  19.681  0.00  0.00    +0.000 A 
ATOM      7  C   UNL     1       0.912   9.040  20.413  0.00  0.00    +0.000 A 
ATOM      8  C   UNL     1       0.869  10.345  19.914  0.00  0.00    +0.000 A 
ATOM      9  C   UNL     1       1.529  10.657  18.715  0.00  0.00    +0.000 A 
ATOM     10  C   UNL     1       2.238   9.694  17.992  0.00  0.00    +0.000 A 
ATOM     11  C   UNL     1       2.277   8.402  18.491  0.00  0.00    +0.000 A 
ENDROOT
BRANCH   3  12
ATOM     12  C   UNL     1       3.132   4.795  18.684  0.00  0.00    +0.000 A 
ATOM     13  C   UNL     1       2.463   3.913  17.824  0.00  0.00    +0.000 A 
ATOM     14  C   UNL     1       2.827   2.563  17.773  0.00  0.00    +0.000 A 
ATOM     15  C   UNL     1       3.862   2.103  18.581  0.00  0.00    +0.000 A 
ATOM     16  C   UNL     1       4.560   2.975  19.410  0.00  0.00    +0.000 A 
ATOM     17  C   UNL     1       4.193   4.321  19.464  0.00  0.00    +0.000 A 
BRANCH  15  18
ATOM     18  O   UNL     1       4.218   0.787  18.601  0.00  0.00    +0.000 OA
ATOM     19  H   UNL     1       4.326   0.482  17.686  0.00  0.00    +0.000 HD
ENDBRANCH  15  18
ENDBRANCH   3  12
BRANCH   9  20
ATOM     20  O   UNL     1       1.503  11.924  18.208  0.00  0.00    +0.000 OA
ATOM     21  H   UNL     1       1.930  12.526  18.839  0.00  0.00    +0.000 HD
ENDBRANCH   9  20
TORSDOF 3
ENDMDL
MODEL 8
REMARK VINA RESULT:      -6.7      1.314      2.442
REMARK  Name = 
REMARK  4 active torsions:
REMARK  status: ('A' for Active; 'I' for Inactive)
REMARK    1  A    between atoms: C_1  and  C_2
REMARK    2  A    between atoms: C_3  and  C_4
REMARK    3  A    between atoms: C_7  and  O_8
REMARK    4  A    between atoms: C_16  and  O_17
REMARK                            x       y       z     vdW  Elec       q    Type
REMARK                         _______ _______ _______ _____ _____    ______ ____
ROOT
ATOM      1  C   UNL     1       3.009   2.788  16.442  0.00  0.00    +0.000 C 
ATOM      2  C   UNL     1       4.046   3.583  17.154  0.00  0.00    +0.000 C 
ATOM      3  C   UNL     1       4.137   3.880  18.468  0.00  0.00    +0.000 C 
ATOM      4  C   UNL     1       5.343   4.728  18.668  0.00  0.00    +0.000 C 
ATOM      5  O   UNL     1       5.755   5.201  19.709  0.00  0.00    +0.000 OA
ATOM      6  C   UNL     1       5.955   4.892  17.355  0.00  0.00    +0.000 A 
ATOM      7  C   UNL     1       7.093   5.592  16.995  0.00  0.00    +0.000 A 
ATOM      8  C   UNL     1       7.454   5.577  15.645  0.00  0.00    +0.000 A 
ATOM      9  C   UNL     1       6.668   4.872  14.720  0.00  0.00    +0.000 A 
ATOM     10  C   UNL     1       5.521   4.175  15.108  0.00  0.00    +0.000 A 
ATOM     11  C   UNL     1       5.167   4.194  16.447  0.00  0.00    +0.000 A 
ENDROOT
BRANCH   3  12
ATOM     12  C   UNL     1       3.212   3.468  19.518  0.00  0.00    +0.000 A 
ATOM     13  C   UNL     1       1.943   4.053  19.617  0.00  0.00    +0.000 A 
ATOM     14  C   UNL     1       1.104   3.743  20.692  0.00  0.00    +0.000 A 
ATOM     15  C   UNL     1       1.538   2.843  21.661  0.00  0.00    +0.000 A 
ATOM     16  C   UNL     1       2.779   2.226  21.555  0.00  0.00    +0.000 A 
ATOM     17  C   UNL     1       3.618   2.540  20.484  0.00  0.00    +0.000 A 
BRANCH  15  18
ATOM     18  O   UNL     1       0.774   2.548  22.752  0.00  0.00    +0.000 OA
ATOM     19  H   UNL     1       1.249   1.899  23.296  0.00  0.00    +0.000 HD
ENDBRANCH  15  18
ENDBRANCH   3  12
BRANCH   9  20
ATOM     20  O   UNL     1       7.000   4.841  13.397  0.00  0.00    +0.000 OA
ATOM     21  H   UNL     1       6.187   4.865  12.865  0.00  0.00    +0.000 HD
ENDBRANCH   9  20
TORSDOF 3
ENDMDL
MODEL 9
REMARK VINA RESULT:      -6.6      4.126      5.743
REMARK  Name = 
REMARK  4 active torsions:
REMARK  status: ('A' for Active; 'I' for Inactive)
REMARK    1  A    between atoms: C_1  and  C_2
REMARK    2  A    between atoms: C_3  and  C_4
REMARK    3  A    between atoms: C_7  and  O_8
REMARK    4  A    between atoms: C_16  and  O_17
REMARK                            x       y       z     vdW  Elec       q    Type
REMARK                         _______ _______ _______ _____ _____    ______ ____
ROOT
ATOM      1  C   UNL     1       3.644   7.024  16.856  0.00  0.00    +0.000 C 
ATOM      2  C   UNL     1       2.855   7.142  18.112  0.00  0.00    +0.000 C 
ATOM      3  C   UNL     1       2.549   6.189  19.018  0.00  0.00    +0.000 C 
ATOM      4  C   UNL     1       1.711   6.812  20.079  0.00  0.00    +0.000 C 
ATOM      5  O   UNL     1       1.234   6.276  21.060  0.00  0.00    +0.000 OA
ATOM      6  C   UNL     1       1.562   8.216  19.717  0.00  0.00    +0.000 A 
ATOM      7  C   UNL     1       0.876   9.226  20.368  0.00  0.00    +0.000 A 
ATOM      8  C   UNL     1       0.905  10.497  19.788  0.00  0.00    +0.000 A 
ATOM      9  C   UNL     1       1.609  10.703  18.591  0.00  0.00    +0.000 A 
ATOM     10  C   UNL     1       2.291   9.666  17.950  0.00  0.00    +0.000 A 
ATOM     11  C   UNL     1       2.259   8.407  18.529  0.00  0.00    +0.000 A 
ENDROOT
BRANCH   3  12
ATOM     12  C   UNL     1       2.945   4.786  18.971  0.00  0.00    +0.000 A 
ATOM     13  C   UNL     1       4.168   4.374  19.518  0.00  0.00    +0.000 A 
ATOM     14  C   UNL     1       4.599   3.052  19.369  0.00  0.00    +0.000 A 
ATOM     15  C   UNL     1       3.800   2.147  18.677  0.00  0.00    +0.000 A 
ATOM     16  C   UNL     1       2.567   2.532  18.163  0.00  0.00    +0.000 A 
ATOM     17  C   UNL     1       2.140   3.853  18.308  0.00  0.00    +0.000 A 
BRANCH  15  18
ATOM     18  O   UNL     1       4.202   0.861  18.465  0.00  0.00    +0.000 OA
ATOM     19  H   UNL     1       3.774   0.532  17.658  0.00  0.00    +0.000 HD
ENDBRANCH  15  18
ENDBRANCH   3  12
BRANCH   9  20
ATOM     20  O   UNL     1       1.653  11.935  18.006  0.00  0.00    +0.000 OA
ATOM     21  H   UNL     1       2.045  12.568  18.630  0.00  0.00    +0.000 HD
ENDBRANCH   9  20
TORSDOF 3
ENDMDL
