MODEL 1
REMARK VINA RESULT:      -8.6      0.000      0.000
REMARK  Name = 
REMARK  6 active torsions:
REMARK  status: ('A' for Active; 'I' for Inactive)
REMARK    1  A    between atoms: C_14  and  O_15
REMARK    2  A    between atoms: C_14  and  C_16
REMARK    3  A    between atoms: C_16  and  C_17
REMARK    4  A    between atoms: C_20  and  N_21
REMARK    5  A    between atoms: N_21  and  C_22
REMARK    6  A    between atoms: C_22  and  C_23
REMARK                            x       y       z     vdW  Elec       q    Type
REMARK                         _______ _______ _______ _____ _____    ______ ____
ROOT
ATOM      1  C   UNL     1       1.286   9.063  18.321  0.00  0.00    +0.000 C 
ATOM      2  C   UNL     1      -0.134   9.442  17.839  0.00  0.00    +0.000 C 
ATOM      3  C   UNL     1      -0.580  10.766  18.479  0.00  0.00    +0.000 C 
ATOM      4  C   UNL     1       0.510  11.271  19.451  0.00  0.00    +0.000 C 
ATOM      5  C   UNL     1       1.761  11.540  18.608  0.00  0.00    +0.000 C 
ATOM      6  C   UNL     1       2.237  10.233  17.997  0.00  0.00    +0.000 C 
ATOM      7  C   UNL     1       0.846  10.115  20.431  0.00  0.00    +0.000 C 
ATOM      8  O   UNL     1       1.227   8.917  19.746  0.00  0.00    +0.000 OA
ENDROOT
BRANCH   4   9
ATOM      9  N   UNL     1       0.184  12.536  20.098  0.00  0.00    +0.000 NA
ATOM     10  H   UNL     1      -0.653  12.951  19.681  0.00  0.00    +0.000 HD
BRANCH   9  11
ATOM     11  C   UNL     1      -0.033  12.417  21.540  0.00  0.00    +0.000 C 
BRANCH  11  12
ATOM     12  C   UNL     1      -1.473  12.664  21.920  0.00  0.00    +0.000 A 
ATOM     13  N   UNL     1      -1.846  12.424  23.194  0.00  0.00    +0.000 NA
ATOM     14  C   UNL     1      -3.167  12.457  23.437  0.00  0.00    +0.000 A 
ATOM     15  C   UNL     1      -4.106  12.674  22.459  0.00  0.00    +0.000 A 
ATOM     16  C   UNL     1      -3.599  12.998  21.216  0.00  0.00    +0.000 A 
ATOM     17  N   UNL     1      -2.297  13.014  20.916  0.00  0.00    +0.000 NA
ATOM     18  O   UNL     1      -4.433  13.247  20.156  0.00  0.00    +0.000 OA
ATOM     19  C   UNL     1      -5.521  12.334  20.244  0.00  0.00    +0.000 C 
ATOM     20  C   UNL     1      -6.259  12.486  21.573  0.00  0.00    +0.000 C 
ATOM     21  O   UNL     1      -5.422  12.492  22.738  0.00  0.00    +0.000 OA
ENDBRANCH  11  12
ENDBRANCH   9  11
ENDBRANCH   4   9
BRANCH   1  22
ATOM     22  C   UNL     1       1.716   7.698  17.709  0.00  0.00    +0.000 C 
BRANCH  22  36
ATOM     23  O   UNL     1       7.071   7.657  16.928  0.00  0.00    +0.000 OA
ATOM     24  C   UNL     1       6.413   6.617  16.974  0.00  0.00    +0.000 A 
ATOM     25  C   UNL     1       6.946   5.343  16.404  0.00  0.00    +0.000 A 
ATOM     26  C   UNL     1       6.229   4.197  16.394  0.00  0.00    +0.000 A 
ATOM     27  C   UNL     1       4.875   4.180  16.938  0.00  0.00    +0.000 A 
ATOM     28  N   UNL     1       4.107   3.079  16.929  0.00  0.00    +0.000 NA
ATOM     29  C   UNL     1       2.838   3.236  17.435  0.00  0.00    +0.000 A 
ATOM     30  C   UNL     1       2.304   4.440  17.916  0.00  0.00    +0.000 A 
ATOM     31  F   UNL     1       1.049   4.487  18.381  0.00  0.00    +0.000 F 
ATOM     32  C   UNL     1       3.111   5.549  17.908  0.00  0.00    +0.000 A 
ATOM     33  C   UNL     1       4.398   5.371  17.433  0.00  0.00    +0.000 A 
ATOM     34  N   UNL     1       5.152   6.525  17.495  0.00  0.00    +0.000 N 
ATOM     35  C   UNL     1       4.301   7.604  17.951  0.00  0.00    +0.000 C 
ATOM     36  C   UNL     1       2.920   6.977  18.362  0.00  0.00    +0.000 C 
BRANCH  36  37
ATOM     37  O   UNL     1       2.783   6.946  19.779  0.00  0.00    +0.000 OA
ATOM     38  H   UNL     1       2.678   7.855  20.107  0.00  0.00    +0.000 HD
ENDBRANCH  36  37
ENDBRANCH  22  36
ENDBRANCH   1  22
TORSDOF 6
ENDMDL
MODEL 2
REMARK VINA RESULT:      -8.3      0.876      1.505
REMARK  Name = 
REMARK  6 active torsions:
REMARK  status: ('A' for Active; 'I' for Inactive)
REMARK    1  A    between atoms: C_14  and  O_15
REMARK    2  A    between atoms: C_14  and  C_16
REMARK    3  A    between atoms: C_16  and  C_17
REMARK    4  A    between atoms: C_20  and  N_21
REMARK    5  A    between atoms: N_21  and  C_22
REMARK    6  A    between atoms: C_22  and  C_23
REMARK                            x       y       z     vdW  Elec       q    Type
REMARK                         _______ _______ _______ _____ _____    ______ ____
ROOT
ATOM      1  C   UNL     1       1.272   9.094  18.299  0.00  0.00    +0.000 C 
ATOM      2  C   UNL     1      -0.148   9.457  17.806  0.00  0.00    +0.000 C 
ATOM      3  C   UNL     1      -0.626  10.759  18.468  0.00  0.00    +0.000 C 
ATOM      4  C   UNL     1       0.440  11.261  19.467  0.00  0.00    +0.000 C 
ATOM      5  C   UNL     1       1.698  11.572  18.648  0.00  0.00    +0.000 C 
ATOM      6  C   UNL     1       2.206  10.287  18.015  0.00  0.00    +0.000 C 
ATOM      7  C   UNL     1       0.784  10.090  20.426  0.00  0.00    +0.000 C 
ATOM      8  O   UNL     1       1.197   8.915  19.719  0.00  0.00    +0.000 OA
ENDROOT
BRANCH   4   9
ATOM      9  N   UNL     1       0.082  12.505  20.138  0.00  0.00    +0.000 NA
ATOM     10  H   UNL     1       0.843  13.185  20.071  0.00  0.00    +0.000 HD
BRANCH   9  11
ATOM     11  C   UNL     1      -1.133  13.125  19.608  0.00  0.00    +0.000 C 
BRANCH  11  12
ATOM     12  C   UNL     1      -2.354  12.770  20.422  0.00  0.00    +0.000 A 
ATOM     13  N   UNL     1      -3.556  12.794  19.811  0.00  0.00    +0.000 NA
ATOM     14  C   UNL     1      -4.627  12.676  20.614  0.00  0.00    +0.000 A 
ATOM     15  C   UNL     1      -4.535  12.581  21.981  0.00  0.00    +0.000 A 
ATOM     16  C   UNL     1      -3.252  12.474  22.480  0.00  0.00    +0.000 A 
ATOM     17  N   UNL     1      -2.146  12.552  21.733  0.00  0.00    +0.000 NA
ATOM     18  O   UNL     1      -3.025  12.364  23.828  0.00  0.00    +0.000 OA
ATOM     19  C   UNL     1      -3.957  13.213  24.489  0.00  0.00    +0.000 C 
ATOM     20  C   UNL     1      -5.394  12.828  24.139  0.00  0.00    +0.000 C 
ATOM     21  O   UNL     1      -5.658  12.670  22.738  0.00  0.00    +0.000 OA
ENDBRANCH  11  12
ENDBRANCH   9  11
ENDBRANCH   4   9
BRANCH   1  22
ATOM     22  C   UNL     1       1.736   7.751  17.663  0.00  0.00    +0.000 C 
BRANCH  22  36
ATOM     23  O   UNL     1       7.101   7.696  16.958  0.00  0.00    +0.000 OA
ATOM     24  C   UNL     1       6.440   6.657  16.993  0.00  0.00    +0.000 A 
ATOM     25  C   UNL     1       6.977   5.383  16.428  0.00  0.00    +0.000 A 
ATOM     26  C   UNL     1       6.257   4.239  16.405  0.00  0.00    +0.000 A 
ATOM     27  C   UNL     1       4.895   4.225  16.930  0.00  0.00    +0.000 A 
ATOM     28  N   UNL     1       4.123   3.127  16.908  0.00  0.00    +0.000 NA
ATOM     29  C   UNL     1       2.848   3.287  17.396  0.00  0.00    +0.000 A 
ATOM     30  C   UNL     1       2.311   4.491  17.872  0.00  0.00    +0.000 A 
ATOM     31  F   UNL     1       1.050   4.541  18.319  0.00  0.00    +0.000 F 
ATOM     32  C   UNL     1       3.122   5.598  17.878  0.00  0.00    +0.000 A 
ATOM     33  C   UNL     1       4.414   5.416  17.421  0.00  0.00    +0.000 A 
ATOM     34  N   UNL     1       5.171   6.568  17.495  0.00  0.00    +0.000 N 
ATOM     35  C   UNL     1       4.318   7.648  17.942  0.00  0.00    +0.000 C 
ATOM     36  C   UNL     1       2.929   7.025  18.332  0.00  0.00    +0.000 C 
BRANCH  36  37
ATOM     37  O   UNL     1       2.771   6.992  19.747  0.00  0.00    +0.000 OA
ATOM     38  H   UNL     1       3.498   6.477  20.135  0.00  0.00    +0.000 HD
ENDBRANCH  36  37
ENDBRANCH  22  36
ENDBRANCH   1  22
TORSDOF 6
ENDMDL
MODEL 3
REMARK VINA RESULT:      -8.2      1.525      2.093
REMARK  Name = 
REMARK  6 active torsions:
REMARK  status: ('A' for Active; 'I' for Inactive)
REMARK    1  A    between atoms: C_14  and  O_15
REMARK    2  A    between atoms: C_14  and  C_16
REMARK    3  A    between atoms: C_16  and  C_17
REMARK    4  A    between atoms: C_20  and  N_21
REMARK    5  A    between atoms: N_21  and  C_22
REMARK    6  A    between atoms: C_22  and  C_23
REMARK                            x       y       z     vdW  Elec       q    Type
REMARK                         _______ _______ _______ _____ _____    ______ ____
ROOT
ATOM      1  C   UNL     1       1.263   9.072  18.313  0.00  0.00    +0.000 C 
ATOM      2  C   UNL     1      -0.146   9.466  17.812  0.00  0.00    +0.000 C 
ATOM      3  C   UNL     1      -0.564  10.820  18.407  0.00  0.00    +0.000 C 
ATOM      4  C   UNL     1       0.532  11.331  19.369  0.00  0.00    +0.000 C 
ATOM      5  C   UNL     1       1.793  11.545  18.524  0.00  0.00    +0.000 C 
ATOM      6  C   UNL     1       2.242  10.209  17.957  0.00  0.00    +0.000 C 
ATOM      7  C   UNL     1       0.838  10.200  20.386  0.00  0.00    +0.000 C 
ATOM      8  O   UNL     1       1.195   8.972  19.741  0.00  0.00    +0.000 OA
ENDROOT
BRANCH   4   9
ATOM      9  N   UNL     1       0.231  12.623  19.973  0.00  0.00    +0.000 NA
ATOM     10  H   UNL     1       0.717  13.375  19.479  0.00  0.00    +0.000 HD
BRANCH   9  11
ATOM     11  C   UNL     1      -1.197  12.939  19.998  0.00  0.00    +0.000 C 
BRANCH  11  12
ATOM     12  C   UNL     1      -1.729  13.055  21.406  0.00  0.00    +0.000 A 
ATOM     13  N   UNL     1      -2.985  12.629  21.650  0.00  0.00    +0.000 NA
ATOM     14  C   UNL     1      -3.489  12.938  22.856  0.00  0.00    +0.000 A 
ATOM     15  C   UNL     1      -2.806  13.683  23.787  0.00  0.00    +0.000 A 
ATOM     16  C   UNL     1      -1.499  13.982  23.460  0.00  0.00    +0.000 A 
ATOM     17  N   UNL     1      -0.927  13.676  22.290  0.00  0.00    +0.000 NA
ATOM     18  O   UNL     1      -0.707  14.712  24.308  0.00  0.00    +0.000 OA
ATOM     19  C   UNL     1      -1.523  15.721  24.893  0.00  0.00    +0.000 C 
ATOM     20  C   UNL     1      -2.708  15.106  25.637  0.00  0.00    +0.000 C 
ATOM     21  O   UNL     1      -3.450  14.128  24.895  0.00  0.00    +0.000 OA
ENDBRANCH  11  12
ENDBRANCH   9  11
ENDBRANCH   4   9
BRANCH   1  22
ATOM     22  C   UNL     1       1.665   7.679  17.747  0.00  0.00    +0.000 C 
BRANCH  22  36
ATOM     23  O   UNL     1       7.014   7.703  16.923  0.00  0.00    +0.000 OA
ATOM     24  C   UNL     1       6.370   6.655  16.979  0.00  0.00    +0.000 A 
ATOM     25  C   UNL     1       6.915   5.386  16.410  0.00  0.00    +0.000 A 
ATOM     26  C   UNL     1       6.213   4.230  16.411  0.00  0.00    +0.000 A 
ATOM     27  C   UNL     1       4.863   4.198  16.967  0.00  0.00    +0.000 A 
ATOM     28  N   UNL     1       4.109   3.087  16.969  0.00  0.00    +0.000 NA
ATOM     29  C   UNL     1       2.843   3.230  17.484  0.00  0.00    +0.000 A 
ATOM     30  C   UNL     1       2.297   4.429  17.964  0.00  0.00    +0.000 A 
ATOM     31  F   UNL     1       1.046   4.462  18.439  0.00  0.00    +0.000 F 
ATOM     32  C   UNL     1       3.090   5.549  17.944  0.00  0.00    +0.000 A 
ATOM     33  C   UNL     1       4.375   5.385  17.460  0.00  0.00    +0.000 A 
ATOM     34  N   UNL     1       5.114   6.549  17.510  0.00  0.00    +0.000 N 
ATOM     35  C   UNL     1       4.253   7.619  17.969  0.00  0.00    +0.000 C 
ATOM     36  C   UNL     1       2.884   6.976  18.393  0.00  0.00    +0.000 C 
BRANCH  36  37
ATOM     37  O   UNL     1       2.758   6.950  19.812  0.00  0.00    +0.000 OA
ATOM     38  H   UNL     1       3.643   7.013  20.210  0.00  0.00    +0.000 HD
ENDBRANCH  36  37
ENDBRANCH  22  36
ENDBRANCH   1  22
TORSDOF 6
ENDMDL
MODEL 4
REMARK VINA RESULT:      -8.2      3.065      4.022
REMARK  Name = 
REMARK  6 active torsions:
REMARK  status: ('A' for Active; 'I' for Inactive)
REMARK    1  A    between atoms: C_14  and  O_15
REMARK    2  A    between atoms: C_14  and  C_16
REMARK    3  A    between atoms: C_16  and  C_17
REMARK    4  A    between atoms: C_20  and  N_21
REMARK    5  A    between atoms: N_21  and  C_22
REMARK    6  A    between atoms: C_22  and  C_23
REMARK                            x       y       z     vdW  Elec       q    Type
REMARK                         _______ _______ _______ _____ _____    ______ ____
ROOT
ATOM      1  C   UNL     1       1.285   9.121  18.366  0.00  0.00    +0.000 C 
ATOM      2  C   UNL     1      -0.133   9.528  17.902  0.00  0.00    +0.000 C 
ATOM      3  C   UNL     1      -0.548  10.856  18.555  0.00  0.00    +0.000 C 
ATOM      4  C   UNL     1       0.561  11.335  19.519  0.00  0.00    +0.000 C 
ATOM      5  C   UNL     1       1.808  11.587  18.665  0.00  0.00    +0.000 C 
ATOM      6  C   UNL     1       2.253  10.275  18.040  0.00  0.00    +0.000 C 
ATOM      7  C   UNL     1       0.886  10.166  20.488  0.00  0.00    +0.000 C 
ATOM      8  O   UNL     1       1.238   8.966  19.790  0.00  0.00    +0.000 OA
ENDROOT
BRANCH   4   9
ATOM      9  N   UNL     1       0.265  12.601  20.178  0.00  0.00    +0.000 NA
ATOM     10  H   UNL     1       0.030  12.451  21.162  0.00  0.00    +0.000 HD
BRANCH   9  11
ATOM     11  C   UNL     1       1.363  13.565  20.111  0.00  0.00    +0.000 C 
BRANCH  11  12
ATOM     12  C   UNL     1       0.912  14.904  19.578  0.00  0.00    +0.000 A 
ATOM     13  N   UNL     1      -0.409  15.175  19.570  0.00  0.00    +0.000 NA
ATOM     14  C   UNL     1      -0.779  16.281  18.903  0.00  0.00    +0.000 A 
ATOM     15  C   UNL     1       0.106  17.079  18.221  0.00  0.00    +0.000 A 
ATOM     16  C   UNL     1       1.438  16.752  18.379  0.00  0.00    +0.000 A 
ATOM     17  N   UNL     1       1.875  15.685  19.055  0.00  0.00    +0.000 NA
ATOM     18  O   UNL     1       2.422  17.477  17.758  0.00  0.00    +0.000 OA
ATOM     19  C   UNL     1       1.944  17.828  16.464  0.00  0.00    +0.000 C 
ATOM     20  C   UNL     1       0.645  18.628  16.557  0.00  0.00    +0.000 C 
ATOM     21  O   UNL     1      -0.362  18.057  17.405  0.00  0.00    +0.000 OA
ENDBRANCH  11  12
ENDBRANCH   9  11
ENDBRANCH   4   9
BRANCH   1  22
ATOM     22  C   UNL     1       1.684   7.753  17.741  0.00  0.00    +0.000 C 
BRANCH  22  36
ATOM     23  O   UNL     1       7.012   7.601  16.808  0.00  0.00    +0.000 OA
ATOM     24  C   UNL     1       6.336   6.574  16.882  0.00  0.00    +0.000 A 
ATOM     25  C   UNL     1       6.828   5.285  16.307  0.00  0.00    +0.000 A 
ATOM     26  C   UNL     1       6.089   4.154  16.328  0.00  0.00    +0.000 A 
ATOM     27  C   UNL     1       4.750   4.167  16.911  0.00  0.00    +0.000 A 
ATOM     28  N   UNL     1       3.961   3.082  16.933  0.00  0.00    +0.000 NA
ATOM     29  C   UNL     1       2.711   3.268  17.473  0.00  0.00    +0.000 A 
ATOM     30  C   UNL     1       2.214   4.485  17.959  0.00  0.00    +0.000 A 
ATOM     31  F   UNL     1       0.974   4.561  18.459  0.00  0.00    +0.000 F 
ATOM     32  C   UNL     1       3.042   5.579  17.918  0.00  0.00    +0.000 A 
ATOM     33  C   UNL     1       4.311   5.371  17.409  0.00  0.00    +0.000 A 
ATOM     34  N   UNL     1       5.088   6.511  17.439  0.00  0.00    +0.000 N 
ATOM     35  C   UNL     1       4.272   7.610  17.910  0.00  0.00    +0.000 C 
ATOM     36  C   UNL     1       2.892   7.013  18.365  0.00  0.00    +0.000 C 
BRANCH  36  37
ATOM     37  O   UNL     1       2.795   6.997  19.786  0.00  0.00    +0.000 OA
ATOM     38  H   UNL     1       2.909   6.085  20.101  0.00  0.00    +0.000 HD
ENDBRANCH  36  37
ENDBRANCH  22  36
ENDBRANCH   1  22
TORSDOF 6
ENDMDL
MODEL 5
REMARK VINA RESULT:      -7.9      1.154      1.587
REMARK  Name = 
REMARK  6 active torsions:
REMARK  status: ('A' for Active; 'I' for Inactive)
REMARK    1  A    between atoms: C_14  and  O_15
REMARK    2  A    between atoms: C_14  and  C_16
REMARK    3  A    between atoms: C_16  and  C_17
REMARK    4  A    between atoms: C_20  and  N_21
REMARK    5  A    between atoms: N_21  and  C_22
REMARK    6  A    between atoms: C_22  and  C_23
REMARK                            x       y       z     vdW  Elec       q    Type
REMARK                         _______ _______ _______ _____ _____    ______ ____
ROOT
ATOM      1  C   UNL     1       1.287   9.060  18.310  0.00  0.00    +0.000 C 
ATOM      2  C   UNL     1      -0.121   9.468  17.816  0.00  0.00    +0.000 C 
ATOM      3  C   UNL     1      -0.505  10.846  18.380  0.00  0.00    +0.000 C 
ATOM      4  C   UNL     1       0.614  11.361  19.313  0.00  0.00    +0.000 C 
ATOM      5  C   UNL     1       1.867  11.527  18.447  0.00  0.00    +0.000 C 
ATOM      6  C   UNL     1       2.283  10.167  17.911  0.00  0.00    +0.000 C 
ATOM      7  C   UNL     1       0.911  10.251  20.357  0.00  0.00    +0.000 C 
ATOM      8  O   UNL     1       1.235   9.000  19.741  0.00  0.00    +0.000 OA
ENDROOT
BRANCH   4   9
ATOM      9  N   UNL     1       0.347  12.674  19.886  0.00  0.00    +0.000 NA
ATOM     10  H   UNL     1       1.133  13.308  19.721  0.00  0.00    +0.000 HD
BRANCH   9  11
ATOM     11  C   UNL     1      -0.866  13.304  19.364  0.00  0.00    +0.000 C 
BRANCH  11  12
ATOM     12  C   UNL     1      -1.769  13.801  20.468  0.00  0.00    +0.000 A 
ATOM     13  N   UNL     1      -1.594  15.061  20.914  0.00  0.00    +0.000 NA
ATOM     14  C   UNL     1      -2.272  15.391  22.027  0.00  0.00    +0.000 A 
ATOM     15  C   UNL     1      -3.064  14.505  22.715  0.00  0.00    +0.000 A 
ATOM     16  C   UNL     1      -3.237  13.276  22.110  0.00  0.00    +0.000 A 
ATOM     17  N   UNL     1      -2.618  12.896  20.988  0.00  0.00    +0.000 NA
ATOM     18  O   UNL     1      -4.013  12.305  22.691  0.00  0.00    +0.000 OA
ATOM     19  C   UNL     1      -3.788  12.361  24.095  0.00  0.00    +0.000 C 
ATOM     20  C   UNL     1      -4.127  13.744  24.651  0.00  0.00    +0.000 C 
ATOM     21  O   UNL     1      -3.551  14.845  23.935  0.00  0.00    +0.000 OA
ENDBRANCH  11  12
ENDBRANCH   9  11
ENDBRANCH   4   9
BRANCH   1  22
ATOM     22  C   UNL     1       1.654   7.644  17.777  0.00  0.00    +0.000 C 
BRANCH  22  36
ATOM     23  O   UNL     1       6.996   7.652  16.910  0.00  0.00    +0.000 OA
ATOM     24  C   UNL     1       6.350   6.606  16.976  0.00  0.00    +0.000 A 
ATOM     25  C   UNL     1       6.887   5.332  16.408  0.00  0.00    +0.000 A 
ATOM     26  C   UNL     1       6.182   4.179  16.420  0.00  0.00    +0.000 A 
ATOM     27  C   UNL     1       4.837   4.152  16.986  0.00  0.00    +0.000 A 
ATOM     28  N   UNL     1       4.080   3.043  16.998  0.00  0.00    +0.000 NA
ATOM     29  C   UNL     1       2.819   3.192  17.523  0.00  0.00    +0.000 A 
ATOM     30  C   UNL     1       2.280   4.394  18.002  0.00  0.00    +0.000 A 
ATOM     31  F   UNL     1       1.032   4.432  18.487  0.00  0.00    +0.000 F 
ATOM     32  C   UNL     1       3.075   5.512  17.972  0.00  0.00    +0.000 A 
ATOM     33  C   UNL     1       4.355   5.343  17.478  0.00  0.00    +0.000 A 
ATOM     34  N   UNL     1       5.098   6.505  17.518  0.00  0.00    +0.000 N 
ATOM     35  C   UNL     1       4.244   7.579  17.978  0.00  0.00    +0.000 C 
ATOM     36  C   UNL     1       2.876   6.941  18.417  0.00  0.00    +0.000 C 
BRANCH  36  37
ATOM     37  O   UNL     1       2.762   6.921  19.836  0.00  0.00    +0.000 OA
ATOM     38  H   UNL     1       3.454   6.346  20.202  0.00  0.00    +0.000 HD
ENDBRANCH  36  37
ENDBRANCH  22  36
ENDBRANCH   1  22
TORSDOF 6
ENDMDL
MODEL 6
REMARK VINA RESULT:      -7.9      0.522      1.039
REMARK  Name = 
REMARK  6 active torsions:
REMARK  status: ('A' for Active; 'I' for Inactive)
REMARK    1  A    between atoms: C_14  and  O_15
REMARK    2  A    between atoms: C_14  and  C_16
REMARK    3  A    between atoms: C_16  and  C_17
REMARK    4  A    between atoms: C_20  and  N_21
REMARK    5  A    between atoms: N_21  and  C_22
REMARK    6  A    between atoms: C_22  and  C_23
REMARK                            x       y       z     vdW  Elec       q    Type
REMARK                         _______ _______ _______ _____ _____    ______ ____
ROOT
ATOM      1  C   UNL     1       1.325   9.073  18.304  0.00  0.00    +0.000 C 
ATOM      2  C   UNL     1       2.244  10.270  17.965  0.00  0.00    +0.000 C 
ATOM      3  C   UNL     1       1.711  11.554  18.622  0.00  0.00    +0.000 C 
ATOM      4  C   UNL     1       0.389  11.253  19.363  0.00  0.00    +0.000 C 
ATOM      5  C   UNL     1       0.726  10.249  20.472  0.00  0.00    +0.000 C 
ATOM      6  C   UNL     1       1.219   8.959  19.837  0.00  0.00    +0.000 C 
ATOM      7  C   UNL     1      -0.566  10.546  18.366  0.00  0.00    +0.000 C 
ATOM      8  O   UNL     1       0.023   9.376  17.788  0.00  0.00    +0.000 OA
ENDROOT
BRANCH   4   9
ATOM      9  N   UNL     1      -0.187  12.412  20.035  0.00  0.00    +0.000 NA
ATOM     10  H   UNL     1      -1.070  12.683  19.596  0.00  0.00    +0.000 HD
BRANCH   9  11
ATOM     11  C   UNL     1      -0.432  12.198  21.462  0.00  0.00    +0.000 C 
BRANCH  11  12
ATOM     12  C   UNL     1      -1.850  12.537  21.852  0.00  0.00    +0.000 A 
ATOM     13  N   UNL     1      -2.182  12.482  23.158  0.00  0.00    +0.000 NA
ATOM     14  C   UNL     1      -3.492  12.587  23.438  0.00  0.00    +0.000 A 
ATOM     15  C   UNL     1      -4.461  12.697  22.470  0.00  0.00    +0.000 A 
ATOM     16  C   UNL     1      -3.992  12.835  21.179  0.00  0.00    +0.000 A 
ATOM     17  N   UNL     1      -2.702  12.772  20.837  0.00  0.00    +0.000 NA
ATOM     18  O   UNL     1      -4.858  12.963  20.123  0.00  0.00    +0.000 OA
ATOM     19  C   UNL     1      -5.964  12.102  20.370  0.00  0.00    +0.000 C 
ATOM     20  C   UNL     1      -6.649  12.455  21.690  0.00  0.00    +0.000 C 
ATOM     21  O   UNL     1      -5.770  12.592  22.815  0.00  0.00    +0.000 OA
ENDBRANCH  11  12
ENDBRANCH   9  11
ENDBRANCH   4   9
BRANCH   1  22
ATOM     22  C   UNL     1       1.840   7.784  17.599  0.00  0.00    +0.000 C 
BRANCH  22  36
ATOM     23  O   UNL     1       7.201   7.556  16.899  0.00  0.00    +0.000 OA
ATOM     24  C   UNL     1       6.507   6.539  16.940  0.00  0.00    +0.000 A 
ATOM     25  C   UNL     1       7.005   5.245  16.384  0.00  0.00    +0.000 A 
ATOM     26  C   UNL     1       6.249   4.124  16.369  0.00  0.00    +0.000 A 
ATOM     27  C   UNL     1       4.887   4.156  16.893  0.00  0.00    +0.000 A 
ATOM     28  N   UNL     1       4.082   3.082  16.877  0.00  0.00    +0.000 NA
ATOM     29  C   UNL     1       2.812   3.285  17.363  0.00  0.00    +0.000 A 
ATOM     30  C   UNL     1       2.312   4.508  17.830  0.00  0.00    +0.000 A 
ATOM     31  F   UNL     1       1.053   4.600  18.276  0.00  0.00    +0.000 F 
ATOM     32  C   UNL     1       3.157   5.590  17.829  0.00  0.00    +0.000 A 
ATOM     33  C   UNL     1       4.444   5.365  17.375  0.00  0.00    +0.000 A 
ATOM     34  N   UNL     1       5.236   6.493  17.442  0.00  0.00    +0.000 N 
ATOM     35  C   UNL     1       4.416   7.602  17.881  0.00  0.00    +0.000 C 
ATOM     36  C   UNL     1       3.008   7.025  18.274  0.00  0.00    +0.000 C 
BRANCH  36  37
ATOM     37  O   UNL     1       2.849   7.007  19.689  0.00  0.00    +0.000 OA
ATOM     38  H   UNL     1       1.901   7.018  19.901  0.00  0.00    +0.000 HD
ENDBRANCH  36  37
ENDBRANCH  22  36
ENDBRANCH   1  22
TORSDOF 6
ENDMDL
MODEL 7
REMARK VINA RESULT:      -7.9      2.965     11.053
REMARK  Name = 
REMARK  6 active torsions:
REMARK  status: ('A' for Active; 'I' for Inactive)
REMARK    1  A    between atoms: C_14  and  O_15
REMARK    2  A    between atoms: C_14  and  C_16
REMARK    3  A    between atoms: C_16  and  C_17
REMARK    4  A    between atoms: C_20  and  N_21
REMARK    5  A    between atoms: N_21  and  C_22
REMARK    6  A    between atoms: C_22  and  C_23
REMARK                            x       y       z     vdW  Elec       q    Type
REMARK                         _______ _______ _______ _____ _____    ______ ____
ROOT
ATOM      1  C   UNL     1       0.016  12.101  20.105  0.00  0.00    +0.000 C 
ATOM      2  C   UNL     1       1.231  12.528  19.250  0.00  0.00    +0.000 C 
ATOM      3  C   UNL     1       1.780  11.325  18.465  0.00  0.00    +0.000 C 
ATOM      4  C   UNL     1       0.980  10.054  18.827  0.00  0.00    +0.000 C 
ATOM      5  C   UNL     1      -0.466  10.302  18.381  0.00  0.00    +0.000 C 
ATOM      6  C   UNL     1      -1.036  11.466  19.175  0.00  0.00    +0.000 C 
ATOM      7  C   UNL     1       0.975   9.919  20.373  0.00  0.00    +0.000 C 
ATOM      8  O   UNL     1       0.470  11.094  21.018  0.00  0.00    +0.000 OA
ENDROOT
BRANCH   4   9
ATOM      9  N   UNL     1       1.418   8.859  18.117  0.00  0.00    +0.000 NA
ATOM     10  H   UNL     1       2.010   9.107  17.322  0.00  0.00    +0.000 HD
BRANCH   9  11
ATOM     11  C   UNL     1       2.153   7.916  18.960  0.00  0.00    +0.000 C 
BRANCH  11  12
ATOM     12  C   UNL     1       2.877   6.870  18.145  0.00  0.00    +0.000 A 
ATOM     13  N   UNL     1       2.476   5.587  18.254  0.00  0.00    +0.000 NA
ATOM     14  C   UNL     1       3.272   4.670  17.678  0.00  0.00    +0.000 A 
ATOM     15  C   UNL     1       4.452   4.987  17.051  0.00  0.00    +0.000 A 
ATOM     16  C   UNL     1       4.708   6.338  16.923  0.00  0.00    +0.000 A 
ATOM     17  N   UNL     1       3.941   7.301  17.444  0.00  0.00    +0.000 NA
ATOM     18  O   UNL     1       5.848   6.785  16.307  0.00  0.00    +0.000 OA
ATOM     19  C   UNL     1       6.908   5.912  16.682  0.00  0.00    +0.000 C 
ATOM     20  C   UNL     1       6.596   4.469  16.284  0.00  0.00    +0.000 C 
ATOM     21  O   UNL     1       5.300   3.997  16.675  0.00  0.00    +0.000 OA
ENDBRANCH  11  12
ENDBRANCH   9  11
ENDBRANCH   4   9
BRANCH   1  22
ATOM     22  C   UNL     1      -0.509  13.309  20.936  0.00  0.00    +0.000 C 
BRANCH  22  36
ATOM     23  O   UNL     1      -5.691  12.034  21.830  0.00  0.00    +0.000 OA
ATOM     24  C   UNL     1      -5.134  12.949  22.437  0.00  0.00    +0.000 A 
ATOM     25  C   UNL     1      -5.926  14.018  23.116  0.00  0.00    +0.000 A 
ATOM     26  C   UNL     1      -5.344  15.062  23.747  0.00  0.00    +0.000 A 
ATOM     27  C   UNL     1      -3.889  15.184  23.765  0.00  0.00    +0.000 A 
ATOM     28  N   UNL     1      -3.258  16.213  24.351  0.00  0.00    +0.000 NA
ATOM     29  C   UNL     1      -1.887  16.209  24.242  0.00  0.00    +0.000 A 
ATOM     30  C   UNL     1      -1.135  15.246  23.555  0.00  0.00    +0.000 A 
ATOM     31  F   UNL     1       0.199  15.340  23.502  0.00  0.00    +0.000 F 
ATOM     32  C   UNL     1      -1.809  14.208  22.962  0.00  0.00    +0.000 A 
ATOM     33  C   UNL     1      -3.183  14.201  23.111  0.00  0.00    +0.000 A 
ATOM     34  N   UNL     1      -3.777  13.106  22.518  0.00  0.00    +0.000 N 
ATOM     35  C   UNL     1      -2.756  12.352  21.823  0.00  0.00    +0.000 C 
ATOM     36  C   UNL     1      -1.366  12.991  22.185  0.00  0.00    +0.000 C 
BRANCH  36  37
ATOM     37  O   UNL     1      -0.650  12.158  23.091  0.00  0.00    +0.000 OA
ATOM     38  H   UNL     1      -0.250  11.423  22.598  0.00  0.00    +0.000 HD
ENDBRANCH  36  37
ENDBRANCH  22  36
ENDBRANCH   1  22
TORSDOF 6
ENDMDL
MODEL 8
REMARK VINA RESULT:      -7.9      0.954      1.052
REMARK  Name = 
REMARK  6 active torsions:
REMARK  status: ('A' for Active; 'I' for Inactive)
REMARK    1  A    between atoms: C_14  and  O_15
REMARK    2  A    between atoms: C_14  and  C_16
REMARK    3  A    between atoms: C_16  and  C_17
REMARK    4  A    between atoms: C_20  and  N_21
REMARK    5  A    between atoms: N_21  and  C_22
REMARK    6  A    between atoms: C_22  and  C_23
REMARK                            x       y       z     vdW  Elec       q    Type
REMARK                         _______ _______ _______ _____ _____    ______ ____
ROOT
ATOM      1  C   UNL     1       1.319   9.130  18.356  0.00  0.00    +0.000 C 
ATOM      2  C   UNL     1      -0.139   9.446  17.949  0.00  0.00    +0.000 C 
ATOM      3  C   UNL     1      -0.643  10.694  18.692  0.00  0.00    +0.000 C 
ATOM      4  C   UNL     1       0.449  11.203  19.660  0.00  0.00    +0.000 C 
ATOM      5  C   UNL     1       1.648  11.609  18.795  0.00  0.00    +0.000 C 
ATOM      6  C   UNL     1       2.182  10.378  18.081  0.00  0.00    +0.000 C 
ATOM      7  C   UNL     1       0.894  10.010  20.547  0.00  0.00    +0.000 C 
ATOM      8  O   UNL     1       1.324   8.887  19.769  0.00  0.00    +0.000 OA
ENDROOT
BRANCH   4   9
ATOM      9  N   UNL     1       0.069  12.399  20.402  0.00  0.00    +0.000 NA
ATOM     10  H   UNL     1      -0.702  12.884  19.937  0.00  0.00    +0.000 HD
BRANCH   9  11
ATOM     11  C   UNL     1      -0.328  12.128  21.784  0.00  0.00    +0.000 C 
BRANCH  11  12
ATOM     12  C   UNL     1      -1.443  13.035  22.243  0.00  0.00    +0.000 A 
ATOM     13  N   UNL     1      -1.193  13.891  23.255  0.00  0.00    +0.000 NA
ATOM     14  C   UNL     1      -2.260  14.527  23.767  0.00  0.00    +0.000 A 
ATOM     15  C   UNL     1      -3.546  14.303  23.337  0.00  0.00    +0.000 A 
ATOM     16  C   UNL     1      -3.665  13.477  22.237  0.00  0.00    +0.000 A 
ATOM     17  N   UNL     1      -2.641  12.839  21.662  0.00  0.00    +0.000 NA
ATOM     18  O   UNL     1      -4.894  13.182  21.705  0.00  0.00    +0.000 OA
ATOM     19  C   UNL     1      -5.804  13.028  22.789  0.00  0.00    +0.000 C 
ATOM     20  C   UNL     1      -5.862  14.296  23.640  0.00  0.00    +0.000 C 
ATOM     21  O   UNL     1      -4.587  14.824  24.034  0.00  0.00    +0.000 OA
ENDBRANCH  11  12
ENDBRANCH   9  11
ENDBRANCH   4   9
BRANCH   1  22
ATOM     22  C   UNL     1       1.811   7.839  17.639  0.00  0.00    +0.000 C 
BRANCH  22  36
ATOM     23  O   UNL     1       7.159   7.574  16.855  0.00  0.00    +0.000 OA
ATOM     24  C   UNL     1       6.459   6.562  16.902  0.00  0.00    +0.000 A 
ATOM     25  C   UNL     1       6.937   5.267  16.333  0.00  0.00    +0.000 A 
ATOM     26  C   UNL     1       6.173   4.152  16.325  0.00  0.00    +0.000 A 
ATOM     27  C   UNL     1       4.820   4.191  16.870  0.00  0.00    +0.000 A 
ATOM     28  N   UNL     1       4.006   3.124  16.862  0.00  0.00    +0.000 NA
ATOM     29  C   UNL     1       2.746   3.334  17.368  0.00  0.00    +0.000 A 
ATOM     30  C   UNL     1       2.263   4.559  17.848  0.00  0.00    +0.000 A 
ATOM     31  F   UNL     1       1.011   4.659  18.314  0.00  0.00    +0.000 F 
ATOM     32  C   UNL     1       3.115   5.634  17.839  0.00  0.00    +0.000 A 
ATOM     33  C   UNL     1       4.393   5.402  17.364  0.00  0.00    +0.000 A 
ATOM     34  N   UNL     1       5.195   6.523  17.424  0.00  0.00    +0.000 N 
ATOM     35  C   UNL     1       4.390   7.637  17.880  0.00  0.00    +0.000 C 
ATOM     36  C   UNL     1       2.984   7.069  18.292  0.00  0.00    +0.000 C 
BRANCH  36  37
ATOM     37  O   UNL     1       2.847   7.045  19.709  0.00  0.00    +0.000 OA
ATOM     38  H   UNL     1       3.681   7.335  20.114  0.00  0.00    +0.000 HD
ENDBRANCH  36  37
ENDBRANCH  22  36
ENDBRANCH   1  22
TORSDOF 6
ENDMDL
MODEL 9
REMARK VINA RESULT:      -7.8      3.205     10.869
REMARK  Name = 
REMARK  6 active torsions:
REMARK  status: ('A' for Active; 'I' for Inactive)
REMARK    1  A    between atoms: C_14  and  O_15
REMARK    2  A    between atoms: C_14  and  C_16
REMARK    3  A    between atoms: C_16  and  C_17
REMARK    4  A    between atoms: C_20  and  N_21
REMARK    5  A    between atoms: N_21  and  C_22
REMARK    6  A    between atoms: C_22  and  C_23
REMARK                            x       y       z     vdW  Elec       q    Type
REMARK                         _______ _______ _______ _____ _____    ______ ____
ROOT
ATOM      1  C   UNL     1      -1.009  12.700  20.256  0.00  0.00    +0.000 C 
ATOM      2  C   UNL     1       0.344  13.140  19.650  0.00  0.00    +0.000 C 
ATOM      3  C   UNL     1       0.924  12.021  18.770  0.00  0.00    +0.000 C 
ATOM      4  C   UNL     1       0.000  10.784  18.819  0.00  0.00    +0.000 C 
ATOM      5  C   UNL     1      -1.345  11.215  18.224  0.00  0.00    +0.000 C 
ATOM      6  C   UNL     1      -1.950  12.297  19.104  0.00  0.00    +0.000 C 
ATOM      7  C   UNL     1      -0.240  10.428  20.310  0.00  0.00    +0.000 C 
ATOM      8  O   UNL     1      -0.758  11.536  21.055  0.00  0.00    +0.000 OA
ENDROOT
BRANCH   4   9
ATOM      9  N   UNL     1       0.461   9.670  17.999  0.00  0.00    +0.000 NA
ATOM     10  H   UNL     1       0.034   9.703  17.070  0.00  0.00    +0.000 HD
BRANCH   9  11
ATOM     11  C   UNL     1       1.914   9.628  17.833  0.00  0.00    +0.000 C 
BRANCH  11  12
ATOM     12  C   UNL     1       2.499   8.310  18.282  0.00  0.00    +0.000 A 
ATOM     13  N   UNL     1       3.389   7.700  17.474  0.00  0.00    +0.000 NA
ATOM     14  C   UNL     1       3.725   6.443  17.809  0.00  0.00    +0.000 A 
ATOM     15  C   UNL     1       3.175   5.778  18.878  0.00  0.00    +0.000 A 
ATOM     16  C   UNL     1       2.348   6.536  19.682  0.00  0.00    +0.000 A 
ATOM     17  N   UNL     1       1.999   7.801  19.423  0.00  0.00    +0.000 NA
ATOM     18  O   UNL     1       1.744   5.993  20.787  0.00  0.00    +0.000 OA
ATOM     19  C   UNL     1       1.358   4.664  20.452  0.00  0.00    +0.000 C 
ATOM     20  C   UNL     1       2.566   3.834  20.020  0.00  0.00    +0.000 C 
ATOM     21  O   UNL     1       3.407   4.450  19.035  0.00  0.00    +0.000 OA
ENDBRANCH  11  12
ENDBRANCH   9  11
ENDBRANCH   4   9
BRANCH   1  22
ATOM     22  C   UNL     1      -1.571  13.815  21.184  0.00  0.00    +0.000 C 
BRANCH  22  36
ATOM     23  O   UNL     1      -6.608  11.945  21.831  0.00  0.00    +0.000 OA
ATOM     24  C   UNL     1      -6.180  12.897  22.484  0.00  0.00    +0.000 A 
ATOM     25  C   UNL     1      -7.113  13.851  23.156  0.00  0.00    +0.000 A 
ATOM     26  C   UNL     1      -6.676  14.934  23.837  0.00  0.00    +0.000 A 
ATOM     27  C   UNL     1      -5.247  15.217  23.919  0.00  0.00    +0.000 A 
ATOM     28  N   UNL     1      -4.758  16.292  24.556  0.00  0.00    +0.000 NA
ATOM     29  C   UNL     1      -3.393  16.444  24.503  0.00  0.00    +0.000 A 
ATOM     30  C   UNL     1      -2.511  15.592  23.824  0.00  0.00    +0.000 A 
ATOM     31  F   UNL     1      -1.195  15.835  23.828  0.00  0.00    +0.000 F 
ATOM     32  C   UNL     1      -3.040  14.503  23.177  0.00  0.00    +0.000 A 
ATOM     33  C   UNL     1      -4.410  14.339  23.269  0.00  0.00    +0.000 A 
ATOM     34  N   UNL     1      -4.854  13.203  22.624  0.00  0.00    +0.000 N 
ATOM     35  C   UNL     1      -3.728  12.588  21.953  0.00  0.00    +0.000 C 
ATOM     36  C   UNL     1      -2.434  13.367  22.388  0.00  0.00    +0.000 C 
BRANCH  36  37
ATOM     37  O   UNL     1      -1.664  12.592  23.302  0.00  0.00    +0.000 OA
ATOM     38  H   UNL     1      -1.894  12.851  24.210  0.00  0.00    +0.000 HD
ENDBRANCH  36  37
ENDBRANCH  22  36
ENDBRANCH   1  22
TORSDOF 6
ENDMDL
