MODEL 1
REMARK VINA RESULT:      -9.7      0.000      0.000
REMARK  Name = 
REMARK  9 active torsions:
REMARK  status: ('A' for Active; 'I' for Inactive)
REMARK    1  A    between atoms: C_1  and  O_2
REMARK    2  A    between atoms: O_2  and  C_3
REMARK    3  A    between atoms: C_6  and  C_7
REMARK    4  A    between atoms: N_9  and  C_10
REMARK    5  A    between atoms: C_10  and  C_11
REMARK    6  A    between atoms: C_14  and  C_15
REMARK    7  A    between atoms: C_15  and  N_16
REMARK    8  A    between atoms: C_33  and  O_34
REMARK    9  A    between atoms: O_34  and  C_35
REMARK                            x       y       z     vdW  Elec       q    Type
REMARK                         _______ _______ _______ _____ _____    ______ ____
ROOT
ATOM      1  C   UNL     1       2.957   6.184  19.137  0.00  0.00    +0.000 C 
ATOM      2  N   UNL     1       4.241   6.122  18.947  0.00  0.00    +0.000 NA
ATOM      3  N   UNL     1       4.875   4.895  19.055  0.00  0.00    +0.000 N 
ATOM      4  C   UNL     1       4.312   3.784  19.685  0.00  0.00    +0.000 C 
ATOM      5  O   UNL     1       4.910   2.715  19.821  0.00  0.00    +0.000 OA
ATOM      6  C   UNL     1       2.928   4.014  20.270  0.00  0.00    +0.000 C 
ATOM      7  C   UNL     1       2.169   2.699  20.507  0.00  0.00    +0.000 C 
ATOM      8  C   UNL     1       1.480   2.165  19.282  0.00  0.00    +0.000 C 
ATOM      9  C   UNL     1       1.310   2.878  18.159  0.00  0.00    +0.000 C 
ATOM     10  C   UNL     1       1.755   4.302  18.021  0.00  0.00    +0.000 C 
ATOM     11  C   UNL     1       2.124   4.944  19.368  0.00  0.00    +0.000 C 
ENDROOT
BRANCH   1  15
ATOM     12  C   UNL     1       0.705   9.852  19.219  0.00  0.00    +0.000 A 
ATOM     13  C   UNL     1       1.296   9.416  18.023  0.00  0.00    +0.000 A 
ATOM     14  C   UNL     1       2.053   8.243  17.979  0.00  0.00    +0.000 A 
ATOM     15  C   UNL     1       2.272   7.512  19.146  0.00  0.00    +0.000 A 
ATOM     16  C   UNL     1       1.778   8.003  20.356  0.00  0.00    +0.000 A 
ATOM     17  C   UNL     1       0.993   9.167  20.410  0.00  0.00    +0.000 A 
BRANCH  12  19
ATOM     18  C   UNL     1      -1.476  10.685  18.805  0.00  0.00    +0.000 C 
ATOM     19  O   UNL     1      -0.135  10.933  19.238  0.00  0.00    +0.000 OA
ENDBRANCH  12  19
BRANCH  17  20
ATOM     20  O   UNL     1       0.574   9.432  21.686  0.00  0.00    +0.000 OA
ATOM     21  C   UNL     1      -0.559   8.755  22.204  0.00  0.00    +0.000 C 
ENDBRANCH  17  20
ENDBRANCH   1  15
BRANCH   3  22
ATOM     22  C   UNL     1       6.177   4.760  18.399  0.00  0.00    +0.000 C 
BRANCH  22  23
ATOM     23  C   UNL     1       6.955   6.041  18.178  0.00  0.00    +0.000 A 
ATOM     24  C   UNL     1       6.562   6.968  17.201  0.00  0.00    +0.000 A 
ATOM     25  C   UNL     1       7.141   8.244  17.146  0.00  0.00    +0.000 A 
ATOM     26  C   UNL     1       8.128   8.621  18.068  0.00  0.00    +0.000 A 
ATOM     27  C   UNL     1       8.579   7.659  18.982  0.00  0.00    +0.000 A 
ATOM     28  C   UNL     1       7.995   6.392  19.044  0.00  0.00    +0.000 A 
BRANCH  26  29
ATOM     29  C   UNL     1       8.732  10.008  18.076  0.00  0.00    +0.000 C 
BRANCH  29  30
ATOM     30  N   UNL     1       9.732  10.344  19.101  0.00  0.00    +0.000 NA
ATOM     31  C   UNL     1       9.242  10.852  20.389  0.00  0.00    +0.000 C 
ATOM     32  C   UNL     1       9.147  12.387  20.491  0.00  0.00    +0.000 C 
ATOM     33  O   UNL     1      10.361  13.030  20.084  0.00  0.00    +0.000 OA
ATOM     34  C   UNL     1      10.722  12.638  18.754  0.00  0.00    +0.000 C 
ATOM     35  C   UNL     1      10.894  11.117  18.652  0.00  0.00    +0.000 C 
ENDBRANCH  29  30
ENDBRANCH  26  29
ENDBRANCH  22  23
ENDBRANCH   3  22
TORSDOF 7
ENDMDL
MODEL 2
REMARK VINA RESULT:      -9.3      0.909      1.179
REMARK  Name = 
REMARK  9 active torsions:
REMARK  status: ('A' for Active; 'I' for Inactive)
REMARK    1  A    between atoms: C_1  and  O_2
REMARK    2  A    between atoms: O_2  and  C_3
REMARK    3  A    between atoms: C_6  and  C_7
REMARK    4  A    between atoms: N_9  and  C_10
REMARK    5  A    between atoms: C_10  and  C_11
REMARK    6  A    between atoms: C_14  and  C_15
REMARK    7  A    between atoms: C_15  and  N_16
REMARK    8  A    between atoms: C_33  and  O_34
REMARK    9  A    between atoms: O_34  and  C_35
REMARK                            x       y       z     vdW  Elec       q    Type
REMARK                         _______ _______ _______ _____ _____    ______ ____
ROOT
ATOM      1  C   UNL     1       2.881   6.356  19.043  0.00  0.00    +0.000 C 
ATOM      2  N   UNL     1       4.126   6.380  18.671  0.00  0.00    +0.000 NA
ATOM      3  N   UNL     1       4.840   5.193  18.645  0.00  0.00    +0.000 N 
ATOM      4  C   UNL     1       4.439   4.032  19.308  0.00  0.00    +0.000 C 
ATOM      5  O   UNL     1       5.112   2.999  19.320  0.00  0.00    +0.000 OA
ATOM      6  C   UNL     1       3.142   4.157  20.090  0.00  0.00    +0.000 C 
ATOM      7  C   UNL     1       2.503   2.791  20.385  0.00  0.00    +0.000 C 
ATOM      8  C   UNL     1       1.679   2.248  19.250  0.00  0.00    +0.000 C 
ATOM      9  C   UNL     1       1.308   2.980  18.189  0.00  0.00    +0.000 C 
ATOM     10  C   UNL     1       1.645   4.432  18.041  0.00  0.00    +0.000 C 
ATOM     11  C   UNL     1       2.164   5.060  19.344  0.00  0.00    +0.000 C 
ENDROOT
BRANCH   1  15
ATOM     12  C   UNL     1       0.436   9.873  19.458  0.00  0.00    +0.000 A 
ATOM     13  C   UNL     1       1.242   9.707  18.321  0.00  0.00    +0.000 A 
ATOM     14  C   UNL     1       2.063   8.586  18.178  0.00  0.00    +0.000 A 
ATOM     15  C   UNL     1       2.128   7.636  19.195  0.00  0.00    +0.000 A 
ATOM     16  C   UNL     1       1.412   7.856  20.374  0.00  0.00    +0.000 A 
ATOM     17  C   UNL     1       0.562   8.965  20.521  0.00  0.00    +0.000 A 
BRANCH  12  19
ATOM     18  C   UNL     1       0.053  12.127  20.091  0.00  0.00    +0.000 C 
ATOM     19  O   UNL     1      -0.458  10.908  19.544  0.00  0.00    +0.000 OA
ENDBRANCH  12  19
BRANCH  17  20
ATOM     20  O   UNL     1      -0.077   8.952  21.730  0.00  0.00    +0.000 OA
ATOM     21  C   UNL     1       0.546   9.544  22.858  0.00  0.00    +0.000 C 
ENDBRANCH  17  20
ENDBRANCH   1  15
BRANCH   3  22
ATOM     22  C   UNL     1       6.040   5.157  17.807  0.00  0.00    +0.000 C 
BRANCH  22  23
ATOM     23  C   UNL     1       7.004   6.316  17.963  0.00  0.00    +0.000 A 
ATOM     24  C   UNL     1       6.916   7.449  17.140  0.00  0.00    +0.000 A 
ATOM     25  C   UNL     1       7.655   8.605  17.426  0.00  0.00    +0.000 A 
ATOM     26  C   UNL     1       8.500   8.656  18.544  0.00  0.00    +0.000 A 
ATOM     27  C   UNL     1       8.650   7.491  19.309  0.00  0.00    +0.000 A 
ATOM     28  C   UNL     1       7.907   6.343  19.031  0.00  0.00    +0.000 A 
BRANCH  26  29
ATOM     29  C   UNL     1       9.266   9.906  18.916  0.00  0.00    +0.000 C 
BRANCH  29  30
ATOM     30  N   UNL     1       9.501  10.929  17.887  0.00  0.00    +0.000 NA
ATOM     31  C   UNL     1      10.869  11.445  17.740  0.00  0.00    +0.000 C 
ATOM     32  C   UNL     1      11.180  12.712  18.561  0.00  0.00    +0.000 C 
ATOM     33  O   UNL     1      10.193  13.734  18.368  0.00  0.00    +0.000 OA
ATOM     34  C   UNL     1       8.884  13.242  18.682  0.00  0.00    +0.000 C 
ATOM     35  C   UNL     1       8.529  12.024  17.819  0.00  0.00    +0.000 C 
ENDBRANCH  29  30
ENDBRANCH  26  29
ENDBRANCH  22  23
ENDBRANCH   3  22
TORSDOF 7
ENDMDL
MODEL 3
REMARK VINA RESULT:      -9.0      0.844      1.609
REMARK  Name = 
REMARK  9 active torsions:
REMARK  status: ('A' for Active; 'I' for Inactive)
REMARK    1  A    between atoms: C_1  and  O_2
REMARK    2  A    between atoms: O_2  and  C_3
REMARK    3  A    between atoms: C_6  and  C_7
REMARK    4  A    between atoms: N_9  and  C_10
REMARK    5  A    between atoms: C_10  and  C_11
REMARK    6  A    between atoms: C_14  and  C_15
REMARK    7  A    between atoms: C_15  and  N_16
REMARK    8  A    between atoms: C_33  and  O_34
REMARK    9  A    between atoms: O_34  and  C_35
REMARK                            x       y       z     vdW  Elec       q    Type
REMARK                         _______ _______ _______ _____ _____    ______ ____
ROOT
ATOM      1  C   UNL     1       2.834   5.947  19.469  0.00  0.00    +0.000 C 
ATOM      2  N   UNL     1       4.094   5.920  19.153  0.00  0.00    +0.000 NA
ATOM      3  N   UNL     1       4.751   4.700  19.127  0.00  0.00    +0.000 N 
ATOM      4  C   UNL     1       4.266   3.544  19.741  0.00  0.00    +0.000 C 
ATOM      5  O   UNL     1       4.888   2.480  19.756  0.00  0.00    +0.000 OA
ATOM      6  C   UNL     1       2.942   3.714  20.468  0.00  0.00    +0.000 C 
ATOM      7  C   UNL     1       2.226   2.374  20.699  0.00  0.00    +0.000 C 
ATOM      8  C   UNL     1       1.429   1.900  19.515  0.00  0.00    +0.000 C 
ATOM      9  C   UNL     1       1.143   2.674  18.458  0.00  0.00    +0.000 C 
ATOM     10  C   UNL     1       1.554   4.111  18.363  0.00  0.00    +0.000 C 
ATOM     11  C   UNL     1       2.044   4.681  19.704  0.00  0.00    +0.000 C 
ENDROOT
BRANCH   1  15
ATOM     12  C   UNL     1       1.118   9.868  19.930  0.00  0.00    +0.000 A 
ATOM     13  C   UNL     1       0.940   8.900  20.931  0.00  0.00    +0.000 A 
ATOM     14  C   UNL     1       1.466   7.613  20.791  0.00  0.00    +0.000 A 
ATOM     15  C   UNL     1       2.137   7.259  19.622  0.00  0.00    +0.000 A 
ATOM     16  C   UNL     1       2.219   8.186  18.581  0.00  0.00    +0.000 A 
ATOM     17  C   UNL     1       1.718   9.491  18.718  0.00  0.00    +0.000 A 
BRANCH  12  19
ATOM     18  C   UNL     1      -0.632  11.454  19.719  0.00  0.00    +0.000 C 
ATOM     19  O   UNL     1       0.710  11.161  20.119  0.00  0.00    +0.000 OA
ENDBRANCH  12  19
BRANCH  17  20
ATOM     20  O   UNL     1       1.953  10.241  17.598  0.00  0.00    +0.000 OA
ATOM     21  C   UNL     1       2.595  11.499  17.720  0.00  0.00    +0.000 C 
ENDBRANCH  17  20
ENDBRANCH   1  15
BRANCH   3  22
ATOM     22  C   UNL     1       5.985   4.626  18.342  0.00  0.00    +0.000 C 
BRANCH  22  23
ATOM     23  C   UNL     1       6.682   5.942  18.059  0.00  0.00    +0.000 A 
ATOM     24  C   UNL     1       6.131   6.878  17.171  0.00  0.00    +0.000 A 
ATOM     25  C   UNL     1       6.653   8.176  17.079  0.00  0.00    +0.000 A 
ATOM     26  C   UNL     1       7.739   8.568  17.874  0.00  0.00    +0.000 A 
ATOM     27  C   UNL     1       8.340   7.601  18.692  0.00  0.00    +0.000 A 
ATOM     28  C   UNL     1       7.814   6.312  18.792  0.00  0.00    +0.000 A 
BRANCH  26  29
ATOM     29  C   UNL     1       8.289   9.977  17.844  0.00  0.00    +0.000 C 
BRANCH  29  30
ATOM     30  N   UNL     1       9.502  10.284  18.618  0.00  0.00    +0.000 NA
ATOM     31  C   UNL     1       9.328  10.743  20.002  0.00  0.00    +0.000 C 
ATOM     32  C   UNL     1       9.260  12.273  20.179  0.00  0.00    +0.000 C 
ATOM     33  O   UNL     1      10.346  12.939  19.521  0.00  0.00    +0.000 OA
ATOM     34  C   UNL     1      10.384  12.596  18.131  0.00  0.00    +0.000 C 
ATOM     35  C   UNL     1      10.526  11.081  17.937  0.00  0.00    +0.000 C 
ENDBRANCH  29  30
ENDBRANCH  26  29
ENDBRANCH  22  23
ENDBRANCH   3  22
TORSDOF 7
ENDMDL
MODEL 4
REMARK VINA RESULT:      -8.8      3.114      8.490
REMARK  Name = 
REMARK  9 active torsions:
REMARK  status: ('A' for Active; 'I' for Inactive)
REMARK    1  A    between atoms: C_1  and  O_2
REMARK    2  A    between atoms: O_2  and  C_3
REMARK    3  A    between atoms: C_6  and  C_7
REMARK    4  A    between atoms: N_9  and  C_10
REMARK    5  A    between atoms: C_10  and  C_11
REMARK    6  A    between atoms: C_14  and  C_15
REMARK    7  A    between atoms: C_15  and  N_16
REMARK    8  A    between atoms: C_33  and  O_34
REMARK    9  A    between atoms: O_34  and  C_35
REMARK                            x       y       z     vdW  Elec       q    Type
REMARK                         _______ _______ _______ _____ _____    ______ ____
ROOT
ATOM      1  C   UNL     1       3.935   5.012  18.294  0.00  0.00    +0.000 C 
ATOM      2  N   UNL     1       3.554   6.168  18.750  0.00  0.00    +0.000 NA
ATOM      3  N   UNL     1       2.500   6.220  19.648  0.00  0.00    +0.000 N 
ATOM      4  C   UNL     1       1.594   5.176  19.841  0.00  0.00    +0.000 C 
ATOM      5  O   UNL     1       0.629   5.257  20.603  0.00  0.00    +0.000 OA
ATOM      6  C   UNL     1       1.835   3.951  18.974  0.00  0.00    +0.000 C 
ATOM      7  C   UNL     1       1.155   2.693  19.537  0.00  0.00    +0.000 C 
ATOM      8  C   UNL     1       1.951   2.000  20.608  0.00  0.00    +0.000 C 
ATOM      9  C   UNL     1       3.237   2.277  20.870  0.00  0.00    +0.000 C 
ATOM     10  C   UNL     1       4.029   3.284  20.095  0.00  0.00    +0.000 C 
ATOM     11  C   UNL     1       3.332   3.720  18.796  0.00  0.00    +0.000 C 
ENDROOT
BRANCH   1  15
ATOM     12  C   UNL     1       6.848   5.091  15.126  0.00  0.00    +0.000 A 
ATOM     13  C   UNL     1       5.858   4.096  15.147  0.00  0.00    +0.000 A 
ATOM     14  C   UNL     1       4.918   4.036  16.180  0.00  0.00    +0.000 A 
ATOM     15  C   UNL     1       4.986   4.942  17.236  0.00  0.00    +0.000 A 
ATOM     16  C   UNL     1       6.036   5.862  17.273  0.00  0.00    +0.000 A 
ATOM     17  C   UNL     1       6.972   5.951  16.229  0.00  0.00    +0.000 A 
BRANCH  12  19
ATOM     18  C   UNL     1       7.270   4.583  12.848  0.00  0.00    +0.000 C 
ATOM     19  O   UNL     1       7.691   5.225  14.056  0.00  0.00    +0.000 OA
ENDBRANCH  12  19
BRANCH  17  20
ATOM     20  O   UNL     1       7.877   6.953  16.449  0.00  0.00    +0.000 OA
ATOM     21  C   UNL     1       7.718   7.805  17.571  0.00  0.00    +0.000 C 
ENDBRANCH  17  20
ENDBRANCH   1  15
BRANCH   3  22
ATOM     22  C   UNL     1       2.396   7.418  20.483  0.00  0.00    +0.000 C 
BRANCH  22  23
ATOM     23  C   UNL     1       1.441   8.491  20.002  0.00  0.00    +0.000 A 
ATOM     24  C   UNL     1       1.456   8.932  18.671  0.00  0.00    +0.000 A 
ATOM     25  C   UNL     1       0.435   9.755  18.174  0.00  0.00    +0.000 A 
ATOM     26  C   UNL     1      -0.625  10.157  18.999  0.00  0.00    +0.000 A 
ATOM     27  C   UNL     1      -0.585   9.786  20.350  0.00  0.00    +0.000 A 
ATOM     28  C   UNL     1       0.425   8.958  20.843  0.00  0.00    +0.000 A 
BRANCH  26  29
ATOM     29  C   UNL     1      -1.773  10.995  18.482  0.00  0.00    +0.000 C 
BRANCH  29  30
ATOM     30  N   UNL     1      -2.942  10.318  17.899  0.00  0.00    +0.000 NA
ATOM     31  C   UNL     1      -2.844   9.871  16.503  0.00  0.00    +0.000 C 
ATOM     32  C   UNL     1      -3.355  10.880  15.457  0.00  0.00    +0.000 C 
ATOM     33  O   UNL     1      -4.664  11.371  15.776  0.00  0.00    +0.000 OA
ATOM     34  C   UNL     1      -4.682  11.953  17.085  0.00  0.00    +0.000 C 
ATOM     35  C   UNL     1      -4.247  10.938  18.149  0.00  0.00    +0.000 C 
ENDBRANCH  29  30
ENDBRANCH  26  29
ENDBRANCH  22  23
ENDBRANCH   3  22
TORSDOF 7
ENDMDL
MODEL 5
REMARK VINA RESULT:      -8.8      1.005      1.812
REMARK  Name = 
REMARK  9 active torsions:
REMARK  status: ('A' for Active; 'I' for Inactive)
REMARK    1  A    between atoms: C_1  and  O_2
REMARK    2  A    between atoms: O_2  and  C_3
REMARK    3  A    between atoms: C_6  and  C_7
REMARK    4  A    between atoms: N_9  and  C_10
REMARK    5  A    between atoms: C_10  and  C_11
REMARK    6  A    between atoms: C_14  and  C_15
REMARK    7  A    between atoms: C_15  and  N_16
REMARK    8  A    between atoms: C_33  and  O_34
REMARK    9  A    between atoms: O_34  and  C_35
REMARK                            x       y       z     vdW  Elec       q    Type
REMARK                         _______ _______ _______ _____ _____    ______ ____
ROOT
ATOM      1  C   UNL     1       2.655   6.212  19.487  0.00  0.00    +0.000 C 
ATOM      2  N   UNL     1       3.825   6.258  18.924  0.00  0.00    +0.000 NA
ATOM      3  N   UNL     1       4.544   5.083  18.776  0.00  0.00    +0.000 N 
ATOM      4  C   UNL     1       4.270   3.911  19.484  0.00  0.00    +0.000 C 
ATOM      5  O   UNL     1       4.951   2.890  19.382  0.00  0.00    +0.000 OA
ATOM      6  C   UNL     1       3.109   4.012  20.461  0.00  0.00    +0.000 C 
ATOM      7  C   UNL     1       2.546   2.634  20.842  0.00  0.00    +0.000 C 
ATOM      8  C   UNL     1       1.561   2.084  19.847  0.00  0.00    +0.000 C 
ATOM      9  C   UNL     1       1.017   2.816  18.863  0.00  0.00    +0.000 C 
ATOM     10  C   UNL     1       1.305   4.274  18.676  0.00  0.00    +0.000 C 
ATOM     11  C   UNL     1       2.014   4.903  19.886  0.00  0.00    +0.000 C 
ENDROOT
BRANCH   1  15
ATOM     12  C   UNL     1       0.815  10.014  20.312  0.00  0.00    +0.000 A 
ATOM     13  C   UNL     1       0.718   8.969  21.244  0.00  0.00    +0.000 A 
ATOM     14  C   UNL     1       1.285   7.718  20.986  0.00  0.00    +0.000 A 
ATOM     15  C   UNL     1       1.916   7.479  19.767  0.00  0.00    +0.000 A 
ATOM     16  C   UNL     1       1.917   8.482  18.796  0.00  0.00    +0.000 A 
ATOM     17  C   UNL     1       1.374   9.753  19.052  0.00  0.00    +0.000 A 
BRANCH  12  19
ATOM     18  C   UNL     1      -1.035  11.493  20.435  0.00  0.00    +0.000 C 
ATOM     19  O   UNL     1       0.367  11.273  20.615  0.00  0.00    +0.000 OA
ENDBRANCH  12  19
BRANCH  17  20
ATOM     20  O   UNL     1       1.531  10.592  17.982  0.00  0.00    +0.000 OA
ATOM     21  C   UNL     1       2.339  11.749  18.114  0.00  0.00    +0.000 C 
ENDBRANCH  17  20
ENDBRANCH   1  15
BRANCH   3  22
ATOM     22  C   UNL     1       5.598   5.071  17.760  0.00  0.00    +0.000 C 
BRANCH  22  23
ATOM     23  C   UNL     1       6.677   6.125  17.899  0.00  0.00    +0.000 A 
ATOM     24  C   UNL     1       6.636   7.309  17.147  0.00  0.00    +0.000 A 
ATOM     25  C   UNL     1       7.502   8.374  17.433  0.00  0.00    +0.000 A 
ATOM     26  C   UNL     1       8.431   8.278  18.480  0.00  0.00    +0.000 A 
ATOM     27  C   UNL     1       8.527   7.060  19.167  0.00  0.00    +0.000 A 
ATOM     28  C   UNL     1       7.657   6.004  18.889  0.00  0.00    +0.000 A 
BRANCH  26  29
ATOM     29  C   UNL     1       9.339   9.428  18.855  0.00  0.00    +0.000 C 
BRANCH  29  30
ATOM     30  N   UNL     1       8.749  10.755  19.085  0.00  0.00    +0.000 NA
ATOM     31  C   UNL     1       8.794  11.722  17.980  0.00  0.00    +0.000 C 
ATOM     32  C   UNL     1      10.017  12.660  17.982  0.00  0.00    +0.000 C 
ATOM     33  O   UNL     1      10.211  13.288  19.256  0.00  0.00    +0.000 OA
ATOM     34  C   UNL     1      10.331  12.306  20.293  0.00  0.00    +0.000 C 
ATOM     35  C   UNL     1       9.087  11.409  20.352  0.00  0.00    +0.000 C 
ENDBRANCH  29  30
ENDBRANCH  26  29
ENDBRANCH  22  23
ENDBRANCH   3  22
TORSDOF 7
ENDMDL
MODEL 6
REMARK VINA RESULT:      -8.5      3.101      7.249
REMARK  Name = 
REMARK  9 active torsions:
REMARK  status: ('A' for Active; 'I' for Inactive)
REMARK    1  A    between atoms: C_1  and  O_2
REMARK    2  A    between atoms: O_2  and  C_3
REMARK    3  A    between atoms: C_6  and  C_7
REMARK    4  A    between atoms: N_9  and  C_10
REMARK    5  A    between atoms: C_10  and  C_11
REMARK    6  A    between atoms: C_14  and  C_15
REMARK    7  A    between atoms: C_15  and  N_16
REMARK    8  A    between atoms: C_33  and  O_34
REMARK    9  A    between atoms: O_34  and  C_35
REMARK                            x       y       z     vdW  Elec       q    Type
REMARK                         _______ _______ _______ _____ _____    ______ ____
ROOT
ATOM      1  C   UNL     1       3.841   5.036  18.230  0.00  0.00    +0.000 C 
ATOM      2  N   UNL     1       3.453   6.181  18.707  0.00  0.00    +0.000 NA
ATOM      3  N   UNL     1       2.377   6.212  19.579  0.00  0.00    +0.000 N 
ATOM      4  C   UNL     1       1.462   5.168  19.719  0.00  0.00    +0.000 C 
ATOM      5  O   UNL     1       0.478   5.232  20.459  0.00  0.00    +0.000 OA
ATOM      6  C   UNL     1       1.721   3.966  18.825  0.00  0.00    +0.000 C 
ATOM      7  C   UNL     1       1.022   2.696  19.336  0.00  0.00    +0.000 C 
ATOM      8  C   UNL     1       1.788   1.970  20.407  0.00  0.00    +0.000 C 
ATOM      9  C   UNL     1       3.067   2.235  20.711  0.00  0.00    +0.000 C 
ATOM     10  C   UNL     1       3.883   3.259  19.984  0.00  0.00    +0.000 C 
ATOM     11  C   UNL     1       3.221   3.734  18.680  0.00  0.00    +0.000 C 
ENDROOT
BRANCH   1  15
ATOM     12  C   UNL     1       6.841   5.195  15.148  0.00  0.00    +0.000 A 
ATOM     13  C   UNL     1       5.827   4.228  15.092  0.00  0.00    +0.000 A 
ATOM     14  C   UNL     1       4.857   4.141  16.095  0.00  0.00    +0.000 A 
ATOM     15  C   UNL     1       4.919   4.991  17.197  0.00  0.00    +0.000 A 
ATOM     16  C   UNL     1       5.990   5.879  17.309  0.00  0.00    +0.000 A 
ATOM     17  C   UNL     1       6.957   5.995  16.295  0.00  0.00    +0.000 A 
BRANCH  12  19
ATOM     18  C   UNL     1       7.319   4.779  12.862  0.00  0.00    +0.000 C 
ATOM     19  O   UNL     1       7.717   5.360  14.108  0.00  0.00    +0.000 OA
ENDBRANCH  12  19
BRANCH  17  20
ATOM     20  O   UNL     1       7.881   6.960  16.590  0.00  0.00    +0.000 OA
ATOM     21  C   UNL     1       7.588   7.929  17.583  0.00  0.00    +0.000 C 
ENDBRANCH  17  20
ENDBRANCH   1  15
BRANCH   3  22
ATOM     22  C   UNL     1       2.255   7.387  20.444  0.00  0.00    +0.000 C 
BRANCH  22  23
ATOM     23  C   UNL     1       1.361   8.503  19.941  0.00  0.00    +0.000 A 
ATOM     24  C   UNL     1       0.414   9.107  20.781  0.00  0.00    +0.000 A 
ATOM     25  C   UNL     1      -0.252  10.277  20.390  0.00  0.00    +0.000 A 
ATOM     26  C   UNL     1       0.014  10.870  19.147  0.00  0.00    +0.000 A 
ATOM     27  C   UNL     1       0.894  10.210  18.277  0.00  0.00    +0.000 A 
ATOM     28  C   UNL     1       1.565   9.051  18.671  0.00  0.00    +0.000 A 
BRANCH  26  29
ATOM     29  C   UNL     1      -0.641  12.163  18.717  0.00  0.00    +0.000 C 
BRANCH  29  30
ATOM     30  N   UNL     1      -0.069  13.438  19.175  0.00  0.00    +0.000 NA
ATOM     31  C   UNL     1       1.395  13.559  19.198  0.00  0.00    +0.000 C 
ATOM     32  C   UNL     1       2.059  13.190  20.540  0.00  0.00    +0.000 C 
ATOM     33  O   UNL     1       1.444  13.862  21.647  0.00  0.00    +0.000 OA
ATOM     34  C   UNL     1       0.038  13.587  21.691  0.00  0.00    +0.000 C 
ATOM     35  C   UNL     1      -0.651  14.017  20.389  0.00  0.00    +0.000 C 
ENDBRANCH  29  30
ENDBRANCH  26  29
ENDBRANCH  22  23
ENDBRANCH   3  22
TORSDOF 7
ENDMDL
MODEL 7
REMARK VINA RESULT:      -8.5      3.014      7.492
REMARK  Name = 
REMARK  9 active torsions:
REMARK  status: ('A' for Active; 'I' for Inactive)
REMARK    1  A    between atoms: C_1  and  O_2
REMARK    2  A    between atoms: O_2  and  C_3
REMARK    3  A    between atoms: C_6  and  C_7
REMARK    4  A    between atoms: N_9  and  C_10
REMARK    5  A    between atoms: C_10  and  C_11
REMARK    6  A    between atoms: C_14  and  C_15
REMARK    7  A    between atoms: C_15  and  N_16
REMARK    8  A    between atoms: C_33  and  O_34
REMARK    9  A    between atoms: O_34  and  C_35
REMARK                            x       y       z     vdW  Elec       q    Type
REMARK                         _______ _______ _______ _____ _____    ______ ____
ROOT
ATOM      1  C   UNL     1       3.889   4.972  18.161  0.00  0.00    +0.000 C 
ATOM      2  N   UNL     1       3.528   6.100  18.695  0.00  0.00    +0.000 NA
ATOM      3  N   UNL     1       2.442   6.118  19.554  0.00  0.00    +0.000 N 
ATOM      4  C   UNL     1       1.494   5.096  19.627  0.00  0.00    +0.000 C 
ATOM      5  O   UNL     1       0.503   5.150  20.357  0.00  0.00    +0.000 OA
ATOM      6  C   UNL     1       1.730   3.936  18.672  0.00  0.00    +0.000 C 
ATOM      7  C   UNL     1       0.986   2.663  19.104  0.00  0.00    +0.000 C 
ATOM      8  C   UNL     1       1.715   1.857  20.143  0.00  0.00    +0.000 C 
ATOM      9  C   UNL     1       2.998   2.066  20.476  0.00  0.00    +0.000 C 
ATOM     10  C   UNL     1       3.854   3.102  19.816  0.00  0.00    +0.000 C 
ATOM     11  C   UNL     1       3.224   3.666  18.532  0.00  0.00    +0.000 C 
ENDROOT
BRANCH   1  15
ATOM     12  C   UNL     1       6.912   5.188  15.104  0.00  0.00    +0.000 A 
ATOM     13  C   UNL     1       5.944   4.173  15.066  0.00  0.00    +0.000 A 
ATOM     14  C   UNL     1       4.969   4.068  16.061  0.00  0.00    +0.000 A 
ATOM     15  C   UNL     1       4.979   4.950  17.140  0.00  0.00    +0.000 A 
ATOM     16  C   UNL     1       6.006   5.890  17.237  0.00  0.00    +0.000 A 
ATOM     17  C   UNL     1       6.977   6.024  16.230  0.00  0.00    +0.000 A 
BRANCH  12  19
ATOM     18  C   UNL     1       7.389   4.812  12.812  0.00  0.00    +0.000 C 
ATOM     19  O   UNL     1       7.790   5.366  14.069  0.00  0.00    +0.000 OA
ENDBRANCH  12  19
BRANCH  17  20
ATOM     20  O   UNL     1       7.852   7.039  16.507  0.00  0.00    +0.000 OA
ATOM     21  C   UNL     1       7.731   7.753  17.725  0.00  0.00    +0.000 C 
ENDBRANCH  17  20
ENDBRANCH   1  15
BRANCH   3  22
ATOM     22  C   UNL     1       2.344   7.248  20.480  0.00  0.00    +0.000 C 
BRANCH  22  23
ATOM     23  C   UNL     1       1.506   8.423  20.020  0.00  0.00    +0.000 A 
ATOM     24  C   UNL     1       1.582   8.896  18.701  0.00  0.00    +0.000 A 
ATOM     25  C   UNL     1       0.654   9.829  18.217  0.00  0.00    +0.000 A 
ATOM     26  C   UNL     1      -0.372  10.312  19.043  0.00  0.00    +0.000 A 
ATOM     27  C   UNL     1      -0.386   9.904  20.384  0.00  0.00    +0.000 A 
ATOM     28  C   UNL     1       0.531   8.966  20.863  0.00  0.00    +0.000 A 
BRANCH  26  29
ATOM     29  C   UNL     1      -1.424  11.273  18.537  0.00  0.00    +0.000 C 
BRANCH  29  30
ATOM     30  N   UNL     1      -1.228  12.716  18.743  0.00  0.00    +0.000 NA
ATOM     31  C   UNL     1       0.103  13.270  18.459  0.00  0.00    +0.000 C 
ATOM     32  C   UNL     1       1.056  13.331  19.669  0.00  0.00    +0.000 C 
ATOM     33  O   UNL     1       0.443  13.954  20.806  0.00  0.00    +0.000 OA
ATOM     34  C   UNL     1      -0.772  13.282  21.159  0.00  0.00    +0.000 C 
ATOM     35  C   UNL     1      -1.763  13.278  19.987  0.00  0.00    +0.000 C 
ENDBRANCH  29  30
ENDBRANCH  26  29
ENDBRANCH  22  23
ENDBRANCH   3  22
TORSDOF 7
ENDMDL
MODEL 8
REMARK VINA RESULT:      -8.5      0.840      1.331
REMARK  Name = 
REMARK  9 active torsions:
REMARK  status: ('A' for Active; 'I' for Inactive)
REMARK    1  A    between atoms: C_1  and  O_2
REMARK    2  A    between atoms: O_2  and  C_3
REMARK    3  A    between atoms: C_6  and  C_7
REMARK    4  A    between atoms: N_9  and  C_10
REMARK    5  A    between atoms: C_10  and  C_11
REMARK    6  A    between atoms: C_14  and  C_15
REMARK    7  A    between atoms: C_15  and  N_16
REMARK    8  A    between atoms: C_33  and  O_34
REMARK    9  A    between atoms: O_34  and  C_35
REMARK                            x       y       z     vdW  Elec       q    Type
REMARK                         _______ _______ _______ _____ _____    ______ ____
ROOT
ATOM      1  C   UNL     1       2.631   6.103  19.494  0.00  0.00    +0.000 C 
ATOM      2  N   UNL     1       3.910   6.107  19.265  0.00  0.00    +0.000 NA
ATOM      3  N   UNL     1       4.586   4.899  19.221  0.00  0.00    +0.000 N 
ATOM      4  C   UNL     1       4.078   3.707  19.740  0.00  0.00    +0.000 C 
ATOM      5  O   UNL     1       4.714   2.651  19.743  0.00  0.00    +0.000 OA
ATOM      6  C   UNL     1       2.705   3.823  20.381  0.00  0.00    +0.000 C 
ATOM      7  C   UNL     1       1.996   2.464  20.493  0.00  0.00    +0.000 C 
ATOM      8  C   UNL     1       1.289   2.042  19.234  0.00  0.00    +0.000 C 
ATOM      9  C   UNL     1       1.064   2.867  18.201  0.00  0.00    +0.000 C 
ATOM     10  C   UNL     1       1.458   4.312  18.208  0.00  0.00    +0.000 C 
ATOM     11  C   UNL     1       1.846   4.817  19.608  0.00  0.00    +0.000 C 
ENDROOT
BRANCH   1  15
ATOM     12  C   UNL     1       0.260   9.666  19.947  0.00  0.00    +0.000 A 
ATOM     13  C   UNL     1       1.100   9.519  18.833  0.00  0.00    +0.000 A 
ATOM     14  C   UNL     1       1.899   8.382  18.679  0.00  0.00    +0.000 A 
ATOM     15  C   UNL     1       1.905   7.397  19.665  0.00  0.00    +0.000 A 
ATOM     16  C   UNL     1       1.153   7.595  20.825  0.00  0.00    +0.000 A 
ATOM     17  C   UNL     1       0.326   8.720  20.981  0.00  0.00    +0.000 A 
BRANCH  12  19
ATOM     18  C   UNL     1      -0.400  11.784  19.106  0.00  0.00    +0.000 C 
ATOM     19  O   UNL     1      -0.611  10.720  20.039  0.00  0.00    +0.000 OA
ENDBRANCH  12  19
BRANCH  17  20
ATOM     20  O   UNL     1      -0.356   8.682  22.167  0.00  0.00    +0.000 OA
ATOM     21  C   UNL     1      -0.035   9.612  23.188  0.00  0.00    +0.000 C 
ENDBRANCH  17  20
ENDBRANCH   1  15
BRANCH   3  22
ATOM     22  C   UNL     1       5.872   4.881  18.521  0.00  0.00    +0.000 C 
BRANCH  22  23
ATOM     23  C   UNL     1       6.611   6.201  18.438  0.00  0.00    +0.000 A 
ATOM     24  C   UNL     1       7.784   6.424  19.175  0.00  0.00    +0.000 A 
ATOM     25  C   UNL     1       8.583   7.550  18.932  0.00  0.00    +0.000 A 
ATOM     26  C   UNL     1       8.228   8.480  17.945  0.00  0.00    +0.000 A 
ATOM     27  C   UNL     1       7.009   8.298  17.277  0.00  0.00    +0.000 A 
ATOM     28  C   UNL     1       6.218   7.172  17.511  0.00  0.00    +0.000 A 
BRANCH  26  29
ATOM     29  C   UNL     1       9.096   9.673  17.615  0.00  0.00    +0.000 C 
BRANCH  29  30
ATOM     30  N   UNL     1       9.030  10.862  18.478  0.00  0.00    +0.000 NA
ATOM     31  C   UNL     1       8.939  12.174  17.825  0.00  0.00    +0.000 C 
ATOM     32  C   UNL     1      10.289  12.873  17.573  0.00  0.00    +0.000 C 
ATOM     33  O   UNL     1      11.103  12.914  18.753  0.00  0.00    +0.000 OA
ATOM     34  C   UNL     1      11.310  11.594  19.271  0.00  0.00    +0.000 C 
ATOM     35  C   UNL     1       9.976  10.911  19.597  0.00  0.00    +0.000 C 
ENDBRANCH  29  30
ENDBRANCH  26  29
ENDBRANCH  22  23
ENDBRANCH   3  22
TORSDOF 7
ENDMDL
MODEL 9
REMARK VINA RESULT:      -8.4      1.038      1.995
REMARK  Name = 
REMARK  9 active torsions:
REMARK  status: ('A' for Active; 'I' for Inactive)
REMARK    1  A    between atoms: C_1  and  O_2
REMARK    2  A    between atoms: O_2  and  C_3
REMARK    3  A    between atoms: C_6  and  C_7
REMARK    4  A    between atoms: N_9  and  C_10
REMARK    5  A    between atoms: C_10  and  C_11
REMARK    6  A    between atoms: C_14  and  C_15
REMARK    7  A    between atoms: C_15  and  N_16
REMARK    8  A    between atoms: C_33  and  O_34
REMARK    9  A    between atoms: O_34  and  C_35
REMARK                            x       y       z     vdW  Elec       q    Type
REMARK                         _______ _______ _______ _____ _____    ______ ____
ROOT
ATOM      1  C   UNL     1       2.659   5.944  19.654  0.00  0.00    +0.000 C 
ATOM      2  N   UNL     1       3.923   5.973  19.354  0.00  0.00    +0.000 NA
ATOM      3  N   UNL     1       4.608   4.776  19.227  0.00  0.00    +0.000 N 
ATOM      4  C   UNL     1       4.143   3.559  19.729  0.00  0.00    +0.000 C 
ATOM      5  O   UNL     1       4.789   2.512  19.657  0.00  0.00    +0.000 OA
ATOM      6  C   UNL     1       2.807   3.633  20.450  0.00  0.00    +0.000 C 
ATOM      7  C   UNL     1       2.120   2.263  20.550  0.00  0.00    +0.000 C 
ATOM      8  C   UNL     1       1.347   1.879  19.318  0.00  0.00    +0.000 C 
ATOM      9  C   UNL     1       1.055   2.738  18.331  0.00  0.00    +0.000 C 
ATOM     10  C   UNL     1       1.435   4.187  18.370  0.00  0.00    +0.000 C 
ATOM     11  C   UNL     1       1.895   4.645  19.764  0.00  0.00    +0.000 C 
ENDROOT
BRANCH   1  15
ATOM     12  C   UNL     1       0.847   9.775  20.408  0.00  0.00    +0.000 A 
ATOM     13  C   UNL     1       0.781   8.763  21.378  0.00  0.00    +0.000 A 
ATOM     14  C   UNL     1       1.339   7.503  21.144  0.00  0.00    +0.000 A 
ATOM     15  C   UNL     1       1.930   7.221  19.914  0.00  0.00    +0.000 A 
ATOM     16  C   UNL     1       1.898   8.190  18.909  0.00  0.00    +0.000 A 
ATOM     17  C   UNL     1       1.363   9.469  19.139  0.00  0.00    +0.000 A 
BRANCH  12  19
ATOM     18  C   UNL     1      -0.638  11.144  21.652  0.00  0.00    +0.000 C 
ATOM     19  O   UNL     1       0.409  11.043  20.681  0.00  0.00    +0.000 OA
ENDBRANCH  12  19
BRANCH  17  20
ATOM     20  O   UNL     1       1.484  10.270  18.036  0.00  0.00    +0.000 OA
ATOM     21  C   UNL     1       2.309  11.422  18.095  0.00  0.00    +0.000 C 
ENDBRANCH  17  20
ENDBRANCH   1  15
BRANCH   3  22
ATOM     22  C   UNL     1       5.853   4.800  18.456  0.00  0.00    +0.000 C 
BRANCH  22  23
ATOM     23  C   UNL     1       6.568   6.133  18.376  0.00  0.00    +0.000 A 
ATOM     24  C   UNL     1       7.725   6.382  19.129  0.00  0.00    +0.000 A 
ATOM     25  C   UNL     1       8.507   7.520  18.891  0.00  0.00    +0.000 A 
ATOM     26  C   UNL     1       8.150   8.438  17.892  0.00  0.00    +0.000 A 
ATOM     27  C   UNL     1       6.946   8.229  17.206  0.00  0.00    +0.000 A 
ATOM     28  C   UNL     1       6.172   7.090  17.436  0.00  0.00    +0.000 A 
BRANCH  26  29
ATOM     29  C   UNL     1       9.002   9.645  17.568  0.00  0.00    +0.000 C 
BRANCH  29  30
ATOM     30  N   UNL     1       8.947  10.814  18.458  0.00  0.00    +0.000 NA
ATOM     31  C   UNL     1       8.812  12.138  17.836  0.00  0.00    +0.000 C 
ATOM     32  C   UNL     1      10.142  12.864  17.553  0.00  0.00    +0.000 C 
ATOM     33  O   UNL     1      10.995  12.893  18.705  0.00  0.00    +0.000 OA
ATOM     34  C   UNL     1      11.241  11.567  19.188  0.00  0.00    +0.000 C 
ATOM     35  C   UNL     1       9.930  10.855  19.545  0.00  0.00    +0.000 C 
ENDBRANCH  29  30
ENDBRANCH  26  29
ENDBRANCH  22  23
ENDBRANCH   3  22
TORSDOF 7
ENDMDL
