MODEL 1
REMARK VINA RESULT:      -7.3      0.000      0.000
REMARK  Name = 
REMARK  5 active torsions:
REMARK  status: ('A' for Active; 'I' for Inactive)
REMARK    1  A    between atoms: C_1  and  N_2
REMARK    2  A    between atoms: N_2  and  C_3
REMARK    3  A    between atoms: N_2  and  S_10
REMARK    4  A    between atoms: S_10  and  C_13
REMARK    5  A    between atoms: C_16  and  N_17
REMARK                            x       y       z     vdW  Elec       q    Type
REMARK                         _______ _______ _______ _____ _____    ______ ____
ROOT
ATOM      1  S   UNL     1       3.507   2.481  19.372  0.00  0.00    +0.000 S 
ATOM      2  O   UNL     1       4.014   2.437  20.730  0.00  0.00    +0.000 OA
ATOM      3  O   UNL     1       3.329   1.264  18.607  0.00  0.00    +0.000 OA
ENDROOT
BRANCH   1   4
ATOM      4  C   UNL     1       4.620   3.516  18.427  0.00  0.00    +0.000 A 
ATOM      5  C   UNL     1       4.607   3.462  17.030  0.00  0.00    +0.000 A 
ATOM      6  C   UNL     1       5.483   4.271  16.298  0.00  0.00    +0.000 A 
ATOM      7  C   UNL     1       6.355   5.139  16.974  0.00  0.00    +0.000 A 
ATOM      8  C   UNL     1       6.332   5.229  18.373  0.00  0.00    +0.000 A 
ATOM      9  C   UNL     1       5.450   4.424  19.099  0.00  0.00    +0.000 A 
BRANCH   7  10
ATOM     10  N   UNL     1       7.314   5.951  16.211  0.00  0.00    +0.000 N 
ATOM     11  O   UNL     1       7.697   7.015  16.717  0.00  0.00    +0.000 OA
ATOM     12  O   UNL     1       7.666   5.532  15.099  0.00  0.00    +0.000 OA
ENDBRANCH   7  10
ENDBRANCH   1   4
BRANCH   1  14
ATOM     13  C   UNL     1       0.892   2.697  18.675  0.00  0.00    +0.000 C 
ATOM     14  N   UNL     1       2.038   3.341  19.341  0.00  0.00    +0.000 N 
BRANCH  14  15
ATOM     15  C   UNL     1       2.076   4.772  19.320  0.00  0.00    +0.000 A 
ATOM     16  C   UNL     1       2.151   5.484  18.121  0.00  0.00    +0.000 A 
ATOM     17  C   UNL     1       2.046   6.877  18.131  0.00  0.00    +0.000 A 
ATOM     18  C   UNL     1       1.878   7.552  19.340  0.00  0.00    +0.000 A 
ATOM     19 CL   UNL     1       1.682   9.262  19.341  0.00  0.00    +0.000 Cl
ATOM     20  C   UNL     1       1.846   6.850  20.543  0.00  0.00    +0.000 A 
ATOM     21  C   UNL     1       1.955   5.457  20.532  0.00  0.00    +0.000 A 
ENDBRANCH  14  15
ENDBRANCH   1  14
TORSDOF 4
ENDMDL
MODEL 2
REMARK VINA RESULT:      -7.3      3.183      5.136
REMARK  Name = 
REMARK  5 active torsions:
REMARK  status: ('A' for Active; 'I' for Inactive)
REMARK    1  A    between atoms: C_1  and  N_2
REMARK    2  A    between atoms: N_2  and  C_3
REMARK    3  A    between atoms: N_2  and  S_10
REMARK    4  A    between atoms: S_10  and  C_13
REMARK    5  A    between atoms: C_16  and  N_17
REMARK                            x       y       z     vdW  Elec       q    Type
REMARK                         _______ _______ _______ _____ _____    ______ ____
ROOT
ATOM      1  S   UNL     1       2.408   3.257  18.217  0.00  0.00    +0.000 S 
ATOM      2  O   UNL     1       2.207   3.400  16.788  0.00  0.00    +0.000 OA
ATOM      3  O   UNL     1       1.618   2.318  18.987  0.00  0.00    +0.000 OA
ENDROOT
BRANCH   1   4
ATOM      4  C   UNL     1       2.139   4.867  18.952  0.00  0.00    +0.000 A 
ATOM      5  C   UNL     1       1.767   4.968  20.296  0.00  0.00    +0.000 A 
ATOM      6  C   UNL     1       1.555   6.230  20.862  0.00  0.00    +0.000 A 
ATOM      7  C   UNL     1       1.732   7.381  20.078  0.00  0.00    +0.000 A 
ATOM      8  C   UNL     1       2.153   7.281  18.745  0.00  0.00    +0.000 A 
ATOM      9  C   UNL     1       2.371   6.018  18.186  0.00  0.00    +0.000 A 
BRANCH   7  10
ATOM     10  N   UNL     1       1.457   8.705  20.654  0.00  0.00    +0.000 N 
ATOM     11  O   UNL     1       1.529   8.823  21.885  0.00  0.00    +0.000 OA
ATOM     12  O   UNL     1       1.151   9.619  19.875  0.00  0.00    +0.000 OA
ENDBRANCH   7  10
ENDBRANCH   1   4
BRANCH   1  14
ATOM     13  C   UNL     1       4.364   2.049  19.662  0.00  0.00    +0.000 C 
ATOM     14  N   UNL     1       4.051   2.943  18.533  0.00  0.00    +0.000 N 
BRANCH  14  15
ATOM     15  C   UNL     1       5.019   3.951  18.221  0.00  0.00    +0.000 A 
ATOM     16  C   UNL     1       5.289   4.322  16.903  0.00  0.00    +0.000 A 
ATOM     17  C   UNL     1       6.136   5.402  16.643  0.00  0.00    +0.000 A 
ATOM     18  C   UNL     1       6.718   6.098  17.702  0.00  0.00    +0.000 A 
ATOM     19 CL   UNL     1       7.707   7.470  17.380  0.00  0.00    +0.000 Cl
ATOM     20  C   UNL     1       6.487   5.705  19.018  0.00  0.00    +0.000 A 
ATOM     21  C   UNL     1       5.643   4.622  19.277  0.00  0.00    +0.000 A 
ENDBRANCH  14  15
ENDBRANCH   1  14
TORSDOF 4
ENDMDL
MODEL 3
REMARK VINA RESULT:      -7.3      0.393      1.303
REMARK  Name = 
REMARK  5 active torsions:
REMARK  status: ('A' for Active; 'I' for Inactive)
REMARK    1  A    between atoms: C_1  and  N_2
REMARK    2  A    between atoms: N_2  and  C_3
REMARK    3  A    between atoms: N_2  and  S_10
REMARK    4  A    between atoms: S_10  and  C_13
REMARK    5  A    between atoms: C_16  and  N_17
REMARK                            x       y       z     vdW  Elec       q    Type
REMARK                         _______ _______ _______ _____ _____    ______ ____
ROOT
ATOM      1  S   UNL     1       3.606   2.384  19.384  0.00  0.00    +0.000 S 
ATOM      2  O   UNL     1       4.100   2.387  20.748  0.00  0.00    +0.000 OA
ATOM      3  O   UNL     1       3.507   1.148  18.634  0.00  0.00    +0.000 OA
ENDROOT
BRANCH   1   4
ATOM      4  C   UNL     1       4.667   3.468  18.436  0.00  0.00    +0.000 A 
ATOM      5  C   UNL     1       4.647   3.418  17.038  0.00  0.00    +0.000 A 
ATOM      6  C   UNL     1       5.483   4.267  16.304  0.00  0.00    +0.000 A 
ATOM      7  C   UNL     1       6.321   5.169  16.977  0.00  0.00    +0.000 A 
ATOM      8  C   UNL     1       6.305   5.253  18.376  0.00  0.00    +0.000 A 
ATOM      9  C   UNL     1       5.463   4.409  19.105  0.00  0.00    +0.000 A 
BRANCH   7  10
ATOM     10  N   UNL     1       7.240   6.024  16.211  0.00  0.00    +0.000 N 
ATOM     11  O   UNL     1       7.543   5.660  15.065  0.00  0.00    +0.000 OA
ATOM     12  O   UNL     1       7.671   7.046  16.763  0.00  0.00    +0.000 OA
ENDBRANCH   7  10
ENDBRANCH   1   4
BRANCH   1  14
ATOM     13  C   UNL     1       0.963   2.391  18.764  0.00  0.00    +0.000 C 
ATOM     14  N   UNL     1       2.090   3.156  19.326  0.00  0.00    +0.000 N 
BRANCH  14  15
ATOM     15  C   UNL     1       2.045   4.579  19.170  0.00  0.00    +0.000 A 
ATOM     16  C   UNL     1       2.177   5.438  20.263  0.00  0.00    +0.000 A 
ATOM     17  C   UNL     1       2.266   6.816  20.058  0.00  0.00    +0.000 A 
ATOM     18  C   UNL     1       2.214   7.330  18.763  0.00  0.00    +0.000 A 
ATOM     19 CL   UNL     1       2.393   9.024  18.509  0.00  0.00    +0.000 Cl
ATOM     20  C   UNL     1       2.040   6.481  17.672  0.00  0.00    +0.000 A 
ATOM     21  C   UNL     1       1.946   5.103  17.878  0.00  0.00    +0.000 A 
ENDBRANCH  14  15
ENDBRANCH   1  14
TORSDOF 4
ENDMDL
MODEL 4
REMARK VINA RESULT:      -7.2      0.106      1.068
REMARK  Name = 
REMARK  5 active torsions:
REMARK  status: ('A' for Active; 'I' for Inactive)
REMARK    1  A    between atoms: C_1  and  N_2
REMARK    2  A    between atoms: N_2  and  C_3
REMARK    3  A    between atoms: N_2  and  S_10
REMARK    4  A    between atoms: S_10  and  C_13
REMARK    5  A    between atoms: C_16  and  N_17
REMARK                            x       y       z     vdW  Elec       q    Type
REMARK                         _______ _______ _______ _____ _____    ______ ____
ROOT
ATOM      1  S   UNL     1       3.508   2.465  19.325  0.00  0.00    +0.000 S 
ATOM      2  O   UNL     1       4.013   2.362  20.681  0.00  0.00    +0.000 OA
ATOM      3  O   UNL     1       3.325   1.281  18.510  0.00  0.00    +0.000 OA
ENDROOT
BRANCH   1   4
ATOM      4  C   UNL     1       4.627   3.532  18.425  0.00  0.00    +0.000 A 
ATOM      5  C   UNL     1       5.497   4.377  19.121  0.00  0.00    +0.000 A 
ATOM      6  C   UNL     1       6.367   5.211  18.409  0.00  0.00    +0.000 A 
ATOM      7  C   UNL     1       6.367   5.180  17.006  0.00  0.00    +0.000 A 
ATOM      8  C   UNL     1       5.530   4.296  16.310  0.00  0.00    +0.000 A 
ATOM      9  C   UNL     1       4.669   3.459  17.025  0.00  0.00    +0.000 A 
BRANCH   7  10
ATOM     10  N   UNL     1       7.241   6.093  16.255  0.00  0.00    +0.000 N 
ATOM     11  O   UNL     1       7.415   7.230  16.716  0.00  0.00    +0.000 OA
ATOM     12  O   UNL     1       7.734   5.678  15.197  0.00  0.00    +0.000 OA
ENDBRANCH   7  10
ENDBRANCH   1   4
BRANCH   1  14
ATOM     13  C   UNL     1       0.879   2.695  18.686  0.00  0.00    +0.000 C 
ATOM     14  N   UNL     1       2.043   3.333  19.327  0.00  0.00    +0.000 N 
BRANCH  14  15
ATOM     15  C   UNL     1       2.088   4.763  19.306  0.00  0.00    +0.000 A 
ATOM     16  C   UNL     1       2.155   5.475  18.107  0.00  0.00    +0.000 A 
ATOM     17  C   UNL     1       2.058   6.869  18.119  0.00  0.00    +0.000 A 
ATOM     18  C   UNL     1       1.905   7.544  19.329  0.00  0.00    +0.000 A 
ATOM     19 CL   UNL     1       1.717   9.255  19.334  0.00  0.00    +0.000 Cl
ATOM     20  C   UNL     1       1.880   6.842  20.532  0.00  0.00    +0.000 A 
ATOM     21  C   UNL     1       1.982   5.448  20.520  0.00  0.00    +0.000 A 
ENDBRANCH  14  15
ENDBRANCH   1  14
TORSDOF 4
ENDMDL
MODEL 5
REMARK VINA RESULT:      -7.2      1.823      2.221
REMARK  Name = 
REMARK  5 active torsions:
REMARK  status: ('A' for Active; 'I' for Inactive)
REMARK    1  A    between atoms: C_1  and  N_2
REMARK    2  A    between atoms: N_2  and  C_3
REMARK    3  A    between atoms: N_2  and  S_10
REMARK    4  A    between atoms: S_10  and  C_13
REMARK    5  A    between atoms: C_16  and  N_17
REMARK                            x       y       z     vdW  Elec       q    Type
REMARK                         _______ _______ _______ _____ _____    ______ ____
ROOT
ATOM      1  S   UNL     1       4.960   4.429  19.015  0.00  0.00    +0.000 S 
ATOM      2  O   UNL     1       5.577   5.449  19.842  0.00  0.00    +0.000 OA
ATOM      3  O   UNL     1       5.053   3.028  19.373  0.00  0.00    +0.000 OA
ENDROOT
BRANCH   1   4
ATOM      4  C   UNL     1       5.664   4.581  17.377  0.00  0.00    +0.000 A 
ATOM      5  C   UNL     1       5.307   3.672  16.376  0.00  0.00    +0.000 A 
ATOM      6  C   UNL     1       5.865   3.796  15.098  0.00  0.00    +0.000 A 
ATOM      7  C   UNL     1       6.765   4.839  14.831  0.00  0.00    +0.000 A 
ATOM      8  C   UNL     1       7.083   5.780  15.821  0.00  0.00    +0.000 A 
ATOM      9  C   UNL     1       6.518   5.657  17.093  0.00  0.00    +0.000 A 
BRANCH   7  10
ATOM     10  N   UNL     1       7.394   4.940  13.506  0.00  0.00    +0.000 N 
ATOM     11  O   UNL     1       8.314   5.758  13.368  0.00  0.00    +0.000 OA
ATOM     12  O   UNL     1       6.953   4.215  12.603  0.00  0.00    +0.000 OA
ENDBRANCH   7  10
ENDBRANCH   1   4
BRANCH   1  14
ATOM     13  C   UNL     1       2.546   3.927  17.880  0.00  0.00    +0.000 C 
ATOM     14  N   UNL     1       3.316   4.803  18.780  0.00  0.00    +0.000 N 
BRANCH  14  15
ATOM     15  C   UNL     1       2.901   6.170  18.861  0.00  0.00    +0.000 A 
ATOM     16  C   UNL     1       3.046   7.044  17.781  0.00  0.00    +0.000 A 
ATOM     17  C   UNL     1       2.505   8.330  17.848  0.00  0.00    +0.000 A 
ATOM     18  C   UNL     1       1.831   8.740  18.998  0.00  0.00    +0.000 A 
ATOM     19 CL   UNL     1       1.107  10.302  19.051  0.00  0.00    +0.000 Cl
ATOM     20  C   UNL     1       1.720   7.888  20.095  0.00  0.00    +0.000 A 
ATOM     21  C   UNL     1       2.265   6.603  20.028  0.00  0.00    +0.000 A 
ENDBRANCH  14  15
ENDBRANCH   1  14
TORSDOF 4
ENDMDL
MODEL 6
REMARK VINA RESULT:      -7.0      0.854      1.692
REMARK  Name = 
REMARK  5 active torsions:
REMARK  status: ('A' for Active; 'I' for Inactive)
REMARK    1  A    between atoms: C_1  and  N_2
REMARK    2  A    between atoms: N_2  and  C_3
REMARK    3  A    between atoms: N_2  and  S_10
REMARK    4  A    between atoms: S_10  and  C_13
REMARK    5  A    between atoms: C_16  and  N_17
REMARK                            x       y       z     vdW  Elec       q    Type
REMARK                         _______ _______ _______ _____ _____    ______ ____
ROOT
ATOM      1  S   UNL     1       3.817   2.396  19.663  0.00  0.00    +0.000 S 
ATOM      2  O   UNL     1       4.632   1.885  20.748  0.00  0.00    +0.000 OA
ATOM      3  O   UNL     1       3.219   1.497  18.697  0.00  0.00    +0.000 OA
ENDROOT
BRANCH   1   4
ATOM      4  C   UNL     1       4.834   3.536  18.731  0.00  0.00    +0.000 A 
ATOM      5  C   UNL     1       5.625   4.475  19.402  0.00  0.00    +0.000 A 
ATOM      6  C   UNL     1       6.414   5.366  18.666  0.00  0.00    +0.000 A 
ATOM      7  C   UNL     1       6.416   5.298  17.264  0.00  0.00    +0.000 A 
ATOM      8  C   UNL     1       5.662   4.323  16.594  0.00  0.00    +0.000 A 
ATOM      9  C   UNL     1       4.880   3.431  17.334  0.00  0.00    +0.000 A 
BRANCH   7  10
ATOM     10  N   UNL     1       7.202   6.267  16.486  0.00  0.00    +0.000 N 
ATOM     11  O   UNL     1       7.358   7.398  16.968  0.00  0.00    +0.000 OA
ATOM     12  O   UNL     1       7.643   5.900  15.388  0.00  0.00    +0.000 OA
ENDBRANCH   7  10
ENDBRANCH   1   4
BRANCH   1  14
ATOM     13  C   UNL     1       1.412   2.711  20.882  0.00  0.00    +0.000 C 
ATOM     14  N   UNL     1       2.583   3.385  20.294  0.00  0.00    +0.000 N 
BRANCH  14  15
ATOM     15  C   UNL     1       2.360   4.671  19.706  0.00  0.00    +0.000 A 
ATOM     16  C   UNL     1       2.522   5.848  20.440  0.00  0.00    +0.000 A 
ATOM     17  C   UNL     1       2.431   7.085  19.799  0.00  0.00    +0.000 A 
ATOM     18  C   UNL     1       2.167   7.141  18.431  0.00  0.00    +0.000 A 
ATOM     19 CL   UNL     1       2.123   8.665  17.631  0.00  0.00    +0.000 Cl
ATOM     20  C   UNL     1       1.963   5.971  17.702  0.00  0.00    +0.000 A 
ATOM     21  C   UNL     1       2.050   4.733  18.345  0.00  0.00    +0.000 A 
ENDBRANCH  14  15
ENDBRANCH   1  14
TORSDOF 4
ENDMDL
MODEL 7
REMARK VINA RESULT:      -7.0      3.046      4.168
REMARK  Name = 
REMARK  5 active torsions:
REMARK  status: ('A' for Active; 'I' for Inactive)
REMARK    1  A    between atoms: C_1  and  N_2
REMARK    2  A    between atoms: N_2  and  C_3
REMARK    3  A    between atoms: N_2  and  S_10
REMARK    4  A    between atoms: S_10  and  C_13
REMARK    5  A    between atoms: C_16  and  N_17
REMARK                            x       y       z     vdW  Elec       q    Type
REMARK                         _______ _______ _______ _____ _____    ______ ____
ROOT
ATOM      1  S   UNL     1       5.708   5.673  17.892  0.00  0.00    +0.000 S 
ATOM      2  O   UNL     1       6.407   6.942  17.971  0.00  0.00    +0.000 OA
ATOM      3  O   UNL     1       6.030   4.592  18.800  0.00  0.00    +0.000 OA
ENDROOT
BRANCH   1   4
ATOM      4  C   UNL     1       5.954   5.037  16.238  0.00  0.00    +0.000 A 
ATOM      5  C   UNL     1       7.147   5.302  15.558  0.00  0.00    +0.000 A 
ATOM      6  C   UNL     1       7.331   4.804  14.264  0.00  0.00    +0.000 A 
ATOM      7  C   UNL     1       6.322   4.032  13.667  0.00  0.00    +0.000 A 
ATOM      8  C   UNL     1       5.147   3.724  14.368  0.00  0.00    +0.000 A 
ATOM      9  C   UNL     1       4.972   4.218  15.664  0.00  0.00    +0.000 A 
BRANCH   7  10
ATOM     10  N   UNL     1       6.489   3.553  12.287  0.00  0.00    +0.000 N 
ATOM     11  O   UNL     1       5.773   2.613  11.915  0.00  0.00    +0.000 OA
ATOM     12  O   UNL     1       7.348   4.105  11.586  0.00  0.00    +0.000 OA
ENDBRANCH   7  10
ENDBRANCH   1   4
BRANCH   1  14
ATOM     13  C   UNL     1       3.554   7.319  17.744  0.00  0.00    +0.000 C 
ATOM     14  N   UNL     1       4.029   5.943  17.971  0.00  0.00    +0.000 N 
BRANCH  14  15
ATOM     15  C   UNL     1       3.238   5.122  18.837  0.00  0.00    +0.000 A 
ATOM     16  C   UNL     1       2.856   3.829  18.471  0.00  0.00    +0.000 A 
ATOM     17  C   UNL     1       2.203   3.009  19.394  0.00  0.00    +0.000 A 
ATOM     18  C   UNL     1       1.926   3.488  20.674  0.00  0.00    +0.000 A 
ATOM     19 CL   UNL     1       1.183   2.451  21.831  0.00  0.00    +0.000 Cl
ATOM     20  C   UNL     1       2.266   4.791  21.031  0.00  0.00    +0.000 A 
ATOM     21  C   UNL     1       2.915   5.613  20.105  0.00  0.00    +0.000 A 
ENDBRANCH  14  15
ENDBRANCH   1  14
TORSDOF 4
ENDMDL
MODEL 8
REMARK VINA RESULT:      -6.9      1.719      2.360
REMARK  Name = 
REMARK  5 active torsions:
REMARK  status: ('A' for Active; 'I' for Inactive)
REMARK    1  A    between atoms: C_1  and  N_2
REMARK    2  A    between atoms: N_2  and  C_3
REMARK    3  A    between atoms: N_2  and  S_10
REMARK    4  A    between atoms: S_10  and  C_13
REMARK    5  A    between atoms: C_16  and  N_17
REMARK                            x       y       z     vdW  Elec       q    Type
REMARK                         _______ _______ _______ _____ _____    ______ ____
ROOT
ATOM      1  S   UNL     1       4.267   4.496  19.047  0.00  0.00    +0.000 S 
ATOM      2  O   UNL     1       4.917   5.407  19.969  0.00  0.00    +0.000 OA
ATOM      3  O   UNL     1       4.166   3.082  19.348  0.00  0.00    +0.000 OA
ENDROOT
BRANCH   1   4
ATOM      4  C   UNL     1       5.131   4.620  17.484  0.00  0.00    +0.000 A 
ATOM      5  C   UNL     1       5.797   5.802  17.147  0.00  0.00    +0.000 A 
ATOM      6  C   UNL     1       6.467   5.893  15.922  0.00  0.00    +0.000 A 
ATOM      7  C   UNL     1       6.475   4.792  15.051  0.00  0.00    +0.000 A 
ATOM      8  C   UNL     1       5.850   3.590  15.412  0.00  0.00    +0.000 A 
ATOM      9  C   UNL     1       5.188   3.502  16.640  0.00  0.00    +0.000 A 
BRANCH   7  10
ATOM     10  N   UNL     1       7.131   4.902  13.741  0.00  0.00    +0.000 N 
ATOM     11  O   UNL     1       6.717   4.174  12.827  0.00  0.00    +0.000 OA
ATOM     12  O   UNL     1       8.072   5.701  13.633  0.00  0.00    +0.000 OA
ENDBRANCH   7  10
ENDBRANCH   1   4
BRANCH   1  14
ATOM     13  C   UNL     1       1.971   4.394  17.601  0.00  0.00    +0.000 C 
ATOM     14  N   UNL     1       2.705   5.068  18.687  0.00  0.00    +0.000 N 
BRANCH  14  15
ATOM     15  C   UNL     1       2.410   6.452  18.901  0.00  0.00    +0.000 A 
ATOM     16  C   UNL     1       2.500   7.388  17.869  0.00  0.00    +0.000 A 
ATOM     17  C   UNL     1       2.073   8.701  18.080  0.00  0.00    +0.000 A 
ATOM     18  C   UNL     1       1.569   9.075  19.325  0.00  0.00    +0.000 A 
ATOM     19 CL   UNL     1       0.980  10.676  19.561  0.00  0.00    +0.000 Cl
ATOM     20  C   UNL     1       1.516   8.157  20.371  0.00  0.00    +0.000 A 
ATOM     21  C   UNL     1       1.948   6.845  20.161  0.00  0.00    +0.000 A 
ENDBRANCH  14  15
ENDBRANCH   1  14
TORSDOF 4
ENDMDL
MODEL 9
REMARK VINA RESULT:      -6.9      3.058      4.107
REMARK  Name = 
REMARK  5 active torsions:
REMARK  status: ('A' for Active; 'I' for Inactive)
REMARK    1  A    between atoms: C_1  and  N_2
REMARK    2  A    between atoms: N_2  and  C_3
REMARK    3  A    between atoms: N_2  and  S_10
REMARK    4  A    between atoms: S_10  and  C_13
REMARK    5  A    between atoms: C_16  and  N_17
REMARK                            x       y       z     vdW  Elec       q    Type
REMARK                         _______ _______ _______ _____ _____    ______ ____
ROOT
ATOM      1  S   UNL     1       5.776   5.486  17.916  0.00  0.00    +0.000 S 
ATOM      2  O   UNL     1       6.520   6.722  18.057  0.00  0.00    +0.000 OA
ATOM      3  O   UNL     1       6.063   4.347  18.764  0.00  0.00    +0.000 OA
ENDROOT
BRANCH   1   4
ATOM      4  C   UNL     1       5.992   4.930  16.229  0.00  0.00    +0.000 A 
ATOM      5  C   UNL     1       4.954   4.254  15.578  0.00  0.00    +0.000 A 
ATOM      6  C   UNL     1       5.133   3.819  14.260  0.00  0.00    +0.000 A 
ATOM      7  C   UNL     1       6.344   4.078  13.601  0.00  0.00    +0.000 A 
ATOM      8  C   UNL     1       7.364   4.800  14.237  0.00  0.00    +0.000 A 
ATOM      9  C   UNL     1       7.179   5.239  15.551  0.00  0.00    +0.000 A 
BRANCH   7  10
ATOM     10  N   UNL     1       6.555   3.576  12.235  0.00  0.00    +0.000 N 
ATOM     11  O   UNL     1       5.889   2.595  11.875  0.00  0.00    +0.000 OA
ATOM     12  O   UNL     1       7.399   4.151  11.535  0.00  0.00    +0.000 OA
ENDBRANCH   7  10
ENDBRANCH   1   4
BRANCH   1  14
ATOM     13  C   UNL     1       3.675   7.203  17.808  0.00  0.00    +0.000 C 
ATOM     14  N   UNL     1       4.108   5.810  18.020  0.00  0.00    +0.000 N 
BRANCH  14  15
ATOM     15  C   UNL     1       3.301   5.009  18.890  0.00  0.00    +0.000 A 
ATOM     16  C   UNL     1       2.982   3.686  18.580  0.00  0.00    +0.000 A 
ATOM     17  C   UNL     1       2.311   2.894  19.515  0.00  0.00    +0.000 A 
ATOM     18  C   UNL     1       1.953   3.432  20.750  0.00  0.00    +0.000 A 
ATOM     19 CL   UNL     1       1.187   2.433  21.925  0.00  0.00    +0.000 Cl
ATOM     20  C   UNL     1       2.232   4.764  21.049  0.00  0.00    +0.000 A 
ATOM     21  C   UNL     1       2.899   5.557  20.112  0.00  0.00    +0.000 A 
ENDBRANCH  14  15
ENDBRANCH   1  14
TORSDOF 4
ENDMDL
