MODEL 1
REMARK VINA RESULT:      -7.4      0.000      0.000
REMARK  Name = 
REMARK  9 active torsions:
REMARK  status: ('A' for Active; 'I' for Inactive)
REMARK    1  A    between atoms: C_1  and  C_2
REMARK    2  A    between atoms: C_2  and  C_3
REMARK    3  A    between atoms: C_3  and  C_4
REMARK    4  A    between atoms: C_3  and  C_17
REMARK    5  A    between atoms: N_6  and  C_7
REMARK    6  A    between atoms: C_9  and  C_10
REMARK    7  A    between atoms: C_9  and  C_11
REMARK    8  A    between atoms: C_13  and  C_14
REMARK    9  A    between atoms: C_13  and  C_15
REMARK                            x       y       z     vdW  Elec       q    Type
REMARK                         _______ _______ _______ _____ _____    ______ ____
ROOT
ATOM      1  C   UNL     1       2.041   7.834  19.621  0.00  0.00    +0.000 C 
ATOM      2  O   UNL     1       1.675   7.941  20.794  0.00  0.00    +0.000 OA
ATOM      3  N   UNL     1       1.734   8.779  18.670  0.00  0.00    +0.000 N 
ATOM      4  H   UNL     1       2.252   8.765  17.801  0.00  0.00    +0.000 HD
ENDROOT
BRANCH   3   5
ATOM      5  C   UNL     1       1.008  10.016  18.981  0.00  0.00    +0.000 C 
ATOM      6  C   UNL     1      -0.308  10.068  18.203  0.00  0.00    +0.000 C 
ATOM      7  C   UNL     1      -1.058  11.405  18.367  0.00  0.00    +0.000 C 
ATOM      8  C   UNL     1      -2.137  11.495  17.265  0.00  0.00    +0.000 C 
ATOM      9  C   UNL     1      -1.799  11.482  19.716  0.00  0.00    +0.000 C 
ATOM     10  N   UNL     1      -0.176  12.558  18.154  0.00  0.00    +0.000 NA
ATOM     11  C   UNL     1       1.155  12.561  18.773  0.00  0.00    +0.000 C 
ATOM     12  C   UNL     1       1.969  13.630  18.010  0.00  0.00    +0.000 C 
ATOM     13  C   UNL     1       1.116  12.991  20.249  0.00  0.00    +0.000 C 
ATOM     14  C   UNL     1       1.877  11.214  18.602  0.00  0.00    +0.000 C 
ATOM     15  H   UNL     1      -0.668  13.429  18.362  0.00  0.00    +0.000 HD
ENDBRANCH   3   5
BRANCH   1  16
ATOM     16  C   UNL     1       2.864   6.622  19.149  0.00  0.00    +0.000 C 
BRANCH  16  17
ATOM     17  C   UNL     1       2.099   5.304  19.258  0.00  0.00    +0.000 A 
ATOM     18  C   UNL     1       1.742   4.804  20.519  0.00  0.00    +0.000 A 
ATOM     19  C   UNL     1       1.142   3.546  20.643  0.00  0.00    +0.000 A 
ATOM     20  C   UNL     1       0.880   2.779  19.509  0.00  0.00    +0.000 A 
ATOM     21  C   UNL     1       1.205   3.273  18.251  0.00  0.00    +0.000 A 
ATOM     22  C   UNL     1       1.810   4.522  18.127  0.00  0.00    +0.000 A 
ENDBRANCH  16  17
BRANCH  16  24
ATOM     23  C   UNL     1       4.936   6.343  17.642  0.00  0.00    +0.000 C 
ATOM     24  C   UNL     1       3.474   6.748  17.738  0.00  0.00    +0.000 C 
ENDBRANCH  16  24
ENDBRANCH   1  16
TORSDOF 4
ENDMDL
MODEL 2
REMARK VINA RESULT:      -7.4      0.128      1.035
REMARK  Name = 
REMARK  9 active torsions:
REMARK  status: ('A' for Active; 'I' for Inactive)
REMARK    1  A    between atoms: C_1  and  C_2
REMARK    2  A    between atoms: C_2  and  C_3
REMARK    3  A    between atoms: C_3  and  C_4
REMARK    4  A    between atoms: C_3  and  C_17
REMARK    5  A    between atoms: N_6  and  C_7
REMARK    6  A    between atoms: C_9  and  C_10
REMARK    7  A    between atoms: C_9  and  C_11
REMARK    8  A    between atoms: C_13  and  C_14
REMARK    9  A    between atoms: C_13  and  C_15
REMARK                            x       y       z     vdW  Elec       q    Type
REMARK                         _______ _______ _______ _____ _____    ______ ____
ROOT
ATOM      1  C   UNL     1       2.043   7.850  19.585  0.00  0.00    +0.000 C 
ATOM      2  O   UNL     1       1.624   7.919  20.743  0.00  0.00    +0.000 OA
ATOM      3  N   UNL     1       1.744   8.804  18.640  0.00  0.00    +0.000 N 
ATOM      4  H   UNL     1       2.300   8.826  17.794  0.00  0.00    +0.000 HD
ENDROOT
BRANCH   3   5
ATOM      5  C   UNL     1       0.962  10.008  18.943  0.00  0.00    +0.000 C 
ATOM      6  C   UNL     1      -0.326  10.024  18.119  0.00  0.00    +0.000 C 
ATOM      7  C   UNL     1      -1.131  11.329  18.276  0.00  0.00    +0.000 C 
ATOM      8  C   UNL     1      -2.173  11.397  17.136  0.00  0.00    +0.000 C 
ATOM      9  C   UNL     1      -1.923  11.357  19.598  0.00  0.00    +0.000 C 
ATOM     10  N   UNL     1      -0.286  12.518  18.112  0.00  0.00    +0.000 NA
ATOM     11  C   UNL     1       1.021  12.559  18.779  0.00  0.00    +0.000 C 
ATOM     12  C   UNL     1       1.821  13.670  18.062  0.00  0.00    +0.000 C 
ATOM     13  C   UNL     1       0.913  12.964  20.260  0.00  0.00    +0.000 C 
ATOM     14  C   UNL     1       1.798  11.243  18.614  0.00  0.00    +0.000 C 
ATOM     15  H   UNL     1      -0.817  13.366  18.315  0.00  0.00    +0.000 HD
ENDBRANCH   3   5
BRANCH   1  16
ATOM     16  C   UNL     1       2.929   6.678  19.126  0.00  0.00    +0.000 C 
BRANCH  16  17
ATOM     17  C   UNL     1       2.248   5.319  19.284  0.00  0.00    +0.000 A 
ATOM     18  C   UNL     1       1.875   4.586  18.148  0.00  0.00    +0.000 A 
ATOM     19  C   UNL     1       1.151   3.396  18.273  0.00  0.00    +0.000 A 
ATOM     20  C   UNL     1       0.803   2.917  19.535  0.00  0.00    +0.000 A 
ATOM     21  C   UNL     1       1.190   3.618  20.672  0.00  0.00    +0.000 A 
ATOM     22  C   UNL     1       1.903   4.808  20.547  0.00  0.00    +0.000 A 
ENDBRANCH  16  17
BRANCH  16  24
ATOM     23  C   UNL     1       4.970   6.428  17.573  0.00  0.00    +0.000 C 
ATOM     24  C   UNL     1       3.502   6.803  17.700  0.00  0.00    +0.000 C 
ENDBRANCH  16  24
ENDBRANCH   1  16
TORSDOF 4
ENDMDL
MODEL 3
REMARK VINA RESULT:      -7.3      1.182      3.061
REMARK  Name = 
REMARK  9 active torsions:
REMARK  status: ('A' for Active; 'I' for Inactive)
REMARK    1  A    between atoms: C_1  and  C_2
REMARK    2  A    between atoms: C_2  and  C_3
REMARK    3  A    between atoms: C_3  and  C_4
REMARK    4  A    between atoms: C_3  and  C_17
REMARK    5  A    between atoms: N_6  and  C_7
REMARK    6  A    between atoms: C_9  and  C_10
REMARK    7  A    between atoms: C_9  and  C_11
REMARK    8  A    between atoms: C_13  and  C_14
REMARK    9  A    between atoms: C_13  and  C_15
REMARK                            x       y       z     vdW  Elec       q    Type
REMARK                         _______ _______ _______ _____ _____    ______ ____
ROOT
ATOM      1  C   UNL     1       2.225   7.442  18.828  0.00  0.00    +0.000 C 
ATOM      2  O   UNL     1       2.120   7.446  20.057  0.00  0.00    +0.000 OA
ATOM      3  N   UNL     1       1.802   8.497  18.054  0.00  0.00    +0.000 N 
ATOM      4  H   UNL     1       2.126   8.545  17.096  0.00  0.00    +0.000 HD
ENDROOT
BRANCH   3   5
ATOM      5  C   UNL     1       1.256   9.734  18.623  0.00  0.00    +0.000 C 
ATOM      6  C   UNL     1      -0.157   9.982  18.094  0.00  0.00    +0.000 C 
ATOM      7  C   UNL     1      -0.742  11.339  18.535  0.00  0.00    +0.000 C 
ATOM      8  C   UNL     1      -1.971  11.649  17.651  0.00  0.00    +0.000 C 
ATOM      9  C   UNL     1      -1.246  11.297  19.990  0.00  0.00    +0.000 C 
ATOM     10  N   UNL     1       0.199  12.442  18.307  0.00  0.00    +0.000 NA
ATOM     11  C   UNL     1       1.607  12.267  18.686  0.00  0.00    +0.000 C 
ATOM     12  C   UNL     1       2.384  13.362  17.922  0.00  0.00    +0.000 C 
ATOM     13  C   UNL     1       1.846  12.506  20.186  0.00  0.00    +0.000 C 
ATOM     14  C   UNL     1       2.161  10.904  18.241  0.00  0.00    +0.000 C 
ATOM     15  H   UNL     1      -0.169  13.313  18.694  0.00  0.00    +0.000 HD
ENDBRANCH   3   5
BRANCH   1  16
ATOM     16  C   UNL     1       2.836   6.241  18.082  0.00  0.00    +0.000 C 
BRANCH  16  17
ATOM     17  C   UNL     1       4.361   6.200  18.169  0.00  0.00    +0.000 A 
ATOM     18  C   UNL     1       5.135   6.843  17.192  0.00  0.00    +0.000 A 
ATOM     19  C   UNL     1       6.528   6.722  17.193  0.00  0.00    +0.000 A 
ATOM     20  C   UNL     1       7.166   5.968  18.176  0.00  0.00    +0.000 A 
ATOM     21  C   UNL     1       6.413   5.346  19.167  0.00  0.00    +0.000 A 
ATOM     22  C   UNL     1       5.025   5.460  19.162  0.00  0.00    +0.000 A 
ENDBRANCH  16  17
BRANCH  16  24
ATOM     23  C   UNL     1       2.309   3.825  17.359  0.00  0.00    +0.000 C 
ATOM     24  C   UNL     1       2.261   4.863  18.468  0.00  0.00    +0.000 C 
ENDBRANCH  16  24
ENDBRANCH   1  16
TORSDOF 4
ENDMDL
MODEL 4
REMARK VINA RESULT:      -7.3      1.146      2.972
REMARK  Name = 
REMARK  9 active torsions:
REMARK  status: ('A' for Active; 'I' for Inactive)
REMARK    1  A    between atoms: C_1  and  C_2
REMARK    2  A    between atoms: C_2  and  C_3
REMARK    3  A    between atoms: C_3  and  C_4
REMARK    4  A    between atoms: C_3  and  C_17
REMARK    5  A    between atoms: N_6  and  C_7
REMARK    6  A    between atoms: C_9  and  C_10
REMARK    7  A    between atoms: C_9  and  C_11
REMARK    8  A    between atoms: C_13  and  C_14
REMARK    9  A    between atoms: C_13  and  C_15
REMARK                            x       y       z     vdW  Elec       q    Type
REMARK                         _______ _______ _______ _____ _____    ______ ____
ROOT
ATOM      1  C   UNL     1       2.252   7.393  18.857  0.00  0.00    +0.000 C 
ATOM      2  O   UNL     1       2.238   7.444  20.089  0.00  0.00    +0.000 OA
ATOM      3  N   UNL     1       1.764   8.415  18.076  0.00  0.00    +0.000 N 
ATOM      4  H   UNL     1       2.016   8.427  17.096  0.00  0.00    +0.000 HD
ENDROOT
BRANCH   3   5
ATOM      5  C   UNL     1       1.250   9.670  18.637  0.00  0.00    +0.000 C 
ATOM      6  C   UNL     1      -0.159   9.948  18.112  0.00  0.00    +0.000 C 
ATOM      7  C   UNL     1      -0.708  11.322  18.543  0.00  0.00    +0.000 C 
ATOM      8  C   UNL     1      -1.934  11.654  17.662  0.00  0.00    +0.000 C 
ATOM      9  C   UNL     1      -1.207  11.306  20.001  0.00  0.00    +0.000 C 
ATOM     10  N   UNL     1       0.258  12.400  18.302  0.00  0.00    +0.000 NA
ATOM     11  C   UNL     1       1.663  12.194  18.675  0.00  0.00    +0.000 C 
ATOM     12  C   UNL     1       2.463  13.263  17.898  0.00  0.00    +0.000 C 
ATOM     13  C   UNL     1       1.915  12.441  20.173  0.00  0.00    +0.000 C 
ATOM     14  C   UNL     1       2.182  10.814  18.241  0.00  0.00    +0.000 C 
ATOM     15  H   UNL     1      -0.087  13.283  18.682  0.00  0.00    +0.000 HD
ENDBRANCH   3   5
BRANCH   1  16
ATOM     16  C   UNL     1       2.816   6.168  18.114  0.00  0.00    +0.000 C 
BRANCH  16  17
ATOM     17  C   UNL     1       4.344   6.131  18.103  0.00  0.00    +0.000 A 
ATOM     18  C   UNL     1       5.033   5.396  19.078  0.00  0.00    +0.000 A 
ATOM     19  C   UNL     1       6.430   5.441  19.150  0.00  0.00    +0.000 A 
ATOM     20  C   UNL     1       7.154   6.211  18.242  0.00  0.00    +0.000 A 
ATOM     21  C   UNL     1       6.485   6.924  17.253  0.00  0.00    +0.000 A 
ATOM     22  C   UNL     1       5.094   6.885  17.186  0.00  0.00    +0.000 A 
ENDBRANCH  16  17
BRANCH  16  24
ATOM     23  C   UNL     1       2.035   3.799  17.467  0.00  0.00    +0.000 C 
ATOM     24  C   UNL     1       2.272   4.804  18.583  0.00  0.00    +0.000 C 
ENDBRANCH  16  24
ENDBRANCH   1  16
TORSDOF 4
ENDMDL
MODEL 5
REMARK VINA RESULT:      -7.0      2.249      7.521
REMARK  Name = 
REMARK  9 active torsions:
REMARK  status: ('A' for Active; 'I' for Inactive)
REMARK    1  A    between atoms: C_1  and  C_2
REMARK    2  A    between atoms: C_2  and  C_3
REMARK    3  A    between atoms: C_3  and  C_4
REMARK    4  A    between atoms: C_3  and  C_17
REMARK    5  A    between atoms: N_6  and  C_7
REMARK    6  A    between atoms: C_9  and  C_10
REMARK    7  A    between atoms: C_9  and  C_11
REMARK    8  A    between atoms: C_13  and  C_14
REMARK    9  A    between atoms: C_13  and  C_15
REMARK                            x       y       z     vdW  Elec       q    Type
REMARK                         _______ _______ _______ _____ _____    ______ ____
ROOT
ATOM      1  C   UNL     1       1.985   7.981  19.154  0.00  0.00    +0.000 C 
ATOM      2  O   UNL     1       1.884   8.149  17.936  0.00  0.00    +0.000 OA
ATOM      3  N   UNL     1       2.582   6.866  19.692  0.00  0.00    +0.000 N 
ATOM      4  H   UNL     1       2.849   6.893  20.668  0.00  0.00    +0.000 HD
ENDROOT
BRANCH   3   5
ATOM      5  C   UNL     1       3.205   5.821  18.872  0.00  0.00    +0.000 C 
ATOM      6  C   UNL     1       3.201   4.487  19.620  0.00  0.00    +0.000 C 
ATOM      7  C   UNL     1       3.969   3.374  18.879  0.00  0.00    +0.000 C 
ATOM      8  C   UNL     1       4.230   2.220  19.874  0.00  0.00    +0.000 C 
ATOM      9  C   UNL     1       3.140   2.779  17.725  0.00  0.00    +0.000 C 
ATOM     10  N   UNL     1       5.294   3.822  18.435  0.00  0.00    +0.000 NA
ATOM     11  C   UNL     1       5.423   5.138  17.796  0.00  0.00    +0.000 C 
ATOM     12  C   UNL     1       6.924   5.495  17.876  0.00  0.00    +0.000 C 
ATOM     13  C   UNL     1       5.044   5.107  16.306  0.00  0.00    +0.000 C 
ATOM     14  C   UNL     1       4.642   6.227  18.549  0.00  0.00    +0.000 C 
ATOM     15  H   UNL     1       5.743   3.103  17.865  0.00  0.00    +0.000 HD
ENDBRANCH   3   5
BRANCH   1  16
ATOM     16  C   UNL     1       1.436   9.019  20.150  0.00  0.00    +0.000 C 
BRANCH  16  17
ATOM     17  C   UNL     1       0.651  10.140  19.471  0.00  0.00    +0.000 A 
ATOM     18  C   UNL     1       1.264  11.378  19.231  0.00  0.00    +0.000 A 
ATOM     19  C   UNL     1       0.528  12.449  18.713  0.00  0.00    +0.000 A 
ATOM     20  C   UNL     1      -0.825  12.292  18.416  0.00  0.00    +0.000 A 
ATOM     21  C   UNL     1      -1.440  11.063  18.624  0.00  0.00    +0.000 A 
ATOM     22  C   UNL     1      -0.710   9.998  19.147  0.00  0.00    +0.000 A 
ENDBRANCH  16  17
BRANCH  16  24
ATOM     23  C   UNL     1       0.603   9.292  22.573  0.00  0.00    +0.000 C 
ATOM     24  C   UNL     1       0.605   8.441  21.314  0.00  0.00    +0.000 C 
ENDBRANCH  16  24
ENDBRANCH   1  16
TORSDOF 4
ENDMDL
MODEL 6
REMARK VINA RESULT:      -7.0      1.535      7.138
REMARK  Name = 
REMARK  9 active torsions:
REMARK  status: ('A' for Active; 'I' for Inactive)
REMARK    1  A    between atoms: C_1  and  C_2
REMARK    2  A    between atoms: C_2  and  C_3
REMARK    3  A    between atoms: C_3  and  C_4
REMARK    4  A    between atoms: C_3  and  C_17
REMARK    5  A    between atoms: N_6  and  C_7
REMARK    6  A    between atoms: C_9  and  C_10
REMARK    7  A    between atoms: C_9  and  C_11
REMARK    8  A    between atoms: C_13  and  C_14
REMARK    9  A    between atoms: C_13  and  C_15
REMARK                            x       y       z     vdW  Elec       q    Type
REMARK                         _______ _______ _______ _____ _____    ______ ____
ROOT
ATOM      1  C   UNL     1       1.588   9.272  18.846  0.00  0.00    +0.000 C 
ATOM      2  O   UNL     1       1.298   8.850  19.969  0.00  0.00    +0.000 OA
ATOM      3  N   UNL     1       2.430   8.587  18.001  0.00  0.00    +0.000 N 
ATOM      4  H   UNL     1       2.440   8.849  17.024  0.00  0.00    +0.000 HD
ENDROOT
BRANCH   3   5
ATOM      5  C   UNL     1       2.999   7.276  18.334  0.00  0.00    +0.000 C 
ATOM      6  C   UNL     1       4.172   6.956  17.407  0.00  0.00    +0.000 C 
ATOM      7  C   UNL     1       4.729   5.531  17.602  0.00  0.00    +0.000 C 
ATOM      8  C   UNL     1       5.620   5.188  16.386  0.00  0.00    +0.000 C 
ATOM      9  C   UNL     1       5.630   5.435  18.848  0.00  0.00    +0.000 C 
ATOM     10  N   UNL     1       3.664   4.522  17.610  0.00  0.00    +0.000 NA
ATOM     11  C   UNL     1       2.446   4.779  18.388  0.00  0.00    +0.000 C 
ATOM     12  C   UNL     1       1.384   3.801  17.837  0.00  0.00    +0.000 C 
ATOM     13  C   UNL     1       2.624   4.458  19.882  0.00  0.00    +0.000 C 
ATOM     14  C   UNL     1       1.917   6.208  18.182  0.00  0.00    +0.000 C 
ATOM     15  H   UNL     1       4.044   3.601  17.836  0.00  0.00    +0.000 HD
ENDBRANCH   3   5
BRANCH   1  16
ATOM     16  C   UNL     1       1.022  10.605  18.324  0.00  0.00    +0.000 C 
BRANCH  16  17
ATOM     17  C   UNL     1      -0.505  10.629  18.284  0.00  0.00    +0.000 A 
ATOM     18  C   UNL     1      -1.197   9.753  17.435  0.00  0.00    +0.000 A 
ATOM     19  C   UNL     1      -2.587   9.838  17.303  0.00  0.00    +0.000 A 
ATOM     20  C   UNL     1      -3.303  10.789  18.028  0.00  0.00    +0.000 A 
ATOM     21  C   UNL     1      -2.634  11.646  18.894  0.00  0.00    +0.000 A 
ATOM     22  C   UNL     1      -1.248  11.568  19.019  0.00  0.00    +0.000 A 
ENDBRANCH  16  17
BRANCH  16  24
ATOM     23  C   UNL     1       2.399  12.778  18.183  0.00  0.00    +0.000 C 
ATOM     24  C   UNL     1       1.538  11.868  19.043  0.00  0.00    +0.000 C 
ENDBRANCH  16  24
ENDBRANCH   1  16
TORSDOF 4
ENDMDL
MODEL 7
REMARK VINA RESULT:      -7.0      2.308      7.219
REMARK  Name = 
REMARK  9 active torsions:
REMARK  status: ('A' for Active; 'I' for Inactive)
REMARK    1  A    between atoms: C_1  and  C_2
REMARK    2  A    between atoms: C_2  and  C_3
REMARK    3  A    between atoms: C_3  and  C_4
REMARK    4  A    between atoms: C_3  and  C_17
REMARK    5  A    between atoms: N_6  and  C_7
REMARK    6  A    between atoms: C_9  and  C_10
REMARK    7  A    between atoms: C_9  and  C_11
REMARK    8  A    between atoms: C_13  and  C_14
REMARK    9  A    between atoms: C_13  and  C_15
REMARK                            x       y       z     vdW  Elec       q    Type
REMARK                         _______ _______ _______ _____ _____    ______ ____
ROOT
ATOM      1  C   UNL     1       1.922   8.691  18.373  0.00  0.00    +0.000 C 
ATOM      2  O   UNL     1       2.194   9.023  17.217  0.00  0.00    +0.000 OA
ATOM      3  N   UNL     1       2.307   7.478  18.896  0.00  0.00    +0.000 N 
ATOM      4  H   UNL     1       2.270   7.360  19.901  0.00  0.00    +0.000 HD
ENDROOT
BRANCH   3   5
ATOM      5  C   UNL     1       3.122   6.512  18.152  0.00  0.00    +0.000 C 
ATOM      6  C   UNL     1       3.236   5.201  18.932  0.00  0.00    +0.000 C 
ATOM      7  C   UNL     1       4.198   4.188  18.280  0.00  0.00    +0.000 C 
ATOM      8  C   UNL     1       4.530   3.095  19.322  0.00  0.00    +0.000 C 
ATOM      9  C   UNL     1       3.546   3.470  17.083  0.00  0.00    +0.000 C 
ATOM     10  N   UNL     1       5.483   4.801  17.924  0.00  0.00    +0.000 NA
ATOM     11  C   UNL     1       5.487   6.112  17.264  0.00  0.00    +0.000 C 
ATOM     12  C   UNL     1       6.918   6.667  17.446  0.00  0.00    +0.000 C 
ATOM     13  C   UNL     1       5.233   6.008  15.750  0.00  0.00    +0.000 C 
ATOM     14  C   UNL     1       4.514   7.100  17.928  0.00  0.00    +0.000 C 
ATOM     15  H   UNL     1       6.066   4.139  17.409  0.00  0.00    +0.000 HD
ENDBRANCH   3   5
BRANCH   1  16
ATOM     16  C   UNL     1       1.124   9.621  19.304  0.00  0.00    +0.000 C 
BRANCH  16  17
ATOM     17  C   UNL     1      -0.026  10.332  18.592  0.00  0.00    +0.000 A 
ATOM     18  C   UNL     1      -0.269  11.691  18.838  0.00  0.00    +0.000 A 
ATOM     19  C   UNL     1      -1.384  12.328  18.282  0.00  0.00    +0.000 A 
ATOM     20  C   UNL     1      -2.261  11.618  17.464  0.00  0.00    +0.000 A 
ATOM     21  C   UNL     1      -2.018  10.277  17.189  0.00  0.00    +0.000 A 
ATOM     22  C   UNL     1      -0.913   9.640  17.749  0.00  0.00    +0.000 A 
ENDBRANCH  16  17
BRANCH  16  24
ATOM     23  C   UNL     1       1.128   9.597  21.881  0.00  0.00    +0.000 C 
ATOM     24  C   UNL     1       0.602   8.969  20.600  0.00  0.00    +0.000 C 
ENDBRANCH  16  24
ENDBRANCH   1  16
TORSDOF 4
ENDMDL
MODEL 8
REMARK VINA RESULT:      -7.0      2.096      4.441
REMARK  Name = 
REMARK  9 active torsions:
REMARK  status: ('A' for Active; 'I' for Inactive)
REMARK    1  A    between atoms: C_1  and  C_2
REMARK    2  A    between atoms: C_2  and  C_3
REMARK    3  A    between atoms: C_3  and  C_4
REMARK    4  A    between atoms: C_3  and  C_17
REMARK    5  A    between atoms: N_6  and  C_7
REMARK    6  A    between atoms: C_9  and  C_10
REMARK    7  A    between atoms: C_9  and  C_11
REMARK    8  A    between atoms: C_13  and  C_14
REMARK    9  A    between atoms: C_13  and  C_15
REMARK                            x       y       z     vdW  Elec       q    Type
REMARK                         _______ _______ _______ _____ _____    ______ ____
ROOT
ATOM      1  C   UNL     1       2.648   5.498  18.555  0.00  0.00    +0.000 C 
ATOM      2  O   UNL     1       1.637   4.959  19.012  0.00  0.00    +0.000 OA
ATOM      3  N   UNL     1       2.777   6.866  18.480  0.00  0.00    +0.000 N 
ATOM      4  H   UNL     1       3.702   7.248  18.327  0.00  0.00    +0.000 HD
ENDROOT
BRANCH   3   5
ATOM      5  C   UNL     1       1.761   7.792  18.992  0.00  0.00    +0.000 C 
ATOM      6  C   UNL     1       1.944   9.177  18.371  0.00  0.00    +0.000 C 
ATOM      7  C   UNL     1       1.003  10.241  18.970  0.00  0.00    +0.000 C 
ATOM      8  C   UNL     1       1.528  11.637  18.564  0.00  0.00    +0.000 C 
ATOM      9  C   UNL     1      -0.424  10.126  18.401  0.00  0.00    +0.000 C 
ATOM     10  N   UNL     1       1.017  10.222  20.437  0.00  0.00    +0.000 NA
ATOM     11  C   UNL     1       0.950   8.932  21.133  0.00  0.00    +0.000 C 
ATOM     12  C   UNL     1       1.440   9.208  22.573  0.00  0.00    +0.000 C 
ATOM     13  C   UNL     1      -0.488   8.395  21.240  0.00  0.00    +0.000 C 
ATOM     14  C   UNL     1       1.892   7.888  20.511  0.00  0.00    +0.000 C 
ATOM     15  H   UNL     1       0.317  10.866  20.811  0.00  0.00    +0.000 HD
ENDBRANCH   3   5
BRANCH   1  16
ATOM     16  C   UNL     1       3.831   4.664  18.033  0.00  0.00    +0.000 C 
BRANCH  16  17
ATOM     17  C   UNL     1       5.169   5.393  18.145  0.00  0.00    +0.000 A 
ATOM     18  C   UNL     1       5.600   6.231  17.106  0.00  0.00    +0.000 A 
ATOM     19  C   UNL     1       6.869   6.817  17.142  0.00  0.00    +0.000 A 
ATOM     20  C   UNL     1       7.719   6.584  18.222  0.00  0.00    +0.000 A 
ATOM     21  C   UNL     1       7.296   5.776  19.273  0.00  0.00    +0.000 A 
ATOM     22  C   UNL     1       6.035   5.186  19.233  0.00  0.00    +0.000 A 
ENDBRANCH  16  17
BRANCH  16  24
ATOM     23  C   UNL     1       3.354   2.143  17.797  0.00  0.00    +0.000 C 
ATOM     24  C   UNL     1       3.962   3.252  18.639  0.00  0.00    +0.000 C 
ENDBRANCH  16  24
ENDBRANCH   1  16
TORSDOF 4
ENDMDL
MODEL 9
REMARK VINA RESULT:      -7.0      2.192      7.563
REMARK  Name = 
REMARK  9 active torsions:
REMARK  status: ('A' for Active; 'I' for Inactive)
REMARK    1  A    between atoms: C_1  and  C_2
REMARK    2  A    between atoms: C_2  and  C_3
REMARK    3  A    between atoms: C_3  and  C_4
REMARK    4  A    between atoms: C_3  and  C_17
REMARK    5  A    between atoms: N_6  and  C_7
REMARK    6  A    between atoms: C_9  and  C_10
REMARK    7  A    between atoms: C_9  and  C_11
REMARK    8  A    between atoms: C_13  and  C_14
REMARK    9  A    between atoms: C_13  and  C_15
REMARK                            x       y       z     vdW  Elec       q    Type
REMARK                         _______ _______ _______ _____ _____    ______ ____
ROOT
ATOM      1  C   UNL     1       1.533   8.204  19.908  0.00  0.00    +0.000 C 
ATOM      2  O   UNL     1       1.841   8.360  18.724  0.00  0.00    +0.000 OA
ATOM      3  N   UNL     1       1.649   6.988  20.542  0.00  0.00    +0.000 N 
ATOM      4  H   UNL     1       1.614   6.974  21.553  0.00  0.00    +0.000 HD
ENDROOT
BRANCH   3   5
ATOM      5  C   UNL     1       2.205   5.799  19.887  0.00  0.00    +0.000 C 
ATOM      6  C   UNL     1       2.068   4.579  20.799  0.00  0.00    +0.000 C 
ATOM      7  C   UNL     1       2.761   3.321  20.239  0.00  0.00    +0.000 C 
ATOM      8  C   UNL     1       2.896   2.291  21.383  0.00  0.00    +0.000 C 
ATOM      9  C   UNL     1       1.919   2.648  19.138  0.00  0.00    +0.000 C 
ATOM     10  N   UNL     1       4.131   3.601  19.793  0.00  0.00    +0.000 NA
ATOM     11  C   UNL     1       4.389   4.808  18.997  0.00  0.00    +0.000 C 
ATOM     12  C   UNL     1       5.911   5.053  19.090  0.00  0.00    +0.000 C 
ATOM     13  C   UNL     1       4.052   4.612  17.509  0.00  0.00    +0.000 C 
ATOM     14  C   UNL     1       3.680   6.045  19.573  0.00  0.00    +0.000 C 
ATOM     15  H   UNL     1       4.536   2.781  19.339  0.00  0.00    +0.000 HD
ENDBRANCH   3   5
BRANCH   1  16
ATOM     16  C   UNL     1       0.991   9.372  20.752  0.00  0.00    +0.000 C 
BRANCH  16  17
ATOM     17  C   UNL     1       0.413  10.503  19.901  0.00  0.00    +0.000 A 
ATOM     18  C   UNL     1       1.107  11.716  19.784  0.00  0.00    +0.000 A 
ATOM     19  C   UNL     1       0.541  12.798  19.103  0.00  0.00    +0.000 A 
ATOM     20  C   UNL     1      -0.719  12.678  18.520  0.00  0.00    +0.000 A 
ATOM     21  C   UNL     1      -1.408  11.473  18.605  0.00  0.00    +0.000 A 
ATOM     22  C   UNL     1      -0.848  10.397  19.291  0.00  0.00    +0.000 A 
ENDBRANCH  16  17
BRANCH  16  24
ATOM     23  C   UNL     1      -0.241  10.040  22.914  0.00  0.00    +0.000 C 
ATOM     24  C   UNL     1      -0.023   8.981  21.845  0.00  0.00    +0.000 C 
ENDBRANCH  16  24
ENDBRANCH   1  16
TORSDOF 4
ENDMDL
