MODEL 1
REMARK VINA RESULT:      -7.7      0.000      0.000
REMARK  Name = 
REMARK  10 active torsions:
REMARK  status: ('A' for Active; 'I' for Inactive)
REMARK    1  A    between atoms: CE_1  and  SD_2
REMARK    2  A    between atoms: SD_2  and  CG_3
REMARK    3  A    between atoms: CG_3  and  CB_4
REMARK    4  A    between atoms: CB_4  and  CA_5
REMARK    5  A    between atoms: CA_5  and  N_6
REMARK    6  A    between atoms: CA_5  and  C_27
REMARK    7  A    between atoms: C_7  and  C_9
REMARK    8  A    between atoms: C_14  and  N_15
REMARK    9  A    between atoms: C_16  and  C_18
REMARK   10  A    between atoms: C_27  and  OXT_29
REMARK                            x       y       z     vdW  Elec       q    Type
REMARK                         _______ _______ _______ _____ _____    ______ ____
ROOT
ATOM      1  C   UNK A   0       5.416   4.747  17.429  0.00  0.00    +0.000 A 
ATOM      2  C   UNK A   0       6.153   3.840  16.646  0.00  0.00    +0.000 A 
ATOM      3  C   UNK A   0       6.403   4.108  15.305  0.00  0.00    +0.000 A 
ATOM      4  C   UNK A   0       5.941   5.294  14.744  0.00  0.00    +0.000 A 
ATOM      5  C   UNK A   0       5.199   6.197  15.512  0.00  0.00    +0.000 A 
ATOM      6  C   UNK A   0       4.914   5.931  16.858  0.00  0.00    +0.000 A 
ENDROOT
BRANCH   1   8
ATOM      7  N   MET A   1       4.609   3.169  19.092  0.00  0.00    +0.000 N 
ATOM      8  C   UNK A   0       5.166   4.409  18.851  0.00  0.00    +0.000 C 
ATOM      9  O   UNK A   0       5.443   5.214  19.734  0.00  0.00    +0.000 OA
ATOM     10  H   MET A   1       4.233   2.607  18.335  0.00  0.00    +0.000 HD
BRANCH   7  11
ATOM     11  CA  MET A   1       4.387   2.692  20.449  0.00  0.00    +0.000 C 
BRANCH  11  12
ATOM     12  C   MET A   1       5.124   1.366  20.649  0.00  0.00    +0.000 C 
ATOM     13  O   MET A   1       5.759   1.079  21.656  0.00  0.00    +0.000 OA
BRANCH  12  14
ATOM     14  OXT MET A   1       5.038   0.533  19.585  0.00  0.00    +0.000 OA
ATOM     15  HXT MET A   1       4.436  -0.228  19.728  0.00  0.00    +0.000 HD
ENDBRANCH  12  14
ENDBRANCH  11  12
BRANCH  11  16
ATOM     16  CB  MET A   1       2.886   2.529  20.721  0.00  0.00    +0.000 C 
BRANCH  16  17
ATOM     17  CG  MET A   1       2.075   1.947  19.561  0.00  0.00    +0.000 C 
BRANCH  17  19
ATOM     18  CE  MET A   1       0.868   4.299  20.412  0.00  0.00    +0.000 C 
ATOM     19  SD  MET A   1       0.635   3.001  19.186  0.00  0.00    +0.000 S 
ENDBRANCH  17  19
ENDBRANCH  16  17
ENDBRANCH  11  16
ENDBRANCH   7  11
ENDBRANCH   1   8
BRANCH   6  20
ATOM     20  N   UNK A   0       4.171   6.868  17.618  0.00  0.00    +0.000 N 
ATOM     21  C   UNK A   0       2.818   6.747  17.900  0.00  0.00    +0.000 C 
ATOM     22  O   UNK A   0       2.166   5.724  17.701  0.00  0.00    +0.000 OA
ATOM     23  H   UNK A   0       4.711   7.511  18.198  0.00  0.00    +0.000 HD
BRANCH  21  24
ATOM     24  C   UNK A   0       2.209   7.919  18.499  0.00  0.00    +0.000 A 
ATOM     25  C   UNK A   0       1.821   9.119  17.927  0.00  0.00    +0.000 A 
ATOM     26  C   UNK A   0       1.152   9.891  18.913  0.00  0.00    +0.000 A 
ATOM     27  C   UNK A   0       0.507  11.145  18.883  0.00  0.00    +0.000 A 
ATOM     28  C   UNK A   0      -0.077  11.641  20.052  0.00  0.00    +0.000 A 
ATOM     29  C   UNK A   0      -0.017  10.912  21.237  0.00  0.00    +0.000 A 
ATOM     30  C   UNK A   0       0.614   9.661  21.289  0.00  0.00    +0.000 A 
ATOM     31  C   UNK A   0       1.184   9.171  20.101  0.00  0.00    +0.000 A 
ATOM     32  N   UNK A   0       1.826   7.981  19.828  0.00  0.00    +0.000 N 
ATOM     33  H   UNK A   0       1.971   7.227  20.487  0.00  0.00    +0.000 HD
ENDBRANCH  21  24
ENDBRANCH   6  20
TORSDOF 9
ENDMDL
MODEL 2
REMARK VINA RESULT:      -7.5      2.498      4.268
REMARK  Name = 
REMARK  10 active torsions:
REMARK  status: ('A' for Active; 'I' for Inactive)
REMARK    1  A    between atoms: CE_1  and  SD_2
REMARK    2  A    between atoms: SD_2  and  CG_3
REMARK    3  A    between atoms: CG_3  and  CB_4
REMARK    4  A    between atoms: CB_4  and  CA_5
REMARK    5  A    between atoms: CA_5  and  N_6
REMARK    6  A    between atoms: CA_5  and  C_27
REMARK    7  A    between atoms: C_7  and  C_9
REMARK    8  A    between atoms: C_14  and  N_15
REMARK    9  A    between atoms: C_16  and  C_18
REMARK   10  A    between atoms: C_27  and  OXT_29
REMARK                            x       y       z     vdW  Elec       q    Type
REMARK                         _______ _______ _______ _____ _____    ______ ____
ROOT
ATOM      1  C   UNK A   0       3.684   3.889  18.301  0.00  0.00    +0.000 A 
ATOM      2  C   UNK A   0       3.810   2.497  18.141  0.00  0.00    +0.000 A 
ATOM      3  C   UNK A   0       2.715   1.663  18.339  0.00  0.00    +0.000 A 
ATOM      4  C   UNK A   0       1.483   2.213  18.674  0.00  0.00    +0.000 A 
ATOM      5  C   UNK A   0       1.350   3.595  18.845  0.00  0.00    +0.000 A 
ATOM      6  C   UNK A   0       2.448   4.450  18.677  0.00  0.00    +0.000 A 
ENDROOT
BRANCH   1   8
ATOM      7  N   MET A   1       6.102   4.100  18.211  0.00  0.00    +0.000 N 
ATOM      8  C   UNK A   0       4.883   4.735  18.091  0.00  0.00    +0.000 C 
ATOM      9  O   UNK A   0       4.759   5.928  17.835  0.00  0.00    +0.000 OA
ATOM     10  H   MET A   1       6.171   3.162  18.594  0.00  0.00    +0.000 HD
BRANCH   7  11
ATOM     11  CA  MET A   1       7.349   4.805  17.952  0.00  0.00    +0.000 C 
BRANCH  11  12
ATOM     12  C   MET A   1       7.700   5.678  19.159  0.00  0.00    +0.000 C 
ATOM     13  O   MET A   1       7.503   5.351  20.322  0.00  0.00    +0.000 OA
BRANCH  12  14
ATOM     14  OXT MET A   1       8.231   6.878  18.823  0.00  0.00    +0.000 OA
ATOM     15  HXT MET A   1       8.591   6.908  17.911  0.00  0.00    +0.000 HD
ENDBRANCH  12  14
ENDBRANCH  11  12
BRANCH  11  16
ATOM     16  CB  MET A   1       7.230   5.655  16.680  0.00  0.00    +0.000 C 
BRANCH  16  17
ATOM     17  CG  MET A   1       7.358   4.879  15.366  0.00  0.00    +0.000 C 
BRANCH  17  19
ATOM     18  CE  MET A   1       6.192   3.692  13.142  0.00  0.00    +0.000 C 
ATOM     19  SD  MET A   1       5.735   4.716  14.551  0.00  0.00    +0.000 S 
ENDBRANCH  17  19
ENDBRANCH  16  17
ENDBRANCH  11  16
ENDBRANCH   7  11
ENDBRANCH   1   8
BRANCH   6  20
ATOM     20  N   UNK A   0       2.283   5.847  18.844  0.00  0.00    +0.000 N 
ATOM     21  C   UNK A   0       2.044   6.464  20.064  0.00  0.00    +0.000 C 
ATOM     22  O   UNK A   0       2.151   5.899  21.150  0.00  0.00    +0.000 OA
ATOM     23  H   UNK A   0       2.619   6.438  18.083  0.00  0.00    +0.000 HD
BRANCH  21  24
ATOM     24  C   UNK A   0       1.688   7.867  19.981  0.00  0.00    +0.000 A 
ATOM     25  C   UNK A   0       1.697   8.732  18.899  0.00  0.00    +0.000 A 
ATOM     26  C   UNK A   0       1.133   9.969  19.309  0.00  0.00    +0.000 A 
ATOM     27  C   UNK A   0       0.841  11.169  18.628  0.00  0.00    +0.000 A 
ATOM     28  C   UNK A   0       0.265  12.231  19.330  0.00  0.00    +0.000 A 
ATOM     29  C   UNK A   0      -0.014  12.112  20.690  0.00  0.00    +0.000 A 
ATOM     30  C   UNK A   0       0.262  10.926  21.386  0.00  0.00    +0.000 A 
ATOM     31  C   UNK A   0       0.830   9.864  20.661  0.00  0.00    +0.000 A 
ATOM     32  N   UNK A   0       1.171   8.584  21.047  0.00  0.00    +0.000 N 
ATOM     33  H   UNK A   0       1.035   8.193  21.970  0.00  0.00    +0.000 HD
ENDBRANCH  21  24
ENDBRANCH   6  20
TORSDOF 9
ENDMDL
MODEL 3
REMARK VINA RESULT:      -7.4      2.514      4.443
REMARK  Name = 
REMARK  10 active torsions:
REMARK  status: ('A' for Active; 'I' for Inactive)
REMARK    1  A    between atoms: CE_1  and  SD_2
REMARK    2  A    between atoms: SD_2  and  CG_3
REMARK    3  A    between atoms: CG_3  and  CB_4
REMARK    4  A    between atoms: CB_4  and  CA_5
REMARK    5  A    between atoms: CA_5  and  N_6
REMARK    6  A    between atoms: CA_5  and  C_27
REMARK    7  A    between atoms: C_7  and  C_9
REMARK    8  A    between atoms: C_14  and  N_15
REMARK    9  A    between atoms: C_16  and  C_18
REMARK   10  A    between atoms: C_27  and  OXT_29
REMARK                            x       y       z     vdW  Elec       q    Type
REMARK                         _______ _______ _______ _____ _____    ______ ____
ROOT
ATOM      1  C   UNK A   0       3.682   3.751  18.330  0.00  0.00    +0.000 A 
ATOM      2  C   UNK A   0       3.854   2.368  18.140  0.00  0.00    +0.000 A 
ATOM      3  C   UNK A   0       2.805   1.489  18.381  0.00  0.00    +0.000 A 
ATOM      4  C   UNK A   0       1.572   1.984  18.790  0.00  0.00    +0.000 A 
ATOM      5  C   UNK A   0       1.395   3.357  18.991  0.00  0.00    +0.000 A 
ATOM      6  C   UNK A   0       2.447   4.257  18.779  0.00  0.00    +0.000 A 
ENDROOT
BRANCH   1   8
ATOM      7  N   MET A   1       6.083   4.062  18.127  0.00  0.00    +0.000 N 
ATOM      8  C   UNK A   0       4.834   4.648  18.070  0.00  0.00    +0.000 C 
ATOM      9  O   UNK A   0       4.650   5.836  17.831  0.00  0.00    +0.000 OA
ATOM     10  H   MET A   1       6.208   3.125  18.498  0.00  0.00    +0.000 HD
BRANCH   7  11
ATOM     11  CA  MET A   1       7.286   4.820  17.815  0.00  0.00    +0.000 C 
BRANCH  11  12
ATOM     12  C   MET A   1       7.628   5.739  18.991  0.00  0.00    +0.000 C 
ATOM     13  O   MET A   1       7.511   5.420  20.168  0.00  0.00    +0.000 OA
BRANCH  12  14
ATOM     14  OXT MET A   1       8.050   6.968  18.612  0.00  0.00    +0.000 OA
ATOM     15  HXT MET A   1       7.372   7.669  18.725  0.00  0.00    +0.000 HD
ENDBRANCH  12  14
ENDBRANCH  11  12
BRANCH  11  16
ATOM     16  CB  MET A   1       7.091   5.631  16.528  0.00  0.00    +0.000 C 
BRANCH  16  17
ATOM     17  CG  MET A   1       7.287   4.845  15.229  0.00  0.00    +0.000 C 
BRANCH  17  19
ATOM     18  CE  MET A   1       6.233   3.656  12.951  0.00  0.00    +0.000 C 
ATOM     19  SD  MET A   1       5.677   4.410  14.488  0.00  0.00    +0.000 S 
ENDBRANCH  17  19
ENDBRANCH  16  17
ENDBRANCH  11  16
ENDBRANCH   7  11
ENDBRANCH   1   8
BRANCH   6  20
ATOM     20  N   UNK A   0       2.238   5.644  18.978  0.00  0.00    +0.000 N 
ATOM     21  C   UNK A   0       2.023   6.231  20.217  0.00  0.00    +0.000 C 
ATOM     22  O   UNK A   0       2.194   5.652  21.288  0.00  0.00    +0.000 OA
ATOM     23  H   UNK A   0       2.521   6.260  18.215  0.00  0.00    +0.000 HD
BRANCH  21  24
ATOM     24  C   UNK A   0       1.612   7.621  20.173  0.00  0.00    +0.000 A 
ATOM     25  C   UNK A   0       1.070   8.428  21.160  0.00  0.00    +0.000 A 
ATOM     26  C   UNK A   0       0.968   9.750  20.654  0.00  0.00    +0.000 A 
ATOM     27  C   UNK A   0       0.551  10.971  21.222  0.00  0.00    +0.000 A 
ATOM     28  C   UNK A   0       0.575  12.132  20.444  0.00  0.00    +0.000 A 
ATOM     29  C   UNK A   0       0.998  12.085  19.118  0.00  0.00    +0.000 A 
ATOM     30  C   UNK A   0       1.424  10.883  18.534  0.00  0.00    +0.000 A 
ATOM     31  C   UNK A   0       1.405   9.728  19.335  0.00  0.00    +0.000 A 
ATOM     32  N   UNK A   0       1.793   8.432  19.066  0.00  0.00    +0.000 N 
ATOM     33  H   UNK A   0       2.192   8.108  18.195  0.00  0.00    +0.000 HD
ENDBRANCH  21  24
ENDBRANCH   6  20
TORSDOF 9
ENDMDL
MODEL 4
REMARK VINA RESULT:      -7.4      2.901      4.710
REMARK  Name = 
REMARK  10 active torsions:
REMARK  status: ('A' for Active; 'I' for Inactive)
REMARK    1  A    between atoms: CE_1  and  SD_2
REMARK    2  A    between atoms: SD_2  and  CG_3
REMARK    3  A    between atoms: CG_3  and  CB_4
REMARK    4  A    between atoms: CB_4  and  CA_5
REMARK    5  A    between atoms: CA_5  and  N_6
REMARK    6  A    between atoms: CA_5  and  C_27
REMARK    7  A    between atoms: C_7  and  C_9
REMARK    8  A    between atoms: C_14  and  N_15
REMARK    9  A    between atoms: C_16  and  C_18
REMARK   10  A    between atoms: C_27  and  OXT_29
REMARK                            x       y       z     vdW  Elec       q    Type
REMARK                         _______ _______ _______ _____ _____    ______ ____
ROOT
ATOM      1  C   UNK A   0       3.089   4.050  17.949  0.00  0.00    +0.000 A 
ATOM      2  C   UNK A   0       3.225   2.696  17.593  0.00  0.00    +0.000 A 
ATOM      3  C   UNK A   0       2.278   1.762  17.999  0.00  0.00    +0.000 A 
ATOM      4  C   UNK A   0       1.177   2.177  18.740  0.00  0.00    +0.000 A 
ATOM      5  C   UNK A   0       1.038   3.520  19.106  0.00  0.00    +0.000 A 
ATOM      6  C   UNK A   0       1.997   4.471  18.731  0.00  0.00    +0.000 A 
ENDROOT
BRANCH   1   8
ATOM      7  N   MET A   1       5.426   4.523  17.483  0.00  0.00    +0.000 N 
ATOM      8  C   UNK A   0       4.132   5.004  17.504  0.00  0.00    +0.000 C 
ATOM      9  O   UNK A   0       3.827   6.149  17.187  0.00  0.00    +0.000 OA
ATOM     10  H   MET A   1       5.664   3.635  17.915  0.00  0.00    +0.000 HD
BRANCH   7  11
ATOM     11  CA  MET A   1       6.527   5.339  16.992  0.00  0.00    +0.000 C 
BRANCH  11  12
ATOM     12  C   MET A   1       6.968   4.826  15.619  0.00  0.00    +0.000 C 
ATOM     13  O   MET A   1       7.768   5.404  14.895  0.00  0.00    +0.000 OA
BRANCH  12  14
ATOM     14  OXT MET A   1       6.364   3.670  15.253  0.00  0.00    +0.000 OA
ATOM     15  HXT MET A   1       6.976   2.905  15.203  0.00  0.00    +0.000 HD
ENDBRANCH  12  14
ENDBRANCH  11  12
BRANCH  11  16
ATOM     16  CB  MET A   1       7.696   5.316  17.985  0.00  0.00    +0.000 C 
BRANCH  16  17
ATOM     17  CG  MET A   1       7.998   6.654  18.664  0.00  0.00    +0.000 C 
BRANCH  17  19
ATOM     18  CE  MET A   1       8.551   9.358  18.348  0.00  0.00    +0.000 C 
ATOM     19  SD  MET A   1       7.608   8.046  17.552  0.00  0.00    +0.000 S 
ENDBRANCH  17  19
ENDBRANCH  16  17
ENDBRANCH  11  16
ENDBRANCH   7  11
ENDBRANCH   1   8
BRANCH   6  20
ATOM     20  N   UNK A   0       1.826   5.827  19.104  0.00  0.00    +0.000 N 
ATOM     21  C   UNK A   0       1.870   6.287  20.413  0.00  0.00    +0.000 C 
ATOM     22  O   UNK A   0       2.262   5.613  21.363  0.00  0.00    +0.000 OA
ATOM     23  H   UNK A   0       1.943   6.519  18.365  0.00  0.00    +0.000 HD
BRANCH  21  24
ATOM     24  C   UNK A   0       1.453   7.664  20.592  0.00  0.00    +0.000 A 
ATOM     25  C   UNK A   0       1.459   8.726  19.703  0.00  0.00    +0.000 A 
ATOM     26  C   UNK A   0       0.824   9.834  20.322  0.00  0.00    +0.000 A 
ATOM     27  C   UNK A   0       0.502  11.134  19.878  0.00  0.00    +0.000 A 
ATOM     28  C   UNK A   0      -0.148  12.012  20.749  0.00  0.00    +0.000 A 
ATOM     29  C   UNK A   0      -0.469  11.615  22.045  0.00  0.00    +0.000 A 
ATOM     30  C   UNK A   0      -0.164  10.326  22.506  0.00  0.00    +0.000 A 
ATOM     31  C   UNK A   0       0.479   9.452  21.612  0.00  0.00    +0.000 A 
ATOM     32  N   UNK A   0       0.865   8.135  21.754  0.00  0.00    +0.000 N 
ATOM     33  H   UNK A   0       0.714   7.564  22.575  0.00  0.00    +0.000 HD
ENDBRANCH  21  24
ENDBRANCH   6  20
TORSDOF 9
ENDMDL
MODEL 5
REMARK VINA RESULT:      -7.3      0.801      1.302
REMARK  Name = 
REMARK  10 active torsions:
REMARK  status: ('A' for Active; 'I' for Inactive)
REMARK    1  A    between atoms: CE_1  and  SD_2
REMARK    2  A    between atoms: SD_2  and  CG_3
REMARK    3  A    between atoms: CG_3  and  CB_4
REMARK    4  A    between atoms: CB_4  and  CA_5
REMARK    5  A    between atoms: CA_5  and  N_6
REMARK    6  A    between atoms: CA_5  and  C_27
REMARK    7  A    between atoms: C_7  and  C_9
REMARK    8  A    between atoms: C_14  and  N_15
REMARK    9  A    between atoms: C_16  and  C_18
REMARK   10  A    between atoms: C_27  and  OXT_29
REMARK                            x       y       z     vdW  Elec       q    Type
REMARK                         _______ _______ _______ _____ _____    ______ ____
ROOT
ATOM      1  C   UNK A   0       5.307   4.705  17.631  0.00  0.00    +0.000 A 
ATOM      2  C   UNK A   0       6.076   3.831  16.842  0.00  0.00    +0.000 A 
ATOM      3  C   UNK A   0       6.359   4.144  15.517  0.00  0.00    +0.000 A 
ATOM      4  C   UNK A   0       5.899   5.341  14.979  0.00  0.00    +0.000 A 
ATOM      5  C   UNK A   0       5.126   6.212  15.754  0.00  0.00    +0.000 A 
ATOM      6  C   UNK A   0       4.807   5.901  17.082  0.00  0.00    +0.000 A 
ENDROOT
BRANCH   1   8
ATOM      7  N   MET A   1       4.695   2.997  19.247  0.00  0.00    +0.000 N 
ATOM      8  C   UNK A   0       5.022   4.322  19.035  0.00  0.00    +0.000 C 
ATOM      9  O   UNK A   0       5.075   5.161  19.927  0.00  0.00    +0.000 OA
ATOM     10  H   MET A   1       4.490   2.375  18.471  0.00  0.00    +0.000 HD
BRANCH   7  11
ATOM     11  CA  MET A   1       4.469   2.482  20.589  0.00  0.00    +0.000 C 
BRANCH  11  12
ATOM     12  C   MET A   1       5.244   1.174  20.770  0.00  0.00    +0.000 C 
ATOM     13  O   MET A   1       5.870   0.882  21.782  0.00  0.00    +0.000 OA
BRANCH  12  14
ATOM     14  OXT MET A   1       5.204   0.367  19.684  0.00  0.00    +0.000 OA
ATOM     15  HXT MET A   1       5.984  -0.224  19.604  0.00  0.00    +0.000 HD
ENDBRANCH  12  14
ENDBRANCH  11  12
BRANCH  11  16
ATOM     16  CB  MET A   1       2.970   2.265  20.835  0.00  0.00    +0.000 C 
BRANCH  16  17
ATOM     17  CG  MET A   1       2.265   3.397  21.587  0.00  0.00    +0.000 C 
BRANCH  17  19
ATOM     18  CE  MET A   1       0.696   2.906  19.348  0.00  0.00    +0.000 C 
ATOM     19  SD  MET A   1       1.057   4.235  20.508  0.00  0.00    +0.000 S 
ENDBRANCH  17  19
ENDBRANCH  16  17
ENDBRANCH  11  16
ENDBRANCH   7  11
ENDBRANCH   1   8
BRANCH   6  20
ATOM     20  N   UNK A   0       4.033   6.807  17.850  0.00  0.00    +0.000 N 
ATOM     21  C   UNK A   0       2.655   6.722  18.001  0.00  0.00    +0.000 C 
ATOM     22  O   UNK A   0       1.988   5.747  17.662  0.00  0.00    +0.000 OA
ATOM     23  H   UNK A   0       4.540   7.377  18.526  0.00  0.00    +0.000 HD
BRANCH  21  24
ATOM     24  C   UNK A   0       2.038   7.868  18.640  0.00  0.00    +0.000 A 
ATOM     25  C   UNK A   0       1.653   8.061  19.957  0.00  0.00    +0.000 A 
ATOM     26  C   UNK A   0       1.219   9.405  20.105  0.00  0.00    +0.000 A 
ATOM     27  C   UNK A   0       0.781  10.161  21.211  0.00  0.00    +0.000 A 
ATOM     28  C   UNK A   0       0.421  11.498  21.026  0.00  0.00    +0.000 A 
ATOM     29  C   UNK A   0       0.486  12.081  19.763  0.00  0.00    +0.000 A 
ATOM     30  C   UNK A   0       0.926  11.350  18.649  0.00  0.00    +0.000 A 
ATOM     31  C   UNK A   0       1.295  10.010  18.856  0.00  0.00    +0.000 A 
ATOM     32  N   UNK A   0       1.795   9.063  17.985  0.00  0.00    +0.000 N 
ATOM     33  H   UNK A   0       1.999   9.216  17.006  0.00  0.00    +0.000 HD
ENDBRANCH  21  24
ENDBRANCH   6  20
TORSDOF 9
ENDMDL
MODEL 6
REMARK VINA RESULT:      -7.2      2.599      4.764
REMARK  Name = 
REMARK  10 active torsions:
REMARK  status: ('A' for Active; 'I' for Inactive)
REMARK    1  A    between atoms: CE_1  and  SD_2
REMARK    2  A    between atoms: SD_2  and  CG_3
REMARK    3  A    between atoms: CG_3  and  CB_4
REMARK    4  A    between atoms: CB_4  and  CA_5
REMARK    5  A    between atoms: CA_5  and  N_6
REMARK    6  A    between atoms: CA_5  and  C_27
REMARK    7  A    between atoms: C_7  and  C_9
REMARK    8  A    between atoms: C_14  and  N_15
REMARK    9  A    between atoms: C_16  and  C_18
REMARK   10  A    between atoms: C_27  and  OXT_29
REMARK                            x       y       z     vdW  Elec       q    Type
REMARK                         _______ _______ _______ _____ _____    ______ ____
ROOT
ATOM      1  C   UNK A   0       3.599   3.608  18.303  0.00  0.00    +0.000 A 
ATOM      2  C   UNK A   0       3.664   2.208  18.188  0.00  0.00    +0.000 A 
ATOM      3  C   UNK A   0       2.539   1.428  18.433  0.00  0.00    +0.000 A 
ATOM      4  C   UNK A   0       1.337   2.041  18.769  0.00  0.00    +0.000 A 
ATOM      5  C   UNK A   0       1.266   3.433  18.895  0.00  0.00    +0.000 A 
ATOM      6  C   UNK A   0       2.395   4.233  18.679  0.00  0.00    +0.000 A 
ENDROOT
BRANCH   1   8
ATOM      7  N   MET A   1       5.296   4.380  16.744  0.00  0.00    +0.000 N 
ATOM      8  C   UNK A   0       4.829   4.395  18.044  0.00  0.00    +0.000 C 
ATOM      9  O   UNK A   0       5.375   5.005  18.956  0.00  0.00    +0.000 OA
ATOM     10  H   MET A   1       4.923   3.729  16.060  0.00  0.00    +0.000 HD
BRANCH   7  11
ATOM     11  CA  MET A   1       6.449   5.174  16.348  0.00  0.00    +0.000 C 
BRANCH  11  12
ATOM     12  C   MET A   1       6.080   6.659  16.381  0.00  0.00    +0.000 C 
ATOM     13  O   MET A   1       6.643   7.491  17.082  0.00  0.00    +0.000 OA
BRANCH  12  14
ATOM     14  OXT MET A   1       5.037   6.976  15.577  0.00  0.00    +0.000 OA
ATOM     15  HXT MET A   1       4.208   7.166  16.065  0.00  0.00    +0.000 HD
ENDBRANCH  12  14
ENDBRANCH  11  12
BRANCH  11  16
ATOM     16  CB  MET A   1       6.929   4.763  14.951  0.00  0.00    +0.000 C 
BRANCH  16  17
ATOM     17  CG  MET A   1       5.985   3.830  14.188  0.00  0.00    +0.000 C 
BRANCH  17  19
ATOM     18  CE  MET A   1       4.949   3.156  11.701  0.00  0.00    +0.000 C 
ATOM     19  SD  MET A   1       6.506   3.665  12.448  0.00  0.00    +0.000 S 
ENDBRANCH  17  19
ENDBRANCH  16  17
ENDBRANCH  11  16
ENDBRANCH   7  11
ENDBRANCH   1   8
BRANCH   6  20
ATOM     20  N   UNK A   0       2.292   5.641  18.801  0.00  0.00    +0.000 N 
ATOM     21  C   UNK A   0       2.110   6.309  20.004  0.00  0.00    +0.000 C 
ATOM     22  O   UNK A   0       2.223   5.778  21.106  0.00  0.00    +0.000 OA
ATOM     23  H   UNK A   0       2.632   6.191  18.011  0.00  0.00    +0.000 HD
BRANCH  21  24
ATOM     24  C   UNK A   0       1.810   7.723  19.880  0.00  0.00    +0.000 A 
ATOM     25  C   UNK A   0       1.944   8.576  18.797  0.00  0.00    +0.000 A 
ATOM     26  C   UNK A   0       1.387   9.835  19.146  0.00  0.00    +0.000 A 
ATOM     27  C   UNK A   0       1.197  11.037  18.434  0.00  0.00    +0.000 A 
ATOM     28  C   UNK A   0       0.597  12.124  19.075  0.00  0.00    +0.000 A 
ATOM     29  C   UNK A   0       0.195  12.027  20.405  0.00  0.00    +0.000 A 
ATOM     30  C   UNK A   0       0.367  10.840  21.131  0.00  0.00    +0.000 A 
ATOM     31  C   UNK A   0       0.962   9.753  20.467  0.00  0.00    +0.000 A 
ATOM     32  N   UNK A   0       1.225   8.466  20.890  0.00  0.00    +0.000 N 
ATOM     33  H   UNK A   0       0.994   8.089  21.800  0.00  0.00    +0.000 HD
ENDBRANCH  21  24
ENDBRANCH   6  20
TORSDOF 9
ENDMDL
MODEL 7
REMARK VINA RESULT:      -7.1      2.237      7.437
REMARK  Name = 
REMARK  10 active torsions:
REMARK  status: ('A' for Active; 'I' for Inactive)
REMARK    1  A    between atoms: CE_1  and  SD_2
REMARK    2  A    between atoms: SD_2  and  CG_3
REMARK    3  A    between atoms: CG_3  and  CB_4
REMARK    4  A    between atoms: CB_4  and  CA_5
REMARK    5  A    between atoms: CA_5  and  N_6
REMARK    6  A    between atoms: CA_5  and  C_27
REMARK    7  A    between atoms: C_7  and  C_9
REMARK    8  A    between atoms: C_14  and  N_15
REMARK    9  A    between atoms: C_16  and  C_18
REMARK   10  A    between atoms: C_27  and  OXT_29
REMARK                            x       y       z     vdW  Elec       q    Type
REMARK                         _______ _______ _______ _____ _____    ______ ____
ROOT
ATOM      1  C   UNK A   0       2.654   4.039  19.696  0.00  0.00    +0.000 A 
ATOM      2  C   UNK A   0       2.002   3.838  20.926  0.00  0.00    +0.000 A 
ATOM      3  C   UNK A   0       2.403   2.813  21.776  0.00  0.00    +0.000 A 
ATOM      4  C   UNK A   0       3.472   2.000  21.417  0.00  0.00    +0.000 A 
ATOM      5  C   UNK A   0       4.121   2.187  20.192  0.00  0.00    +0.000 A 
ATOM      6  C   UNK A   0       3.714   3.196  19.309  0.00  0.00    +0.000 A 
ENDROOT
BRANCH   1   8
ATOM      7  N   MET A   1       2.278   6.412  19.338  0.00  0.00    +0.000 N 
ATOM      8  C   UNK A   0       2.182   5.137  18.818  0.00  0.00    +0.000 C 
ATOM      9  O   UNK A   0       1.733   4.887  17.705  0.00  0.00    +0.000 OA
ATOM     10  H   MET A   1       2.488   6.566  20.319  0.00  0.00    +0.000 HD
BRANCH   7  11
ATOM     11  CA  MET A   1       1.919   7.579  18.544  0.00  0.00    +0.000 C 
BRANCH  11  12
ATOM     12  C   MET A   1       3.127   8.022  17.716  0.00  0.00    +0.000 C 
ATOM     13  O   MET A   1       4.089   7.307  17.469  0.00  0.00    +0.000 OA
BRANCH  12  14
ATOM     14  OXT MET A   1       3.053   9.307  17.296  0.00  0.00    +0.000 OA
ATOM     15  HXT MET A   1       3.746   9.887  17.678  0.00  0.00    +0.000 HD
ENDBRANCH  12  14
ENDBRANCH  11  12
BRANCH  11  16
ATOM     16  CB  MET A   1       1.433   8.716  19.452  0.00  0.00    +0.000 C 
BRANCH  16  17
ATOM     17  CG  MET A   1       1.287   8.349  20.931  0.00  0.00    +0.000 C 
BRANCH  17  19
ATOM     18  CE  MET A   1      -0.477  10.434  20.425  0.00  0.00    +0.000 C 
ATOM     19  SD  MET A   1       0.316   9.613  21.818  0.00  0.00    +0.000 S 
ENDBRANCH  17  19
ENDBRANCH  16  17
ENDBRANCH  11  16
ENDBRANCH   7  11
ENDBRANCH   1   8
BRANCH   6  20
ATOM     20  N   UNK A   0       4.396   3.372  18.080  0.00  0.00    +0.000 N 
ATOM     21  C   UNK A   0       5.553   4.124  17.930  0.00  0.00    +0.000 C 
ATOM     22  O   UNK A   0       6.221   4.546  18.872  0.00  0.00    +0.000 OA
ATOM     23  H   UNK A   0       4.177   2.705  17.340  0.00  0.00    +0.000 HD
BRANCH  21  24
ATOM     24  C   UNK A   0       5.961   4.355  16.558  0.00  0.00    +0.000 A 
ATOM     25  C   UNK A   0       6.906   5.224  16.037  0.00  0.00    +0.000 A 
ATOM     26  C   UNK A   0       7.026   4.974  14.645  0.00  0.00    +0.000 A 
ATOM     27  C   UNK A   0       7.857   5.506  13.638  0.00  0.00    +0.000 A 
ATOM     28  C   UNK A   0       7.733   5.033  12.329  0.00  0.00    +0.000 A 
ATOM     29  C   UNK A   0       6.794   4.053  12.016  0.00  0.00    +0.000 A 
ATOM     30  C   UNK A   0       5.962   3.505  13.003  0.00  0.00    +0.000 A 
ATOM     31  C   UNK A   0       6.109   3.983  14.317  0.00  0.00    +0.000 A 
ATOM     32  N   UNK A   0       5.477   3.621  15.489  0.00  0.00    +0.000 N 
ATOM     33  H   UNK A   0       4.780   2.894  15.579  0.00  0.00    +0.000 HD
ENDBRANCH  21  24
ENDBRANCH   6  20
TORSDOF 9
ENDMDL
MODEL 8
REMARK VINA RESULT:      -7.0      0.964      1.248
REMARK  Name = 
REMARK  10 active torsions:
REMARK  status: ('A' for Active; 'I' for Inactive)
REMARK    1  A    between atoms: CE_1  and  SD_2
REMARK    2  A    between atoms: SD_2  and  CG_3
REMARK    3  A    between atoms: CG_3  and  CB_4
REMARK    4  A    between atoms: CB_4  and  CA_5
REMARK    5  A    between atoms: CA_5  and  N_6
REMARK    6  A    between atoms: CA_5  and  C_27
REMARK    7  A    between atoms: C_7  and  C_9
REMARK    8  A    between atoms: C_14  and  N_15
REMARK    9  A    between atoms: C_16  and  C_18
REMARK   10  A    between atoms: C_27  and  OXT_29
REMARK                            x       y       z     vdW  Elec       q    Type
REMARK                         _______ _______ _______ _____ _____    ______ ____
ROOT
ATOM      1  C   UNK A   0       5.262   4.698  16.940  0.00  0.00    +0.000 A 
ATOM      2  C   UNK A   0       5.969   3.977  15.961  0.00  0.00    +0.000 A 
ATOM      3  C   UNK A   0       6.299   4.572  14.748  0.00  0.00    +0.000 A 
ATOM      4  C   UNK A   0       5.948   5.897  14.515  0.00  0.00    +0.000 A 
ATOM      5  C   UNK A   0       5.237   6.620  15.479  0.00  0.00    +0.000 A 
ATOM      6  C   UNK A   0       4.871   6.029  16.696  0.00  0.00    +0.000 A 
ENDROOT
BRANCH   1   8
ATOM      7  N   MET A   1       3.823   3.183  18.178  0.00  0.00    +0.000 N 
ATOM      8  C   UNK A   0       4.923   4.016  18.212  0.00  0.00    +0.000 C 
ATOM      9  O   UNK A   0       5.599   4.211  19.216  0.00  0.00    +0.000 OA
ATOM     10  H   MET A   1       3.188   3.182  17.386  0.00  0.00    +0.000 HD
BRANCH   7  11
ATOM     11  CA  MET A   1       3.435   2.398  19.342  0.00  0.00    +0.000 C 
BRANCH  11  12
ATOM     12  C   MET A   1       4.474   1.301  19.585  0.00  0.00    +0.000 C 
ATOM     13  O   MET A   1       4.538   0.261  18.941  0.00  0.00    +0.000 OA
BRANCH  12  14
ATOM     14  OXT MET A   1       5.315   1.569  20.612  0.00  0.00    +0.000 OA
ATOM     15  HXT MET A   1       5.103   1.076  21.433  0.00  0.00    +0.000 HD
ENDBRANCH  12  14
ENDBRANCH  11  12
BRANCH  11  16
ATOM     16  CB  MET A   1       2.040   1.793  19.140  0.00  0.00    +0.000 C 
BRANCH  16  17
ATOM     17  CG  MET A   1       0.876   2.771  19.317  0.00  0.00    +0.000 C 
BRANCH  17  19
ATOM     18  CE  MET A   1       1.523   2.791  22.018  0.00  0.00    +0.000 C 
ATOM     19  SD  MET A   1       1.219   3.945  20.670  0.00  0.00    +0.000 S 
ENDBRANCH  17  19
ENDBRANCH  16  17
ENDBRANCH  11  16
ENDBRANCH   7  11
ENDBRANCH   1   8
BRANCH   6  20
ATOM     20  N   UNK A   0       4.163   6.786  17.660  0.00  0.00    +0.000 N 
ATOM     21  C   UNK A   0       2.825   6.591  17.977  0.00  0.00    +0.000 C 
ATOM     22  O   UNK A   0       2.170   5.618  17.611  0.00  0.00    +0.000 OA
ATOM     23  H   UNK A   0       4.726   7.310  18.330  0.00  0.00    +0.000 HD
BRANCH  21  24
ATOM     24  C   UNK A   0       2.241   7.612  18.824  0.00  0.00    +0.000 A 
ATOM     25  C   UNK A   0       1.675   8.834  18.497  0.00  0.00    +0.000 A 
ATOM     26  C   UNK A   0       1.126   9.404  19.675  0.00  0.00    +0.000 A 
ATOM     27  C   UNK A   0       0.394  10.584  19.925  0.00  0.00    +0.000 A 
ATOM     28  C   UNK A   0      -0.021  10.867  21.229  0.00  0.00    +0.000 A 
ATOM     29  C   UNK A   0       0.289  10.001  22.274  0.00  0.00    +0.000 A 
ATOM     30  C   UNK A   0       1.010   8.819  22.048  0.00  0.00    +0.000 A 
ATOM     31  C   UNK A   0       1.409   8.544  20.728  0.00  0.00    +0.000 A 
ATOM     32  N   UNK A   0       2.081   7.465  20.192  0.00  0.00    +0.000 N 
ATOM     33  H   UNK A   0       2.390   6.650  20.706  0.00  0.00    +0.000 HD
ENDBRANCH  21  24
ENDBRANCH   6  20
TORSDOF 9
ENDMDL
MODEL 9
REMARK VINA RESULT:      -6.9      3.283      5.350
REMARK  Name = 
REMARK  10 active torsions:
REMARK  status: ('A' for Active; 'I' for Inactive)
REMARK    1  A    between atoms: CE_1  and  SD_2
REMARK    2  A    between atoms: SD_2  and  CG_3
REMARK    3  A    between atoms: CG_3  and  CB_4
REMARK    4  A    between atoms: CB_4  and  CA_5
REMARK    5  A    between atoms: CA_5  and  N_6
REMARK    6  A    between atoms: CA_5  and  C_27
REMARK    7  A    between atoms: C_7  and  C_9
REMARK    8  A    between atoms: C_14  and  N_15
REMARK    9  A    between atoms: C_16  and  C_18
REMARK   10  A    between atoms: C_27  and  OXT_29
REMARK                            x       y       z     vdW  Elec       q    Type
REMARK                         _______ _______ _______ _____ _____    ______ ____
ROOT
ATOM      1  C   UNK A   0       3.547   5.354  19.090  0.00  0.00    +0.000 A 
ATOM      2  C   UNK A   0       3.858   4.011  19.372  0.00  0.00    +0.000 A 
ATOM      3  C   UNK A   0       3.078   3.280  20.261  0.00  0.00    +0.000 A 
ATOM      4  C   UNK A   0       1.970   3.875  20.854  0.00  0.00    +0.000 A 
ATOM      5  C   UNK A   0       1.658   5.212  20.586  0.00  0.00    +0.000 A 
ATOM      6  C   UNK A   0       2.448   5.973  19.715  0.00  0.00    +0.000 A 
ENDROOT
BRANCH   1   8
ATOM      7  N   MET A   1       5.771   5.854  18.250  0.00  0.00    +0.000 N 
ATOM      8  C   UNK A   0       4.416   6.095  18.144  0.00  0.00    +0.000 C 
ATOM      9  O   UNK A   0       3.925   6.875  17.336  0.00  0.00    +0.000 OA
ATOM     10  H   MET A   1       6.154   5.342  19.039  0.00  0.00    +0.000 HD
BRANCH   7  11
ATOM     11  CA  MET A   1       6.720   6.462  17.329  0.00  0.00    +0.000 C 
BRANCH  11  12
ATOM     12  C   MET A   1       7.371   5.371  16.475  0.00  0.00    +0.000 C 
ATOM     13  O   MET A   1       7.912   4.373  16.933  0.00  0.00    +0.000 OA
BRANCH  12  14
ATOM     14  OXT MET A   1       7.324   5.624  15.145  0.00  0.00    +0.000 OA
ATOM     15  HXT MET A   1       7.879   6.385  14.869  0.00  0.00    +0.000 HD
ENDBRANCH  12  14
ENDBRANCH  11  12
BRANCH  11  16
ATOM     16  CB  MET A   1       7.781   7.258  18.099  0.00  0.00    +0.000 C 
BRANCH  16  17
ATOM     17  CG  MET A   1       7.878   8.740  17.728  0.00  0.00    +0.000 C 
BRANCH  17  19
ATOM     18  CE  MET A   1       9.109  11.209  18.051  0.00  0.00    +0.000 C 
ATOM     19  SD  MET A   1       8.942   9.634  18.910  0.00  0.00    +0.000 S 
ENDBRANCH  17  19
ENDBRANCH  16  17
ENDBRANCH  11  16
ENDBRANCH   7  11
ENDBRANCH   1   8
BRANCH   6  20
ATOM     20  N   UNK A   0       2.104   7.322  19.451  0.00  0.00    +0.000 N 
ATOM     21  C   UNK A   0       1.519   8.174  20.378  0.00  0.00    +0.000 C 
ATOM     22  O   UNK A   0       1.424   7.920  21.577  0.00  0.00    +0.000 OA
ATOM     23  H   UNK A   0       2.547   7.753  18.639  0.00  0.00    +0.000 HD
BRANCH  21  24
ATOM     24  C   UNK A   0       1.048   9.435  19.839  0.00  0.00    +0.000 A 
ATOM     25  C   UNK A   0      -0.234   9.951  19.753  0.00  0.00    +0.000 A 
ATOM     26  C   UNK A   0      -0.151  11.282  19.266  0.00  0.00    +0.000 A 
ATOM     27  C   UNK A   0      -1.113  12.288  19.037  0.00  0.00    +0.000 A 
ATOM     28  C   UNK A   0      -0.700  13.529  18.546  0.00  0.00    +0.000 A 
ATOM     29  C   UNK A   0       0.644  13.773  18.277  0.00  0.00    +0.000 A 
ATOM     30  C   UNK A   0       1.619  12.790  18.503  0.00  0.00    +0.000 A 
ATOM     31  C   UNK A   0       1.188  11.551  19.009  0.00  0.00    +0.000 A 
ATOM     32  N   UNK A   0       1.896  10.422  19.365  0.00  0.00    +0.000 N 
ATOM     33  H   UNK A   0       2.902  10.324  19.328  0.00  0.00    +0.000 HD
ENDBRANCH  21  24
ENDBRANCH   6  20
TORSDOF 9
ENDMDL
