MODEL 1
REMARK VINA RESULT:      -8.5      0.000      0.000
REMARK  Name = 
REMARK  5 active torsions:
REMARK  status: ('A' for Active; 'I' for Inactive)
REMARK    1  A    between atoms: C_2  and  C_3
REMARK    2  A    between atoms: C_3  and  N_4
REMARK    3  A    between atoms: C_5  and  C_6
REMARK    4  A    between atoms: N_18  and  C_19
REMARK    5  A    between atoms: C_22  and  C_23
REMARK                            x       y       z     vdW  Elec       q    Type
REMARK                         _______ _______ _______ _____ _____    ______ ____
ROOT
ATOM      1  C   UNL     1       3.097   6.176  17.632  0.00  0.00    +0.000 C 
ENDROOT
BRANCH   1   2
ATOM      2  N   UNL     1       4.280   5.670  18.305  0.00  0.00    +0.000 N 
ATOM      3  C   UNL     1       4.328   4.679  19.266  0.00  0.00    +0.000 A 
ATOM      4  N   UNL     1       5.552   4.552  19.745  0.00  0.00    +0.000 NA
ATOM      5  C   UNL     1       6.314   5.482  19.090  0.00  0.00    +0.000 A 
ATOM      6  C   UNL     1       7.676   5.781  19.240  0.00  0.00    +0.000 A 
ATOM      7  C   UNL     1       8.235   6.802  18.464  0.00  0.00    +0.000 A 
ATOM      8  C   UNL     1       7.455   7.507  17.546  0.00  0.00    +0.000 A 
ATOM      9  C   UNL     1       6.094   7.215  17.376  0.00  0.00    +0.000 A 
ATOM     10  C   UNL     1       5.551   6.197  18.172  0.00  0.00    +0.000 A 
BRANCH   3  11
ATOM     11  C   UNL     1       3.184   3.835  19.742  0.00  0.00    +0.000 A 
ATOM     12  C   UNL     1       2.549   4.069  20.945  0.00  0.00    +0.000 A 
ATOM     13  S   UNL     1       1.350   2.876  21.219  0.00  0.00    +0.000 S 
ATOM     14  C   UNL     1       1.761   2.155  19.718  0.00  0.00    +0.000 A 
ATOM     15  N   UNL     1       2.683   2.770  19.012  0.00  0.00    +0.000 NA
ENDBRANCH   3  11
ENDBRANCH   1   2
BRANCH   1  17
ATOM     16  O   UNL     1       2.642   8.543  17.598  0.00  0.00    +0.000 OA
ATOM     17  C   UNL     1       2.594   7.484  18.217  0.00  0.00    +0.000 C 
ATOM     18  N   UNL     1       2.090   7.361  19.511  0.00  0.00    +0.000 N 
ATOM     19  H   UNL     1       2.387   6.563  20.057  0.00  0.00    +0.000 HD
BRANCH  18  20
ATOM     20  C   UNL     1       1.440   8.397  20.220  0.00  0.00    +0.000 A 
ATOM     21  C   UNL     1       1.372   8.425  21.614  0.00  0.00    +0.000 A 
ATOM     22  C   UNL     1       0.646   9.419  22.275  0.00  0.00    +0.000 A 
ATOM     23  C   UNL     1      -0.026  10.410  21.550  0.00  0.00    +0.000 A 
ATOM     24  C   UNL     1       0.104  10.424  20.152  0.00  0.00    +0.000 A 
ATOM     25  C   UNL     1       0.845   9.433  19.493  0.00  0.00    +0.000 A 
BRANCH  23  26
ATOM     26  C   UNL     1      -0.894  11.423  22.253  0.00  0.00    +0.000 C 
ATOM     27  F   UNL     1      -1.373  10.994  23.455  0.00  0.00    +0.000 F 
ATOM     28  F   UNL     1      -0.239  12.589  22.508  0.00  0.00    +0.000 F 
ATOM     29  F   UNL     1      -1.990  11.765  21.519  0.00  0.00    +0.000 F 
ENDBRANCH  23  26
ENDBRANCH  18  20
ENDBRANCH   1  17
TORSDOF 5
ENDMDL
MODEL 2
REMARK VINA RESULT:      -8.5      0.690      1.057
REMARK  Name = 
REMARK  5 active torsions:
REMARK  status: ('A' for Active; 'I' for Inactive)
REMARK    1  A    between atoms: C_2  and  C_3
REMARK    2  A    between atoms: C_3  and  N_4
REMARK    3  A    between atoms: C_5  and  C_6
REMARK    4  A    between atoms: N_18  and  C_19
REMARK    5  A    between atoms: C_22  and  C_23
REMARK                            x       y       z     vdW  Elec       q    Type
REMARK                         _______ _______ _______ _____ _____    ______ ____
ROOT
ATOM      1  C   UNL     1       3.150   6.473  17.618  0.00  0.00    +0.000 C 
ENDROOT
BRANCH   1   2
ATOM      2  N   UNL     1       4.299   5.889  18.288  0.00  0.00    +0.000 N 
ATOM      3  C   UNL     1       4.286   4.879  19.229  0.00  0.00    +0.000 A 
ATOM      4  N   UNL     1       5.499   4.675  19.712  0.00  0.00    +0.000 NA
ATOM      5  C   UNL     1       6.314   5.574  19.079  0.00  0.00    +0.000 A 
ATOM      6  C   UNL     1       7.690   5.793  19.242  0.00  0.00    +0.000 A 
ATOM      7  C   UNL     1       8.310   6.797  18.488  0.00  0.00    +0.000 A 
ATOM      8  C   UNL     1       7.575   7.561  17.580  0.00  0.00    +0.000 A 
ATOM      9  C   UNL     1       6.202   7.349  17.398  0.00  0.00    +0.000 A 
ATOM     10  C   UNL     1       5.598   6.347  18.171  0.00  0.00    +0.000 A 
BRANCH   3  11
ATOM     11  C   UNL     1       3.094   4.091  19.683  0.00  0.00    +0.000 A 
ATOM     12  C   UNL     1       2.798   2.844  19.169  0.00  0.00    +0.000 A 
ATOM     13  S   UNL     1       1.331   2.265  19.839  0.00  0.00    +0.000 S 
ATOM     14  C   UNL     1       1.214   3.706  20.762  0.00  0.00    +0.000 A 
ATOM     15  N   UNL     1       2.212   4.553  20.645  0.00  0.00    +0.000 NA
ENDBRANCH   3  11
ENDBRANCH   1   2
BRANCH   1  17
ATOM     16  O   UNL     1       2.816   8.853  17.806  0.00  0.00    +0.000 OA
ATOM     17  C   UNL     1       2.649   7.738  18.293  0.00  0.00    +0.000 C 
ATOM     18  N   UNL     1       1.999   7.506  19.504  0.00  0.00    +0.000 N 
ATOM     19  H   UNL     1       2.194   6.638  19.983  0.00  0.00    +0.000 HD
BRANCH  18  20
ATOM     20  C   UNL     1       1.325   8.497  20.254  0.00  0.00    +0.000 A 
ATOM     21  C   UNL     1       1.307   8.500  21.650  0.00  0.00    +0.000 A 
ATOM     22  C   UNL     1       0.557   9.445  22.354  0.00  0.00    +0.000 A 
ATOM     23  C   UNL     1      -0.190  10.413  21.671  0.00  0.00    +0.000 A 
ATOM     24  C   UNL     1      -0.112  10.455  20.270  0.00  0.00    +0.000 A 
ATOM     25  C   UNL     1       0.652   9.513  19.567  0.00  0.00    +0.000 A 
BRANCH  23  26
ATOM     26  C   UNL     1      -1.081  11.370  22.423  0.00  0.00    +0.000 C 
ATOM     27  F   UNL     1      -0.438  12.494  22.851  0.00  0.00    +0.000 F 
ATOM     28  F   UNL     1      -2.133  11.805  21.676  0.00  0.00    +0.000 F 
ATOM     29  F   UNL     1      -1.623  10.805  23.538  0.00  0.00    +0.000 F 
ENDBRANCH  23  26
ENDBRANCH  18  20
ENDBRANCH   1  17
TORSDOF 5
ENDMDL
MODEL 3
REMARK VINA RESULT:      -8.3      1.831      2.194
REMARK  Name = 
REMARK  5 active torsions:
REMARK  status: ('A' for Active; 'I' for Inactive)
REMARK    1  A    between atoms: C_2  and  C_3
REMARK    2  A    between atoms: C_3  and  N_4
REMARK    3  A    between atoms: C_5  and  C_6
REMARK    4  A    between atoms: N_18  and  C_19
REMARK    5  A    between atoms: C_22  and  C_23
REMARK                            x       y       z     vdW  Elec       q    Type
REMARK                         _______ _______ _______ _____ _____    ______ ____
ROOT
ATOM      1  C   UNL     1       3.071   6.182  17.671  0.00  0.00    +0.000 C 
ENDROOT
BRANCH   1   2
ATOM      2  N   UNL     1       4.262   5.674  18.329  0.00  0.00    +0.000 N 
ATOM      3  C   UNL     1       4.323   4.678  19.283  0.00  0.00    +0.000 A 
ATOM      4  N   UNL     1       5.552   4.550  19.749  0.00  0.00    +0.000 NA
ATOM      5  C   UNL     1       6.305   5.485  19.091  0.00  0.00    +0.000 A 
ATOM      6  C   UNL     1       7.668   5.785  19.229  0.00  0.00    +0.000 A 
ATOM      7  C   UNL     1       8.217   6.813  18.452  0.00  0.00    +0.000 A 
ATOM      8  C   UNL     1       7.426   7.521  17.547  0.00  0.00    +0.000 A 
ATOM      9  C   UNL     1       6.064   7.228  17.390  0.00  0.00    +0.000 A 
ATOM     10  C   UNL     1       5.531   6.204  18.185  0.00  0.00    +0.000 A 
BRANCH   3  11
ATOM     11  C   UNL     1       3.184   3.829  19.766  0.00  0.00    +0.000 A 
ATOM     12  C   UNL     1       2.541   4.075  20.963  0.00  0.00    +0.000 A 
ATOM     13  S   UNL     1       1.354   2.872  21.249  0.00  0.00    +0.000 S 
ATOM     14  C   UNL     1       1.779   2.135  19.761  0.00  0.00    +0.000 A 
ATOM     15  N   UNL     1       2.698   2.748  19.050  0.00  0.00    +0.000 NA
ENDBRANCH   3  11
ENDBRANCH   1   2
BRANCH   1  17
ATOM     16  O   UNL     1       2.398   7.435  19.617  0.00  0.00    +0.000 OA
ATOM     17  C   UNL     1       2.454   7.367  18.393  0.00  0.00    +0.000 C 
ATOM     18  N   UNL     1       1.960   8.348  17.535  0.00  0.00    +0.000 N 
ATOM     19  H   UNL     1       1.743   8.077  16.586  0.00  0.00    +0.000 HD
BRANCH  18  20
ATOM     20  C   UNL     1       1.465   9.604  17.955  0.00  0.00    +0.000 A 
ATOM     21  C   UNL     1       2.290  10.716  18.130  0.00  0.00    +0.000 A 
ATOM     22  C   UNL     1       1.778  11.916  18.630  0.00  0.00    +0.000 A 
ATOM     23  C   UNL     1       0.423  12.027  18.963  0.00  0.00    +0.000 A 
ATOM     24  C   UNL     1      -0.420  10.932  18.717  0.00  0.00    +0.000 A 
ATOM     25  C   UNL     1       0.094   9.734  18.202  0.00  0.00    +0.000 A 
BRANCH  23  26
ATOM     26  C   UNL     1      -0.114  13.285  19.598  0.00  0.00    +0.000 C 
ATOM     27  F   UNL     1       0.325  14.430  19.001  0.00  0.00    +0.000 F 
ATOM     28  F   UNL     1      -1.474  13.349  19.570  0.00  0.00    +0.000 F 
ATOM     29  F   UNL     1       0.238  13.394  20.910  0.00  0.00    +0.000 F 
ENDBRANCH  23  26
ENDBRANCH  18  20
ENDBRANCH   1  17
TORSDOF 5
ENDMDL
MODEL 4
REMARK VINA RESULT:      -8.3      1.864      2.164
REMARK  Name = 
REMARK  5 active torsions:
REMARK  status: ('A' for Active; 'I' for Inactive)
REMARK    1  A    between atoms: C_2  and  C_3
REMARK    2  A    between atoms: C_3  and  N_4
REMARK    3  A    between atoms: C_5  and  C_6
REMARK    4  A    between atoms: N_18  and  C_19
REMARK    5  A    between atoms: C_22  and  C_23
REMARK                            x       y       z     vdW  Elec       q    Type
REMARK                         _______ _______ _______ _____ _____    ______ ____
ROOT
ATOM      1  C   UNL     1       3.064   6.254  17.696  0.00  0.00    +0.000 C 
ENDROOT
BRANCH   1   2
ATOM      2  N   UNL     1       4.259   5.721  18.327  0.00  0.00    +0.000 N 
ATOM      3  C   UNL     1       4.323   4.699  19.252  0.00  0.00    +0.000 A 
ATOM      4  N   UNL     1       5.557   4.550  19.701  0.00  0.00    +0.000 NA
ATOM      5  C   UNL     1       6.308   5.499  19.061  0.00  0.00    +0.000 A 
ATOM      6  C   UNL     1       7.675   5.787  19.192  0.00  0.00    +0.000 A 
ATOM      7  C   UNL     1       8.222   6.832  18.439  0.00  0.00    +0.000 A 
ATOM      8  C   UNL     1       7.426   7.570  17.562  0.00  0.00    +0.000 A 
ATOM      9  C   UNL     1       6.061   7.290  17.411  0.00  0.00    +0.000 A 
ATOM     10  C   UNL     1       5.529   6.247  18.183  0.00  0.00    +0.000 A 
BRANCH   3  11
ATOM     11  C   UNL     1       3.185   3.843  19.724  0.00  0.00    +0.000 A 
ATOM     12  C   UNL     1       2.562   4.054  20.938  0.00  0.00    +0.000 A 
ATOM     13  S   UNL     1       1.368   2.853  21.202  0.00  0.00    +0.000 S 
ATOM     14  C   UNL     1       1.766   2.162  19.684  0.00  0.00    +0.000 A 
ATOM     15  N   UNL     1       2.679   2.791  18.980  0.00  0.00    +0.000 NA
ENDBRANCH   3  11
ENDBRANCH   1   2
BRANCH   1  17
ATOM     16  O   UNL     1       2.361   7.385  19.706  0.00  0.00    +0.000 OA
ATOM     17  C   UNL     1       2.437   7.393  18.481  0.00  0.00    +0.000 C 
ATOM     18  N   UNL     1       1.958   8.427  17.678  0.00  0.00    +0.000 N 
ATOM     19  H   UNL     1       1.756   8.215  16.710  0.00  0.00    +0.000 HD
BRANCH  18  20
ATOM     20  C   UNL     1       1.458   9.656  18.167  0.00  0.00    +0.000 A 
ATOM     21  C   UNL     1       0.165   9.791  18.676  0.00  0.00    +0.000 A 
ATOM     22  C   UNL     1      -0.322  11.040  19.069  0.00  0.00    +0.000 A 
ATOM     23  C   UNL     1       0.480  12.182  18.962  0.00  0.00    +0.000 A 
ATOM     24  C   UNL     1       1.804  12.033  18.519  0.00  0.00    +0.000 A 
ATOM     25  C   UNL     1       2.294  10.776  18.139  0.00  0.00    +0.000 A 
BRANCH  23  26
ATOM     26  C   UNL     1      -0.075  13.546  19.288  0.00  0.00    +0.000 C 
ATOM     27  F   UNL     1      -1.405  13.539  19.589  0.00  0.00    +0.000 F 
ATOM     28  F   UNL     1       0.545  14.124  20.354  0.00  0.00    +0.000 F 
ATOM     29  F   UNL     1       0.066  14.423  18.254  0.00  0.00    +0.000 F 
ENDBRANCH  23  26
ENDBRANCH  18  20
ENDBRANCH   1  17
TORSDOF 5
ENDMDL
MODEL 5
REMARK VINA RESULT:      -8.2      0.377      1.200
REMARK  Name = 
REMARK  5 active torsions:
REMARK  status: ('A' for Active; 'I' for Inactive)
REMARK    1  A    between atoms: C_2  and  C_3
REMARK    2  A    between atoms: C_3  and  N_4
REMARK    3  A    between atoms: C_5  and  C_6
REMARK    4  A    between atoms: N_18  and  C_19
REMARK    5  A    between atoms: C_22  and  C_23
REMARK                            x       y       z     vdW  Elec       q    Type
REMARK                         _______ _______ _______ _____ _____    ______ ____
ROOT
ATOM      1  C   UNL     1       3.172   6.100  17.556  0.00  0.00    +0.000 C 
ENDROOT
BRANCH   1   2
ATOM      2  N   UNL     1       4.342   5.634  18.281  0.00  0.00    +0.000 N 
ATOM      3  C   UNL     1       4.375   4.675  19.273  0.00  0.00    +0.000 A 
ATOM      4  N   UNL     1       5.585   4.582  19.793  0.00  0.00    +0.000 NA
ATOM      5  C   UNL     1       6.353   5.502  19.132  0.00  0.00    +0.000 A 
ATOM      6  C   UNL     1       7.706   5.826  19.313  0.00  0.00    +0.000 A 
ATOM      7  C   UNL     1       8.273   6.831  18.521  0.00  0.00    +0.000 A 
ATOM      8  C   UNL     1       7.511   7.495  17.558  0.00  0.00    +0.000 A 
ATOM      9  C   UNL     1       6.161   7.177  17.357  0.00  0.00    +0.000 A 
ATOM     10  C   UNL     1       5.608   6.176  18.168  0.00  0.00    +0.000 A 
BRANCH   3  11
ATOM     11  C   UNL     1       3.228   3.829  19.742  0.00  0.00    +0.000 A 
ATOM     12  C   UNL     1       2.558   4.088  20.921  0.00  0.00    +0.000 A 
ATOM     13  S   UNL     1       1.367   2.887  21.195  0.00  0.00    +0.000 S 
ATOM     14  C   UNL     1       1.828   2.131  19.727  0.00  0.00    +0.000 A 
ATOM     15  N   UNL     1       2.761   2.738  19.029  0.00  0.00    +0.000 NA
ENDBRANCH   3  11
ENDBRANCH   1   2
BRANCH   1  17
ATOM     16  O   UNL     1       2.811   8.480  17.426  0.00  0.00    +0.000 OA
ATOM     17  C   UNL     1       2.658   7.439  18.058  0.00  0.00    +0.000 C 
ATOM     18  N   UNL     1       2.012   7.363  19.290  0.00  0.00    +0.000 N 
ATOM     19  H   UNL     1       2.219   6.569  19.881  0.00  0.00    +0.000 HD
BRANCH  18  20
ATOM     20  C   UNL     1       1.328   8.437  19.904  0.00  0.00    +0.000 A 
ATOM     21  C   UNL     1       0.716   9.455  19.170  0.00  0.00    +0.000 A 
ATOM     22  C   UNL     1       0.125  10.545  19.814  0.00  0.00    +0.000 A 
ATOM     23  C   UNL     1       0.132  10.636  21.211  0.00  0.00    +0.000 A 
ATOM     24  C   UNL     1       0.682   9.576  21.949  0.00  0.00    +0.000 A 
ATOM     25  C   UNL     1       1.262   8.477  21.301  0.00  0.00    +0.000 A 
BRANCH  23  26
ATOM     26  C   UNL     1      -0.413  11.858  21.906  0.00  0.00    +0.000 C 
ATOM     27  F   UNL     1      -1.548  12.352  21.335  0.00  0.00    +0.000 F 
ATOM     28  F   UNL     1      -0.724  11.625  23.211  0.00  0.00    +0.000 F 
ATOM     29  F   UNL     1       0.477  12.890  21.912  0.00  0.00    +0.000 F 
ENDBRANCH  23  26
ENDBRANCH  18  20
ENDBRANCH   1  17
TORSDOF 5
ENDMDL
MODEL 6
REMARK VINA RESULT:      -8.0      2.041      2.577
REMARK  Name = 
REMARK  5 active torsions:
REMARK  status: ('A' for Active; 'I' for Inactive)
REMARK    1  A    between atoms: C_2  and  C_3
REMARK    2  A    between atoms: C_3  and  N_4
REMARK    3  A    between atoms: C_5  and  C_6
REMARK    4  A    between atoms: N_18  and  C_19
REMARK    5  A    between atoms: C_22  and  C_23
REMARK                            x       y       z     vdW  Elec       q    Type
REMARK                         _______ _______ _______ _____ _____    ______ ____
ROOT
ATOM      1  C   UNL     1       2.822   6.216  17.735  0.00  0.00    +0.000 C 
ENDROOT
BRANCH   1   2
ATOM      2  N   UNL     1       4.030   5.647  18.306  0.00  0.00    +0.000 N 
ATOM      3  C   UNL     1       4.111   4.599  19.200  0.00  0.00    +0.000 A 
ATOM      4  N   UNL     1       5.357   4.419  19.599  0.00  0.00    +0.000 NA
ATOM      5  C   UNL     1       6.101   5.373  18.958  0.00  0.00    +0.000 A 
ATOM      6  C   UNL     1       7.476   5.636  19.046  0.00  0.00    +0.000 A 
ATOM      7  C   UNL     1       8.012   6.693  18.301  0.00  0.00    +0.000 A 
ATOM      8  C   UNL     1       7.197   7.467  17.475  0.00  0.00    +0.000 A 
ATOM      9  C   UNL     1       5.823   7.212  17.367  0.00  0.00    +0.000 A 
ATOM     10  C   UNL     1       5.303   6.157  18.130  0.00  0.00    +0.000 A 
BRANCH   3  11
ATOM     11  C   UNL     1       2.977   3.749  19.691  0.00  0.00    +0.000 A 
ATOM     12  C   UNL     1       2.356   2.816  18.884  0.00  0.00    +0.000 A 
ATOM     13  S   UNL     1       1.053   2.086  19.726  0.00  0.00    +0.000 S 
ATOM     14  C   UNL     1       1.427   3.054  21.091  0.00  0.00    +0.000 A 
ATOM     15  N   UNL     1       2.477   3.836  20.979  0.00  0.00    +0.000 NA
ENDBRANCH   3  11
ENDBRANCH   1   2
BRANCH   1  17
ATOM     16  O   UNL     1       2.351   7.529  19.701  0.00  0.00    +0.000 OA
ATOM     17  C   UNL     1       2.338   7.450  18.476  0.00  0.00    +0.000 C 
ATOM     18  N   UNL     1       1.880   8.463  17.636  0.00  0.00    +0.000 N 
ATOM     19  H   UNL     1       1.593   8.205  16.702  0.00  0.00    +0.000 HD
BRANCH  18  20
ATOM     20  C   UNL     1       1.508   9.757  18.069  0.00  0.00    +0.000 A 
ATOM     21  C   UNL     1       0.224  10.055  18.529  0.00  0.00    +0.000 A 
ATOM     22  C   UNL     1      -0.129  11.364  18.865  0.00  0.00    +0.000 A 
ATOM     23  C   UNL     1       0.801  12.404  18.750  0.00  0.00    +0.000 A 
ATOM     24  C   UNL     1       2.112  12.091  18.358  0.00  0.00    +0.000 A 
ATOM     25  C   UNL     1       2.468  10.774  18.035  0.00  0.00    +0.000 A 
BRANCH  23  26
ATOM     26  C   UNL     1       0.396  13.833  19.013  0.00  0.00    +0.000 C 
ATOM     27  F   UNL     1       1.402  14.732  18.819  0.00  0.00    +0.000 F 
ATOM     28  F   UNL     1      -0.629  14.243  18.217  0.00  0.00    +0.000 F 
ATOM     29  F   UNL     1      -0.028  14.023  20.295  0.00  0.00    +0.000 F 
ENDBRANCH  23  26
ENDBRANCH  18  20
ENDBRANCH   1  17
TORSDOF 5
ENDMDL
MODEL 7
REMARK VINA RESULT:      -7.8      2.047      4.161
REMARK  Name = 
REMARK  5 active torsions:
REMARK  status: ('A' for Active; 'I' for Inactive)
REMARK    1  A    between atoms: C_2  and  C_3
REMARK    2  A    between atoms: C_3  and  N_4
REMARK    3  A    between atoms: C_5  and  C_6
REMARK    4  A    between atoms: N_18  and  C_19
REMARK    5  A    between atoms: C_22  and  C_23
REMARK                            x       y       z     vdW  Elec       q    Type
REMARK                         _______ _______ _______ _____ _____    ______ ____
ROOT
ATOM      1  C   UNL     1       3.069   6.572  18.338  0.00  0.00    +0.000 C 
ENDROOT
BRANCH   1   2
ATOM      2  N   UNL     1       3.492   5.208  18.604  0.00  0.00    +0.000 N 
ATOM      3  C   UNL     1       4.789   4.746  18.705  0.00  0.00    +0.000 A 
ATOM      4  N   UNL     1       4.809   3.432  18.837  0.00  0.00    +0.000 NA
ATOM      5  C   UNL     1       3.500   3.030  18.815  0.00  0.00    +0.000 A 
ATOM      6  C   UNL     1       2.966   1.736  18.896  0.00  0.00    +0.000 A 
ATOM      7  C   UNL     1       1.578   1.570  18.829  0.00  0.00    +0.000 A 
ATOM      8  C   UNL     1       0.735   2.674  18.695  0.00  0.00    +0.000 A 
ATOM      9  C   UNL     1       1.251   3.975  18.622  0.00  0.00    +0.000 A 
ATOM     10  C   UNL     1       2.644   4.119  18.679  0.00  0.00    +0.000 A 
BRANCH   3  11
ATOM     11  C   UNL     1       6.040   5.573  18.671  0.00  0.00    +0.000 A 
ATOM     12  C   UNL     1       6.281   6.502  17.678  0.00  0.00    +0.000 A 
ATOM     13  S   UNL     1       7.830   7.202  17.892  0.00  0.00    +0.000 S 
ATOM     14  C   UNL     1       8.050   6.228  19.286  0.00  0.00    +0.000 A 
ATOM     15  N   UNL     1       7.035   5.466  19.628  0.00  0.00    +0.000 NA
ENDBRANCH   3  11
ENDBRANCH   1   2
BRANCH   1  17
ATOM     16  O   UNL     1       2.158   6.631  20.570  0.00  0.00    +0.000 OA
ATOM     17  C   UNL     1       2.261   7.175  19.474  0.00  0.00    +0.000 C 
ATOM     18  N   UNL     1       1.653   8.386  19.146  0.00  0.00    +0.000 N 
ATOM     19  H   UNL     1       1.507   8.588  18.167  0.00  0.00    +0.000 HD
BRANCH  18  20
ATOM     20  C   UNL     1       0.964   9.211  20.064  0.00  0.00    +0.000 A 
ATOM     21  C   UNL     1       0.525   8.750  21.307  0.00  0.00    +0.000 A 
ATOM     22  C   UNL     1      -0.229   9.570  22.149  0.00  0.00    +0.000 A 
ATOM     23  C   UNL     1      -0.556  10.876  21.764  0.00  0.00    +0.000 A 
ATOM     24  C   UNL     1      -0.051  11.363  20.548  0.00  0.00    +0.000 A 
ATOM     25  C   UNL     1       0.716  10.542  19.711  0.00  0.00    +0.000 A 
BRANCH  23  26
ATOM     26  C   UNL     1      -1.454  11.730  22.624  0.00  0.00    +0.000 C 
ATOM     27  F   UNL     1      -2.455  12.343  21.930  0.00  0.00    +0.000 F 
ATOM     28  F   UNL     1      -2.066  11.020  23.611  0.00  0.00    +0.000 F 
ATOM     29  F   UNL     1      -0.772  12.731  23.250  0.00  0.00    +0.000 F 
ENDBRANCH  23  26
ENDBRANCH  18  20
ENDBRANCH   1  17
TORSDOF 5
ENDMDL
MODEL 8
REMARK VINA RESULT:      -7.7      2.746      4.651
REMARK  Name = 
REMARK  5 active torsions:
REMARK  status: ('A' for Active; 'I' for Inactive)
REMARK    1  A    between atoms: C_2  and  C_3
REMARK    2  A    between atoms: C_3  and  N_4
REMARK    3  A    between atoms: C_5  and  C_6
REMARK    4  A    between atoms: N_18  and  C_19
REMARK    5  A    between atoms: C_22  and  C_23
REMARK                            x       y       z     vdW  Elec       q    Type
REMARK                         _______ _______ _______ _____ _____    ______ ____
ROOT
ATOM      1  C   UNL     1       2.584   5.911  17.835  0.00  0.00    +0.000 C 
ENDROOT
BRANCH   1   2
ATOM      2  N   UNL     1       3.240   4.927  18.678  0.00  0.00    +0.000 N 
ATOM      3  C   UNL     1       4.537   4.470  18.564  0.00  0.00    +0.000 A 
ATOM      4  N   UNL     1       4.766   3.493  19.423  0.00  0.00    +0.000 NA
ATOM      5  C   UNL     1       3.594   3.305  20.104  0.00  0.00    +0.000 A 
ATOM      6  C   UNL     1       3.288   2.376  21.109  0.00  0.00    +0.000 A 
ATOM      7  C   UNL     1       1.996   2.360  21.647  0.00  0.00    +0.000 A 
ATOM      8  C   UNL     1       1.028   3.261  21.200  0.00  0.00    +0.000 A 
ATOM      9  C   UNL     1       1.318   4.202  20.204  0.00  0.00    +0.000 A 
ATOM     10  C   UNL     1       2.615   4.194  19.669  0.00  0.00    +0.000 A 
BRANCH   3  11
ATOM     11  C   UNL     1       5.585   4.971  17.614  0.00  0.00    +0.000 A 
ATOM     12  C   UNL     1       5.897   4.303  16.447  0.00  0.00    +0.000 A 
ATOM     13  S   UNL     1       7.188   5.096  15.645  0.00  0.00    +0.000 S 
ATOM     14  C   UNL     1       7.218   6.263  16.901  0.00  0.00    +0.000 A 
ATOM     15  N   UNL     1       6.305   6.132  17.837  0.00  0.00    +0.000 NA
ENDBRANCH   3  11
ENDBRANCH   1   2
BRANCH   1  17
ATOM     16  O   UNL     1       2.583   7.390  19.739  0.00  0.00    +0.000 OA
ATOM     17  C   UNL     1       2.304   7.219  18.556  0.00  0.00    +0.000 C 
ATOM     18  N   UNL     1       1.703   8.184  17.750  0.00  0.00    +0.000 N 
ATOM     19  H   UNL     1       1.214   7.867  16.923  0.00  0.00    +0.000 HD
BRANCH  18  20
ATOM     20  C   UNL     1       1.467   9.521  18.142  0.00  0.00    +0.000 A 
ATOM     21  C   UNL     1       0.278   9.928  18.750  0.00  0.00    +0.000 A 
ATOM     22  C   UNL     1       0.048  11.274  19.043  0.00  0.00    +0.000 A 
ATOM     23  C   UNL     1       1.010  12.244  18.734  0.00  0.00    +0.000 A 
ATOM     24  C   UNL     1       2.235  11.825  18.190  0.00  0.00    +0.000 A 
ATOM     25  C   UNL     1       2.468  10.471  17.911  0.00  0.00    +0.000 A 
BRANCH  23  26
ATOM     26  C   UNL     1       0.725  13.709  18.953  0.00  0.00    +0.000 C 
ATOM     27  F   UNL     1      -0.470  14.117  18.440  0.00  0.00    +0.000 F 
ATOM     28  F   UNL     1       0.698  14.046  20.272  0.00  0.00    +0.000 F 
ATOM     29  F   UNL     1       1.667  14.511  18.382  0.00  0.00    +0.000 F 
ENDBRANCH  23  26
ENDBRANCH  18  20
ENDBRANCH   1  17
TORSDOF 5
ENDMDL
MODEL 9
REMARK VINA RESULT:      -7.7      4.993      8.637
REMARK  Name = 
REMARK  5 active torsions:
REMARK  status: ('A' for Active; 'I' for Inactive)
REMARK    1  A    between atoms: C_2  and  C_3
REMARK    2  A    between atoms: C_3  and  N_4
REMARK    3  A    between atoms: C_5  and  C_6
REMARK    4  A    between atoms: N_18  and  C_19
REMARK    5  A    between atoms: C_22  and  C_23
REMARK                            x       y       z     vdW  Elec       q    Type
REMARK                         _______ _______ _______ _____ _____    ______ ____
ROOT
ATOM      1  C   UNL     1       1.538  10.430  18.302  0.00  0.00    +0.000 C 
ENDROOT
BRANCH   1   2
ATOM      2  N   UNL     1       0.368  11.256  18.539  0.00  0.00    +0.000 N 
ATOM      3  C   UNL     1       0.324  12.458  19.217  0.00  0.00    +0.000 A 
ATOM      4  N   UNL     1      -0.922  12.878  19.344  0.00  0.00    +0.000 NA
ATOM      5  C   UNL     1      -1.704  11.929  18.743  0.00  0.00    +0.000 A 
ATOM      6  C   UNL     1      -3.101  11.877  18.618  0.00  0.00    +0.000 A 
ATOM      7  C   UNL     1      -3.682  10.780  17.972  0.00  0.00    +0.000 A 
ATOM      8  C   UNL     1      -2.888   9.758  17.450  0.00  0.00    +0.000 A 
ATOM      9  C   UNL     1      -1.491   9.799  17.557  0.00  0.00    +0.000 A 
ATOM     10  C   UNL     1      -0.929  10.900  18.218  0.00  0.00    +0.000 A 
BRANCH   3  11
ATOM     11  C   UNL     1       1.492  13.224  19.761  0.00  0.00    +0.000 A 
ATOM     12  C   UNL     1       2.162  14.172  19.013  0.00  0.00    +0.000 A 
ATOM     13  S   UNL     1       3.491  14.790  19.901  0.00  0.00    +0.000 S 
ATOM     14  C   UNL     1       3.063  13.763  21.206  0.00  0.00    +0.000 A 
ATOM     15  N   UNL     1       1.978  13.040  21.045  0.00  0.00    +0.000 NA
ENDBRANCH   3  11
ENDBRANCH   1   2
BRANCH   1  17
ATOM     16  O   UNL     1       0.990   9.051  20.202  0.00  0.00    +0.000 OA
ATOM     17  C   UNL     1       1.525   9.138  19.101  0.00  0.00    +0.000 C 
ATOM     18  N   UNL     1       2.178   8.082  18.467  0.00  0.00    +0.000 N 
ATOM     19  H   UNL     1       2.858   8.311  17.755  0.00  0.00    +0.000 HD
BRANCH  18  20
ATOM     20  C   UNL     1       2.186   6.749  18.935  0.00  0.00    +0.000 A 
ATOM     21  C   UNL     1       2.246   5.651  18.075  0.00  0.00    +0.000 A 
ATOM     22  C   UNL     1       2.164   4.348  18.571  0.00  0.00    +0.000 A 
ATOM     23  C   UNL     1       2.023   4.117  19.945  0.00  0.00    +0.000 A 
ATOM     24  C   UNL     1       2.038   5.218  20.815  0.00  0.00    +0.000 A 
ATOM     25  C   UNL     1       2.135   6.524  20.315  0.00  0.00    +0.000 A 
BRANCH  23  26
ATOM     26  C   UNL     1       1.832   2.718  20.475  0.00  0.00    +0.000 C 
ATOM     27  F   UNL     1       0.886   2.628  21.454  0.00  0.00    +0.000 F 
ATOM     28  F   UNL     1       1.452   1.838  19.509  0.00  0.00    +0.000 F 
ATOM     29  F   UNL     1       2.974   2.209  21.017  0.00  0.00    +0.000 F 
ENDBRANCH  23  26
ENDBRANCH  18  20
ENDBRANCH   1  17
TORSDOF 5
ENDMDL
