MODEL 1
REMARK VINA RESULT:      -8.9      0.000      0.000
REMARK  Name = 
REMARK  4 active torsions:
REMARK  status: ('A' for Active; 'I' for Inactive)
REMARK    1  A    between atoms: C_1  and  C_2
REMARK    2  A    between atoms: C_5  and  C_6
REMARK    3  A    between atoms: C_8  and  C_9
REMARK    4  A    between atoms: N_11  and  N_12
REMARK                            x       y       z     vdW  Elec       q    Type
REMARK                         _______ _______ _______ _____ _____    ______ ____
ROOT
ATOM      1  C   UNL     1       5.131   4.652  16.301  0.00  0.00    +0.000 A 
ATOM      2  C   UNL     1       5.797   5.490  17.215  0.00  0.00    +0.000 A 
ATOM      3  C   UNL     1       6.991   6.083  16.845  0.00  0.00    +0.000 A 
ATOM      4  N   UNL     1       7.576   5.912  15.636  0.00  0.00    +0.000 NA
ATOM      5  C   UNL     1       6.946   5.120  14.750  0.00  0.00    +0.000 A 
ATOM      6  C   UNL     1       7.537   4.952  13.502  0.00  0.00    +0.000 A 
ATOM      7  C   UNL     1       6.971   4.151  12.512  0.00  0.00    +0.000 A 
ATOM      8  C   UNL     1       5.779   3.488  12.764  0.00  0.00    +0.000 A 
ATOM      9  C   UNL     1       5.162   3.641  14.006  0.00  0.00    +0.000 A 
ATOM     10  C   UNL     1       5.722   4.454  15.022  0.00  0.00    +0.000 A 
ENDROOT
BRANCH   1  15
ATOM     11  C   UNL     1       0.720   2.538  19.495  0.00  0.00    +0.000 C 
ATOM     12  C   UNL     1       1.997   3.148  18.921  0.00  0.00    +0.000 C 
ATOM     13  C   UNL     1       2.754   2.116  18.078  0.00  0.00    +0.000 C 
ATOM     14  C   UNL     1       4.039   2.695  17.497  0.00  0.00    +0.000 C 
ATOM     15  C   UNL     1       3.809   4.014  16.732  0.00  0.00    +0.000 C 
ATOM     16  C   UNL     1       2.937   5.023  17.503  0.00  0.00    +0.000 C 
ATOM     17  C   UNL     1       1.674   4.387  18.082  0.00  0.00    +0.000 C 
ENDBRANCH   1  15
BRANCH   3  18
ATOM     18  C   UNL     1       7.678   7.004  17.811  0.00  0.00    +0.000 C 
ATOM     19  O   UNL     1       8.108   6.609  18.893  0.00  0.00    +0.000 OA
ATOM     20  N   UNL     1       7.768   8.326  17.390  0.00  0.00    +0.000 N 
ATOM     21  H   UNL     1       7.489   8.548  16.434  0.00  0.00    +0.000 HD
BRANCH  20  22
ATOM     22  N   UNL     1       8.403   9.285  18.208  0.00  0.00    +0.000 NA
ATOM     23  H   UNL     1       8.365   8.922  19.172  0.00  0.00    +0.000 HD
ATOM     24  H   UNL     1       7.812  10.119  18.233  0.00  0.00    +0.000 HD
ENDBRANCH  20  22
ENDBRANCH   3  18
TORSDOF 3
ENDMDL
MODEL 2
REMARK VINA RESULT:      -8.4      3.009      5.257
REMARK  Name = 
REMARK  4 active torsions:
REMARK  status: ('A' for Active; 'I' for Inactive)
REMARK    1  A    between atoms: C_1  and  C_2
REMARK    2  A    between atoms: C_5  and  C_6
REMARK    3  A    between atoms: C_8  and  C_9
REMARK    4  A    between atoms: N_11  and  N_12
REMARK                            x       y       z     vdW  Elec       q    Type
REMARK                         _______ _______ _______ _____ _____    ______ ____
ROOT
ATOM      1  C   UNL     1       2.919   6.080  18.052  0.00  0.00    +0.000 A 
ATOM      2  C   UNL     1       4.123   6.490  17.450  0.00  0.00    +0.000 A 
ATOM      3  C   UNL     1       5.027   5.534  17.019  0.00  0.00    +0.000 A 
ATOM      4  N   UNL     1       4.826   4.200  17.137  0.00  0.00    +0.000 NA
ATOM      5  C   UNL     1       3.676   3.794  17.703  0.00  0.00    +0.000 A 
ATOM      6  C   UNL     1       3.461   2.424  17.815  0.00  0.00    +0.000 A 
ATOM      7  C   UNL     1       2.306   1.895  18.387  0.00  0.00    +0.000 A 
ATOM      8  C   UNL     1       1.328   2.750  18.872  0.00  0.00    +0.000 A 
ATOM      9  C   UNL     1       1.515   4.129  18.771  0.00  0.00    +0.000 A 
ATOM     10  C   UNL     1       2.681   4.684  18.189  0.00  0.00    +0.000 A 
ENDROOT
BRANCH   1  15
ATOM     11  C   UNL     1       0.610  11.025  20.136  0.00  0.00    +0.000 C 
ATOM     12  C   UNL     1       1.472   9.863  19.646  0.00  0.00    +0.000 C 
ATOM     13  C   UNL     1       1.210   8.609  20.486  0.00  0.00    +0.000 C 
ATOM     14  C   UNL     1       2.064   7.432  20.024  0.00  0.00    +0.000 C 
ATOM     15  C   UNL     1       1.935   7.156  18.514  0.00  0.00    +0.000 C 
ATOM     16  C   UNL     1       2.062   8.424  17.648  0.00  0.00    +0.000 C 
ATOM     17  C   UNL     1       1.204   9.578  18.165  0.00  0.00    +0.000 C 
ENDBRANCH   1  15
BRANCH   3  18
ATOM     18  C   UNL     1       6.292   5.978  16.346  0.00  0.00    +0.000 C 
ATOM     19  O   UNL     1       6.937   6.945  16.745  0.00  0.00    +0.000 OA
ATOM     20  N   UNL     1       6.656   5.223  15.238  0.00  0.00    +0.000 N 
ATOM     21  H   UNL     1       6.131   4.370  15.041  0.00  0.00    +0.000 HD
BRANCH  20  22
ATOM     22  N   UNL     1       7.835   5.536  14.526  0.00  0.00    +0.000 NA
ATOM     23  H   UNL     1       8.204   6.407  14.936  0.00  0.00    +0.000 HD
ATOM     24  H   UNL     1       7.568   5.802  13.576  0.00  0.00    +0.000 HD
ENDBRANCH  20  22
ENDBRANCH   3  18
TORSDOF 3
ENDMDL
MODEL 3
REMARK VINA RESULT:      -8.3      3.245      5.957
REMARK  Name = 
REMARK  4 active torsions:
REMARK  status: ('A' for Active; 'I' for Inactive)
REMARK    1  A    between atoms: C_1  and  C_2
REMARK    2  A    between atoms: C_5  and  C_6
REMARK    3  A    between atoms: C_8  and  C_9
REMARK    4  A    between atoms: N_11  and  N_12
REMARK                            x       y       z     vdW  Elec       q    Type
REMARK                         _______ _______ _______ _____ _____    ______ ____
ROOT
ATOM      1  C   UNL     1       3.127   5.873  19.035  0.00  0.00    +0.000 A 
ATOM      2  C   UNL     1       4.355   5.935  18.349  0.00  0.00    +0.000 A 
ATOM      3  C   UNL     1       5.251   4.887  18.465  0.00  0.00    +0.000 A 
ATOM      4  N   UNL     1       5.023   3.778  19.207  0.00  0.00    +0.000 NA
ATOM      5  C   UNL     1       3.851   3.701  19.861  0.00  0.00    +0.000 A 
ATOM      6  C   UNL     1       3.607   2.558  20.615  0.00  0.00    +0.000 A 
ATOM      7  C   UNL     1       2.426   2.377  21.334  0.00  0.00    +0.000 A 
ATOM      8  C   UNL     1       1.452   3.364  21.312  0.00  0.00    +0.000 A 
ATOM      9  C   UNL     1       1.668   4.520  20.562  0.00  0.00    +0.000 A 
ATOM     10  C   UNL     1       2.860   4.718  19.823  0.00  0.00    +0.000 A 
ENDROOT
BRANCH   1  15
ATOM     11  C   UNL     1       0.779  11.220  18.932  0.00  0.00    +0.000 C 
ATOM     12  C   UNL     1       1.637   9.962  19.045  0.00  0.00    +0.000 C 
ATOM     13  C   UNL     1       1.055   9.007  20.092  0.00  0.00    +0.000 C 
ATOM     14  C   UNL     1       1.896   7.743  20.233  0.00  0.00    +0.000 C 
ATOM     15  C   UNL     1       2.152   7.041  18.885  0.00  0.00    +0.000 C 
ATOM     16  C   UNL     1       2.614   8.003  17.773  0.00  0.00    +0.000 C 
ATOM     17  C   UNL     1       1.751   9.261  17.688  0.00  0.00    +0.000 C 
ENDBRANCH   1  15
BRANCH   3  18
ATOM     18  C   UNL     1       6.543   4.944  17.702  0.00  0.00    +0.000 C 
ATOM     19  O   UNL     1       7.616   4.634  18.215  0.00  0.00    +0.000 OA
ATOM     20  N   UNL     1       6.424   5.389  16.391  0.00  0.00    +0.000 N 
ATOM     21  H   UNL     1       5.487   5.517  16.008  0.00  0.00    +0.000 HD
BRANCH  20  22
ATOM     22  N   UNL     1       7.568   5.475  15.568  0.00  0.00    +0.000 NA
ATOM     23  H   UNL     1       7.231   5.480  14.594  0.00  0.00    +0.000 HD
ATOM     24  H   UNL     1       8.081   4.594  15.649  0.00  0.00    +0.000 HD
ENDBRANCH  20  22
ENDBRANCH   3  18
TORSDOF 3
ENDMDL
MODEL 4
REMARK VINA RESULT:      -8.2      3.066      4.938
REMARK  Name = 
REMARK  4 active torsions:
REMARK  status: ('A' for Active; 'I' for Inactive)
REMARK    1  A    between atoms: C_1  and  C_2
REMARK    2  A    between atoms: C_5  and  C_6
REMARK    3  A    between atoms: C_8  and  C_9
REMARK    4  A    between atoms: N_11  and  N_12
REMARK                            x       y       z     vdW  Elec       q    Type
REMARK                         _______ _______ _______ _____ _____    ______ ____
ROOT
ATOM      1  C   UNL     1       3.036   6.337  18.100  0.00  0.00    +0.000 A 
ATOM      2  C   UNL     1       4.295   6.851  17.737  0.00  0.00    +0.000 A 
ATOM      3  C   UNL     1       5.294   5.981  17.335  0.00  0.00    +0.000 A 
ATOM      4  N   UNL     1       5.139   4.638  17.262  0.00  0.00    +0.000 NA
ATOM      5  C   UNL     1       3.939   4.134  17.597  0.00  0.00    +0.000 A 
ATOM      6  C   UNL     1       3.772   2.755  17.512  0.00  0.00    +0.000 A 
ATOM      7  C   UNL     1       2.570   2.128  17.839  0.00  0.00    +0.000 A 
ATOM      8  C   UNL     1       1.495   2.889  18.271  0.00  0.00    +0.000 A 
ATOM      9  C   UNL     1       1.633   4.275  18.364  0.00  0.00    +0.000 A 
ATOM     10  C   UNL     1       2.845   4.929  18.032  0.00  0.00    +0.000 A 
ENDROOT
BRANCH   1  15
ATOM     11  C   UNL     1       0.243  11.035  20.159  0.00  0.00    +0.000 C 
ATOM     12  C   UNL     1       1.217   9.957  19.689  0.00  0.00    +0.000 C 
ATOM     13  C   UNL     1       1.022   8.669  20.496  0.00  0.00    +0.000 C 
ATOM     14  C   UNL     1       1.988   7.575  20.053  0.00  0.00    +0.000 C 
ATOM     15  C   UNL     1       1.948   7.320  18.534  0.00  0.00    +0.000 C 
ATOM     16  C   UNL     1       2.009   8.612  17.696  0.00  0.00    +0.000 C 
ATOM     17  C   UNL     1       1.038   9.682  18.193  0.00  0.00    +0.000 C 
ENDBRANCH   1  15
BRANCH   3  18
ATOM     18  C   UNL     1       6.622   6.540  16.914  0.00  0.00    +0.000 C 
ATOM     19  O   UNL     1       7.364   5.940  16.139  0.00  0.00    +0.000 OA
ATOM     20  N   UNL     1       6.943   7.766  17.484  0.00  0.00    +0.000 N 
ATOM     21  H   UNL     1       6.225   8.249  18.026  0.00  0.00    +0.000 HD
BRANCH  20  22
ATOM     22  N   UNL     1       8.162   8.399  17.156  0.00  0.00    +0.000 NA
ATOM     23  H   UNL     1       8.648   8.579  18.046  0.00  0.00    +0.000 HD
ATOM     24  H   UNL     1       7.945   9.332  16.797  0.00  0.00    +0.000 HD
ENDBRANCH  20  22
ENDBRANCH   3  18
TORSDOF 3
ENDMDL
MODEL 5
REMARK VINA RESULT:      -8.1      2.863      5.201
REMARK  Name = 
REMARK  4 active torsions:
REMARK  status: ('A' for Active; 'I' for Inactive)
REMARK    1  A    between atoms: C_1  and  C_2
REMARK    2  A    between atoms: C_5  and  C_6
REMARK    3  A    between atoms: C_8  and  C_9
REMARK    4  A    between atoms: N_11  and  N_12
REMARK                            x       y       z     vdW  Elec       q    Type
REMARK                         _______ _______ _______ _____ _____    ______ ____
ROOT
ATOM      1  C   UNL     1       3.662   6.002  18.074  0.00  0.00    +0.000 A 
ATOM      2  C   UNL     1       4.906   6.011  17.417  0.00  0.00    +0.000 A 
ATOM      3  C   UNL     1       5.411   4.829  16.904  0.00  0.00    +0.000 A 
ATOM      4  N   UNL     1       4.775   3.637  16.990  0.00  0.00    +0.000 NA
ATOM      5  C   UNL     1       3.581   3.616  17.608  0.00  0.00    +0.000 A 
ATOM      6  C   UNL     1       2.919   2.395  17.688  0.00  0.00    +0.000 A 
ATOM      7  C   UNL     1       1.678   2.260  18.309  0.00  0.00    +0.000 A 
ATOM      8  C   UNL     1       1.072   3.369  18.877  0.00  0.00    +0.000 A 
ATOM      9  C   UNL     1       1.711   4.607  18.810  0.00  0.00    +0.000 A 
ATOM     10  C   UNL     1       2.970   4.764  18.179  0.00  0.00    +0.000 A 
ENDROOT
BRANCH   1  15
ATOM     11  C   UNL     1       0.118  10.322  19.779  0.00  0.00    +0.000 C 
ATOM     12  C   UNL     1       0.795   9.057  19.255  0.00  0.00    +0.000 C 
ATOM     13  C   UNL     1       1.725   9.392  18.084  0.00  0.00    +0.000 C 
ATOM     14  C   UNL     1       2.410   8.145  17.534  0.00  0.00    +0.000 C 
ATOM     15  C   UNL     1       3.123   7.323  18.626  0.00  0.00    +0.000 C 
ATOM     16  C   UNL     1       2.254   7.083  19.875  0.00  0.00    +0.000 C 
ATOM     17  C   UNL     1       1.574   8.359  20.373  0.00  0.00    +0.000 C 
ENDBRANCH   1  15
BRANCH   3  18
ATOM     18  C   UNL     1       6.722   4.853  16.172  0.00  0.00    +0.000 C 
ATOM     19  O   UNL     1       7.752   4.403  16.669  0.00  0.00    +0.000 OA
ATOM     20  N   UNL     1       6.673   5.435  14.911  0.00  0.00    +0.000 N 
ATOM     21  H   UNL     1       5.759   5.680  14.528  0.00  0.00    +0.000 HD
BRANCH  20  22
ATOM     22  N   UNL     1       7.841   5.506  14.121  0.00  0.00    +0.000 NA
ATOM     23  H   UNL     1       7.530   5.577  13.141  0.00  0.00    +0.000 HD
ATOM     24  H   UNL     1       8.308   4.597  14.168  0.00  0.00    +0.000 HD
ENDBRANCH  20  22
ENDBRANCH   3  18
TORSDOF 3
ENDMDL
MODEL 6
REMARK VINA RESULT:      -8.1      1.456      1.464
REMARK  Name = 
REMARK  4 active torsions:
REMARK  status: ('A' for Active; 'I' for Inactive)
REMARK    1  A    between atoms: C_1  and  C_2
REMARK    2  A    between atoms: C_5  and  C_6
REMARK    3  A    between atoms: C_8  and  C_9
REMARK    4  A    between atoms: N_11  and  N_12
REMARK                            x       y       z     vdW  Elec       q    Type
REMARK                         _______ _______ _______ _____ _____    ______ ____
ROOT
ATOM      1  C   UNL     1       5.063   4.247  16.625  0.00  0.00    +0.000 A 
ATOM      2  C   UNL     1       5.767   4.783  17.720  0.00  0.00    +0.000 A 
ATOM      3  C   UNL     1       7.017   5.340  17.516  0.00  0.00    +0.000 A 
ATOM      4  N   UNL     1       7.623   5.411  16.307  0.00  0.00    +0.000 NA
ATOM      5  C   UNL     1       6.958   4.910  15.251  0.00  0.00    +0.000 A 
ATOM      6  C   UNL     1       7.572   4.992  14.006  0.00  0.00    +0.000 A 
ATOM      7  C   UNL     1       6.974   4.502  12.846  0.00  0.00    +0.000 A 
ATOM      8  C   UNL     1       5.725   3.905  12.919  0.00  0.00    +0.000 A 
ATOM      9  C   UNL     1       5.083   3.812  14.155  0.00  0.00    +0.000 A 
ATOM     10  C   UNL     1       5.675   4.308  15.342  0.00  0.00    +0.000 A 
ENDROOT
BRANCH   1  15
ATOM     11  C   UNL     1       0.210   2.266  19.202  0.00  0.00    +0.000 C 
ATOM     12  C   UNL     1       1.567   2.842  18.803  0.00  0.00    +0.000 C 
ATOM     13  C   UNL     1       2.407   1.784  18.081  0.00  0.00    +0.000 C 
ATOM     14  C   UNL     1       3.773   2.329  17.677  0.00  0.00    +0.000 C 
ATOM     15  C   UNL     1       3.680   3.643  16.877  0.00  0.00    +0.000 C 
ATOM     16  C   UNL     1       2.735   4.680  17.513  0.00  0.00    +0.000 C 
ATOM     17  C   UNL     1       1.390   4.079  17.918  0.00  0.00    +0.000 C 
ENDBRANCH   1  15
BRANCH   3  18
ATOM     18  C   UNL     1       7.746   5.942  18.682  0.00  0.00    +0.000 C 
ATOM     19  O   UNL     1       8.302   7.036  18.607  0.00  0.00    +0.000 OA
ATOM     20  N   UNL     1       7.752   5.159  19.830  0.00  0.00    +0.000 N 
ATOM     21  H   UNL     1       7.172   4.320  19.845  0.00  0.00    +0.000 HD
BRANCH  20  22
ATOM     22  N   UNL     1       8.396   5.624  20.998  0.00  0.00    +0.000 NA
ATOM     23  H   UNL     1       9.373   5.822  20.736  0.00  0.00    +0.000 HD
ATOM     24  H   UNL     1       8.467   4.840  21.651  0.00  0.00    +0.000 HD
ENDBRANCH  20  22
ENDBRANCH   3  18
TORSDOF 3
ENDMDL
MODEL 7
REMARK VINA RESULT:      -8.0      3.382      5.766
REMARK  Name = 
REMARK  4 active torsions:
REMARK  status: ('A' for Active; 'I' for Inactive)
REMARK    1  A    between atoms: C_1  and  C_2
REMARK    2  A    between atoms: C_5  and  C_6
REMARK    3  A    between atoms: C_8  and  C_9
REMARK    4  A    between atoms: N_11  and  N_12
REMARK                            x       y       z     vdW  Elec       q    Type
REMARK                         _______ _______ _______ _____ _____    ______ ____
ROOT
ATOM      1  C   UNL     1       3.011   6.413  18.697  0.00  0.00    +0.000 A 
ATOM      2  C   UNL     1       4.081   6.730  17.839  0.00  0.00    +0.000 A 
ATOM      3  C   UNL     1       5.107   5.817  17.669  0.00  0.00    +0.000 A 
ATOM      4  N   UNL     1       5.153   4.610  18.282  0.00  0.00    +0.000 NA
ATOM      5  C   UNL     1       4.132   4.291  19.097  0.00  0.00    +0.000 A 
ATOM      6  C   UNL     1       4.169   3.048  19.719  0.00  0.00    +0.000 A 
ATOM      7  C   UNL     1       3.165   2.618  20.585  0.00  0.00    +0.000 A 
ATOM      8  C   UNL     1       2.087   3.448  20.852  0.00  0.00    +0.000 A 
ATOM      9  C   UNL     1       2.022   4.700  20.240  0.00  0.00    +0.000 A 
ATOM     10  C   UNL     1       3.031   5.151  19.354  0.00  0.00    +0.000 A 
ENDROOT
BRANCH   1  15
ATOM     11  C   UNL     1       0.039  11.356  19.619  0.00  0.00    +0.000 C 
ATOM     12  C   UNL     1       1.053  10.230  19.430  0.00  0.00    +0.000 C 
ATOM     13  C   UNL     1       0.821   9.121  20.461  0.00  0.00    +0.000 C 
ATOM     14  C   UNL     1       1.826   7.984  20.302  0.00  0.00    +0.000 C 
ATOM     15  C   UNL     1       1.886   7.437  18.862  0.00  0.00    +0.000 C 
ATOM     16  C   UNL     1       1.987   8.541  17.792  0.00  0.00    +0.000 C 
ATOM     17  C   UNL     1       0.973   9.664  18.010  0.00  0.00    +0.000 C 
ENDBRANCH   1  15
BRANCH   3  18
ATOM     18  C   UNL     1       6.227   6.146  16.725  0.00  0.00    +0.000 C 
ATOM     19  O   UNL     1       6.803   7.232  16.754  0.00  0.00    +0.000 OA
ATOM     20  N   UNL     1       6.540   5.140  15.820  0.00  0.00    +0.000 N 
ATOM     21  H   UNL     1       6.093   4.229  15.937  0.00  0.00    +0.000 HD
BRANCH  20  22
ATOM     22  N   UNL     1       7.584   5.327  14.889  0.00  0.00    +0.000 NA
ATOM     23  H   UNL     1       8.209   4.513  14.979  0.00  0.00    +0.000 HD
ATOM     24  H   UNL     1       8.153   6.114  15.208  0.00  0.00    +0.000 HD
ENDBRANCH  20  22
ENDBRANCH   3  18
TORSDOF 3
ENDMDL
MODEL 8
REMARK VINA RESULT:      -8.0      4.724      6.151
REMARK  Name = 
REMARK  4 active torsions:
REMARK  status: ('A' for Active; 'I' for Inactive)
REMARK    1  A    between atoms: C_1  and  C_2
REMARK    2  A    between atoms: C_5  and  C_6
REMARK    3  A    between atoms: C_8  and  C_9
REMARK    4  A    between atoms: N_11  and  N_12
REMARK                            x       y       z     vdW  Elec       q    Type
REMARK                         _______ _______ _______ _____ _____    ______ ____
ROOT
ATOM      1  C   UNL     1       2.807   6.359  18.696  0.00  0.00    +0.000 A 
ATOM      2  C   UNL     1       2.240   5.325  19.465  0.00  0.00    +0.000 A 
ATOM      3  C   UNL     1       2.577   4.012  19.189  0.00  0.00    +0.000 A 
ATOM      4  N   UNL     1       3.438   3.643  18.211  0.00  0.00    +0.000 NA
ATOM      5  C   UNL     1       3.993   4.621  17.475  0.00  0.00    +0.000 A 
ATOM      6  C   UNL     1       4.888   4.248  16.476  0.00  0.00    +0.000 A 
ATOM      7  C   UNL     1       5.518   5.180  15.653  0.00  0.00    +0.000 A 
ATOM      8  C   UNL     1       5.251   6.531  15.818  0.00  0.00    +0.000 A 
ATOM      9  C   UNL     1       4.361   6.935  16.814  0.00  0.00    +0.000 A 
ATOM     10  C   UNL     1       3.715   6.002  17.661  0.00  0.00    +0.000 A 
ENDROOT
BRANCH   1  15
ATOM     11  C   UNL     1      -0.231  11.224  19.803  0.00  0.00    +0.000 C 
ATOM     12  C   UNL     1       0.298   9.829  19.481  0.00  0.00    +0.000 C 
ATOM     13  C   UNL     1       1.145   9.857  18.204  0.00  0.00    +0.000 C 
ATOM     14  C   UNL     1       1.681   8.473  17.852  0.00  0.00    +0.000 C 
ATOM     15  C   UNL     1       2.422   7.803  19.025  0.00  0.00    +0.000 C 
ATOM     16  C   UNL     1       1.650   7.875  20.357  0.00  0.00    +0.000 C 
ATOM     17  C   UNL     1       1.117   9.277  20.651  0.00  0.00    +0.000 C 
ENDBRANCH   1  15
BRANCH   3  18
ATOM     18  C   UNL     1       1.997   2.917  20.036  0.00  0.00    +0.000 C 
ATOM     19  O   UNL     1       1.633   1.846  19.555  0.00  0.00    +0.000 OA
ATOM     20  N   UNL     1       1.892   3.221  21.388  0.00  0.00    +0.000 N 
ATOM     21  H   UNL     1       2.321   4.085  21.723  0.00  0.00    +0.000 HD
BRANCH  20  22
ATOM     22  N   UNL     1       1.372   2.266  22.289  0.00  0.00    +0.000 NA
ATOM     23  H   UNL     1       2.179   1.852  22.778  0.00  0.00    +0.000 HD
ATOM     24  H   UNL     1       0.989   1.493  21.740  0.00  0.00    +0.000 HD
ENDBRANCH  20  22
ENDBRANCH   3  18
TORSDOF 3
ENDMDL
MODEL 9
REMARK VINA RESULT:      -7.9      3.348      6.287
REMARK  Name = 
REMARK  4 active torsions:
REMARK  status: ('A' for Active; 'I' for Inactive)
REMARK    1  A    between atoms: C_1  and  C_2
REMARK    2  A    between atoms: C_5  and  C_6
REMARK    3  A    between atoms: C_8  and  C_9
REMARK    4  A    between atoms: N_11  and  N_12
REMARK                            x       y       z     vdW  Elec       q    Type
REMARK                         _______ _______ _______ _____ _____    ______ ____
ROOT
ATOM      1  C   UNL     1       4.021   5.332  18.408  0.00  0.00    +0.000 A 
ATOM      2  C   UNL     1       3.476   6.623  18.274  0.00  0.00    +0.000 A 
ATOM      3  C   UNL     1       2.467   7.025  19.132  0.00  0.00    +0.000 A 
ATOM      4  N   UNL     1       1.957   6.247  20.115  0.00  0.00    +0.000 NA
ATOM      5  C   UNL     1       2.474   5.014  20.260  0.00  0.00    +0.000 A 
ATOM      6  C   UNL     1       1.963   4.216  21.277  0.00  0.00    +0.000 A 
ATOM      7  C   UNL     1       2.424   2.922  21.513  0.00  0.00    +0.000 A 
ATOM      8  C   UNL     1       3.425   2.394  20.711  0.00  0.00    +0.000 A 
ATOM      9  C   UNL     1       3.960   3.174  19.685  0.00  0.00    +0.000 A 
ATOM     10  C   UNL     1       3.505   4.492  19.434  0.00  0.00    +0.000 A 
ENDROOT
BRANCH   1  15
ATOM     11  C   UNL     1       7.441   4.770  13.707  0.00  0.00    +0.000 C 
ATOM     12  C   UNL     1       6.388   5.095  14.764  0.00  0.00    +0.000 C 
ATOM     13  C   UNL     1       5.657   3.822  15.202  0.00  0.00    +0.000 C 
ATOM     14  C   UNL     1       4.592   4.116  16.253  0.00  0.00    +0.000 C 
ATOM     15  C   UNL     1       5.139   4.914  17.453  0.00  0.00    +0.000 C 
ATOM     16  C   UNL     1       5.992   6.129  17.040  0.00  0.00    +0.000 C 
ATOM     17  C   UNL     1       7.029   5.784  15.971  0.00  0.00    +0.000 C 
ENDBRANCH   1  15
BRANCH   3  18
ATOM     18  C   UNL     1       1.915   8.416  19.006  0.00  0.00    +0.000 C 
ATOM     19  O   UNL     1       1.240   8.931  19.895  0.00  0.00    +0.000 OA
ATOM     20  N   UNL     1       2.215   9.054  17.809  0.00  0.00    +0.000 N 
ATOM     21  H   UNL     1       2.874   8.603  17.173  0.00  0.00    +0.000 HD
BRANCH  20  22
ATOM     22  N   UNL     1       1.762  10.371  17.578  0.00  0.00    +0.000 NA
ATOM     23  H   UNL     1       0.736  10.352  17.678  0.00  0.00    +0.000 HD
ATOM     24  H   UNL     1       1.911  10.587  16.590  0.00  0.00    +0.000 HD
ENDBRANCH  20  22
ENDBRANCH   3  18
TORSDOF 3
ENDMDL
