MODEL 1
REMARK VINA RESULT:      -7.3      0.000      0.000
REMARK  Name = 
REMARK  4 active torsions:
REMARK  status: ('A' for Active; 'I' for Inactive)
REMARK    1  A    between atoms: C_2  and  C_3
REMARK    2  A    between atoms: C_3  and  C_4
REMARK    3  A    between atoms: N_10  and  C_11
REMARK    4  A    between atoms: C_17  and  O_18
REMARK                            x       y       z     vdW  Elec       q    Type
REMARK                         _______ _______ _______ _____ _____    ______ ____
ROOT
ATOM      1  O   UNL     1       3.507   7.233  17.571  0.00  0.00    +0.000 OA
ATOM      2  C   UNL     1       3.318   6.258  18.297  0.00  0.00    +0.000 C 
ATOM      3  N   UNL     1       4.024   5.066  18.243  0.00  0.00    +0.000 N 
ATOM      4  H   UNL     1       3.873   4.371  18.969  0.00  0.00    +0.000 HD
ENDROOT
BRANCH   3   5
ATOM      5  C   UNL     1       5.107   4.778  17.378  0.00  0.00    +0.000 A 
ATOM      6  C   UNL     1       4.946   4.500  16.020  0.00  0.00    +0.000 A 
ATOM      7  C   UNL     1       6.061   4.291  15.208  0.00  0.00    +0.000 A 
ATOM      8 CL   UNL     1       5.845   3.960  13.533  0.00  0.00    +0.000 Cl
ATOM      9  C   UNL     1       7.348   4.352  15.739  0.00  0.00    +0.000 A 
ATOM     10  C   UNL     1       7.524   4.593  17.102  0.00  0.00    +0.000 A 
ATOM     11  C   UNL     1       6.405   4.791  17.915  0.00  0.00    +0.000 A 
BRANCH  11  12
ATOM     12  O   UNL     1       6.564   5.040  19.256  0.00  0.00    +0.000 OA
ATOM     13  H   UNL     1       6.225   5.930  19.447  0.00  0.00    +0.000 HD
ENDBRANCH  11  12
ENDBRANCH   3   5
BRANCH   2  14
ATOM     14  C   UNL     1       2.268   6.318  19.391  0.00  0.00    +0.000 C 
BRANCH  14  15
ATOM     15  C   UNL     1       1.928   4.969  19.975  0.00  0.00    +0.000 A 
ATOM     16  C   UNL     1       2.319   4.647  21.281  0.00  0.00    +0.000 A 
ATOM     17  C   UNL     1       1.991   3.408  21.836  0.00  0.00    +0.000 A 
ATOM     18  C   UNL     1       1.264   2.480  21.093  0.00  0.00    +0.000 A 
ATOM     19  C   UNL     1       0.856   2.794  19.798  0.00  0.00    +0.000 A 
ATOM     20  C   UNL     1       1.179   4.034  19.244  0.00  0.00    +0.000 A 
ENDBRANCH  14  15
ENDBRANCH   2  14
TORSDOF 4
ENDMDL
MODEL 2
REMARK VINA RESULT:      -7.2      0.243      1.160
REMARK  Name = 
REMARK  4 active torsions:
REMARK  status: ('A' for Active; 'I' for Inactive)
REMARK    1  A    between atoms: C_2  and  C_3
REMARK    2  A    between atoms: C_3  and  C_4
REMARK    3  A    between atoms: N_10  and  C_11
REMARK    4  A    between atoms: C_17  and  O_18
REMARK                            x       y       z     vdW  Elec       q    Type
REMARK                         _______ _______ _______ _____ _____    ______ ____
ROOT
ATOM      1  O   UNL     1       3.364   7.224  17.679  0.00  0.00    +0.000 OA
ATOM      2  C   UNL     1       3.211   6.265  18.433  0.00  0.00    +0.000 C 
ATOM      3  N   UNL     1       3.981   5.113  18.438  0.00  0.00    +0.000 N 
ATOM      4  H   UNL     1       3.850   4.436  19.183  0.00  0.00    +0.000 HD
ENDROOT
BRANCH   3   5
ATOM      5  C   UNL     1       5.101   4.857  17.610  0.00  0.00    +0.000 A 
ATOM      6  C   UNL     1       4.993   4.561  16.250  0.00  0.00    +0.000 A 
ATOM      7  C   UNL     1       6.139   4.386  15.476  0.00  0.00    +0.000 A 
ATOM      8 CL   UNL     1       5.988   4.031  13.798  0.00  0.00    +0.000 Cl
ATOM      9  C   UNL     1       7.406   4.498  16.045  0.00  0.00    +0.000 A 
ATOM     10  C   UNL     1       7.531   4.758  17.410  0.00  0.00    +0.000 A 
ATOM     11  C   UNL     1       6.380   4.923  18.187  0.00  0.00    +0.000 A 
BRANCH  11  12
ATOM     12  O   UNL     1       6.488   5.189  19.529  0.00  0.00    +0.000 OA
ATOM     13  H   UNL     1       6.165   6.090  19.692  0.00  0.00    +0.000 HD
ENDBRANCH  11  12
ENDBRANCH   3   5
BRANCH   2  14
ATOM     14  C   UNL     1       2.130   6.303  19.499  0.00  0.00    +0.000 C 
BRANCH  14  15
ATOM     15  C   UNL     1       1.841   4.956  20.114  0.00  0.00    +0.000 A 
ATOM     16  C   UNL     1       1.045   4.026  19.434  0.00  0.00    +0.000 A 
ATOM     17  C   UNL     1       0.789   2.770  19.988  0.00  0.00    +0.000 A 
ATOM     18  C   UNL     1       1.332   2.428  21.225  0.00  0.00    +0.000 A 
ATOM     19  C   UNL     1       2.138   3.338  21.904  0.00  0.00    +0.000 A 
ATOM     20  C   UNL     1       2.398   4.593  21.350  0.00  0.00    +0.000 A 
ENDBRANCH  14  15
ENDBRANCH   2  14
TORSDOF 4
ENDMDL
MODEL 3
REMARK VINA RESULT:      -7.1      2.345      3.162
REMARK  Name = 
REMARK  4 active torsions:
REMARK  status: ('A' for Active; 'I' for Inactive)
REMARK    1  A    between atoms: C_2  and  C_3
REMARK    2  A    between atoms: C_3  and  C_4
REMARK    3  A    between atoms: N_10  and  C_11
REMARK    4  A    between atoms: C_17  and  O_18
REMARK                            x       y       z     vdW  Elec       q    Type
REMARK                         _______ _______ _______ _____ _____    ______ ____
ROOT
ATOM      1  O   UNL     1       5.064   6.854  15.808  0.00  0.00    +0.000 OA
ATOM      2  C   UNL     1       5.079   5.787  16.419  0.00  0.00    +0.000 C 
ATOM      3  N   UNL     1       5.479   4.566  15.900  0.00  0.00    +0.000 N 
ATOM      4  H   UNL     1       5.572   3.771  16.525  0.00  0.00    +0.000 HD
ENDROOT
BRANCH   3   5
ATOM      5  C   UNL     1       5.979   4.341  14.594  0.00  0.00    +0.000 A 
ATOM      6  C   UNL     1       5.345   3.512  13.666  0.00  0.00    +0.000 A 
ATOM      7  C   UNL     1       5.853   3.386  12.374  0.00  0.00    +0.000 A 
ATOM      8 CL   UNL     1       5.053   2.369  11.240  0.00  0.00    +0.000 Cl
ATOM      9  C   UNL     1       7.000   4.079  11.990  0.00  0.00    +0.000 A 
ATOM     10  C   UNL     1       7.666   4.883  12.916  0.00  0.00    +0.000 A 
ATOM     11  C   UNL     1       7.160   4.999  14.214  0.00  0.00    +0.000 A 
BRANCH  11  12
ATOM     12  O   UNL     1       7.799   5.794  15.133  0.00  0.00    +0.000 OA
ATOM     13  H   UNL     1       8.588   5.326  15.451  0.00  0.00    +0.000 HD
ENDBRANCH  11  12
ENDBRANCH   3   5
BRANCH   2  14
ATOM     14  C   UNL     1       4.677   5.746  17.883  0.00  0.00    +0.000 C 
BRANCH  14  15
ATOM     15  C   UNL     1       3.653   4.684  18.197  0.00  0.00    +0.000 A 
ATOM     16  C   UNL     1       2.328   4.832  17.767  0.00  0.00    +0.000 A 
ATOM     17  C   UNL     1       1.379   3.844  18.038  0.00  0.00    +0.000 A 
ATOM     18  C   UNL     1       1.746   2.696  18.737  0.00  0.00    +0.000 A 
ATOM     19  C   UNL     1       3.063   2.529  19.157  0.00  0.00    +0.000 A 
ATOM     20  C   UNL     1       4.014   3.514  18.884  0.00  0.00    +0.000 A 
ENDBRANCH  14  15
ENDBRANCH   2  14
TORSDOF 4
ENDMDL
MODEL 4
REMARK VINA RESULT:      -7.1      2.339      3.016
REMARK  Name = 
REMARK  4 active torsions:
REMARK  status: ('A' for Active; 'I' for Inactive)
REMARK    1  A    between atoms: C_2  and  C_3
REMARK    2  A    between atoms: C_3  and  C_4
REMARK    3  A    between atoms: N_10  and  C_11
REMARK    4  A    between atoms: C_17  and  O_18
REMARK                            x       y       z     vdW  Elec       q    Type
REMARK                         _______ _______ _______ _____ _____    ______ ____
ROOT
ATOM      1  O   UNL     1       5.089   6.907  15.793  0.00  0.00    +0.000 OA
ATOM      2  C   UNL     1       5.047   5.839  16.403  0.00  0.00    +0.000 C 
ATOM      3  N   UNL     1       5.413   4.604  15.891  0.00  0.00    +0.000 N 
ATOM      4  H   UNL     1       5.459   3.806  16.516  0.00  0.00    +0.000 HD
ENDROOT
BRANCH   3   5
ATOM      5  C   UNL     1       5.937   4.362  14.598  0.00  0.00    +0.000 A 
ATOM      6  C   UNL     1       5.315   3.529  13.666  0.00  0.00    +0.000 A 
ATOM      7  C   UNL     1       5.849   3.385  12.386  0.00  0.00    +0.000 A 
ATOM      8 CL   UNL     1       5.063   2.363  11.245  0.00  0.00    +0.000 Cl
ATOM      9  C   UNL     1       7.008   4.064  12.018  0.00  0.00    +0.000 A 
ATOM     10  C   UNL     1       7.663   4.872  12.949  0.00  0.00    +0.000 A 
ATOM     11  C   UNL     1       7.132   5.006  14.236  0.00  0.00    +0.000 A 
BRANCH  11  12
ATOM     12  O   UNL     1       7.759   5.805  15.159  0.00  0.00    +0.000 OA
ATOM     13  H   UNL     1       8.472   6.290  14.714  0.00  0.00    +0.000 HD
ENDBRANCH  11  12
ENDBRANCH   3   5
BRANCH   2  14
ATOM     14  C   UNL     1       4.606   5.812  17.855  0.00  0.00    +0.000 C 
BRANCH  14  15
ATOM     15  C   UNL     1       3.631   4.704  18.169  0.00  0.00    +0.000 A 
ATOM     16  C   UNL     1       4.049   3.582  18.894  0.00  0.00    +0.000 A 
ATOM     17  C   UNL     1       3.147   2.561  19.205  0.00  0.00    +0.000 A 
ATOM     18  C   UNL     1       1.818   2.655  18.798  0.00  0.00    +0.000 A 
ATOM     19  C   UNL     1       1.386   3.774  18.090  0.00  0.00    +0.000 A 
ATOM     20  C   UNL     1       2.286   4.797  17.781  0.00  0.00    +0.000 A 
ENDBRANCH  14  15
ENDBRANCH   2  14
TORSDOF 4
ENDMDL
MODEL 5
REMARK VINA RESULT:      -7.1      3.001      6.726
REMARK  Name = 
REMARK  4 active torsions:
REMARK  status: ('A' for Active; 'I' for Inactive)
REMARK    1  A    between atoms: C_2  and  C_3
REMARK    2  A    between atoms: C_3  and  C_4
REMARK    3  A    between atoms: N_10  and  C_11
REMARK    4  A    between atoms: C_17  and  O_18
REMARK                            x       y       z     vdW  Elec       q    Type
REMARK                         _______ _______ _______ _____ _____    ______ ____
ROOT
ATOM      1  O   UNL     1       4.712   5.502  16.352  0.00  0.00    +0.000 OA
ATOM      2  C   UNL     1       5.540   4.717  16.813  0.00  0.00    +0.000 C 
ATOM      3  N   UNL     1       5.325   3.851  17.874  0.00  0.00    +0.000 N 
ATOM      4  H   UNL     1       6.033   3.158  18.095  0.00  0.00    +0.000 HD
ENDROOT
BRANCH   3   5
ATOM      5  C   UNL     1       4.109   3.687  18.581  0.00  0.00    +0.000 A 
ATOM      6  C   UNL     1       3.500   4.716  19.302  0.00  0.00    +0.000 A 
ATOM      7  C   UNL     1       2.269   4.507  19.921  0.00  0.00    +0.000 A 
ATOM      8 CL   UNL     1       1.527   5.790  20.796  0.00  0.00    +0.000 Cl
ATOM      9  C   UNL     1       1.630   3.272  19.835  0.00  0.00    +0.000 A 
ATOM     10  C   UNL     1       2.242   2.222  19.149  0.00  0.00    +0.000 A 
ATOM     11  C   UNL     1       3.482   2.431  18.538  0.00  0.00    +0.000 A 
BRANCH  11  12
ATOM     12  O   UNL     1       4.092   1.410  17.851  0.00  0.00    +0.000 OA
ATOM     13  H   UNL     1       4.608   0.880  18.480  0.00  0.00    +0.000 HD
ENDBRANCH  11  12
ENDBRANCH   3   5
BRANCH   2  14
ATOM     14  C   UNL     1       6.917   4.611  16.184  0.00  0.00    +0.000 C 
BRANCH  14  15
ATOM     15  C   UNL     1       6.885   4.493  14.679  0.00  0.00    +0.000 A 
ATOM     16  C   UNL     1       7.730   5.284  13.891  0.00  0.00    +0.000 A 
ATOM     17  C   UNL     1       7.719   5.167  12.500  0.00  0.00    +0.000 A 
ATOM     18  C   UNL     1       6.867   4.253  11.882  0.00  0.00    +0.000 A 
ATOM     19  C   UNL     1       6.033   3.449  12.655  0.00  0.00    +0.000 A 
ATOM     20  C   UNL     1       6.045   3.563  14.047  0.00  0.00    +0.000 A 
ENDBRANCH  14  15
ENDBRANCH   2  14
TORSDOF 4
ENDMDL
MODEL 6
REMARK VINA RESULT:      -7.0      2.279      3.167
REMARK  Name = 
REMARK  4 active torsions:
REMARK  status: ('A' for Active; 'I' for Inactive)
REMARK    1  A    between atoms: C_2  and  C_3
REMARK    2  A    between atoms: C_3  and  C_4
REMARK    3  A    between atoms: N_10  and  C_11
REMARK    4  A    between atoms: C_17  and  O_18
REMARK                            x       y       z     vdW  Elec       q    Type
REMARK                         _______ _______ _______ _____ _____    ______ ____
ROOT
ATOM      1  O   UNL     1       6.856   4.124  17.359  0.00  0.00    +0.000 OA
ATOM      2  C   UNL     1       5.758   4.623  17.116  0.00  0.00    +0.000 C 
ATOM      3  N   UNL     1       5.242   4.856  15.851  0.00  0.00    +0.000 N 
ATOM      4  H   UNL     1       4.276   5.157  15.761  0.00  0.00    +0.000 HD
ENDROOT
BRANCH   3   5
ATOM      5  C   UNL     1       5.864   4.524  14.624  0.00  0.00    +0.000 A 
ATOM      6  C   UNL     1       5.290   3.665  13.684  0.00  0.00    +0.000 A 
ATOM      7  C   UNL     1       5.925   3.432  12.465  0.00  0.00    +0.000 A 
ATOM      8 CL   UNL     1       5.198   2.379  11.314  0.00  0.00    +0.000 Cl
ATOM      9  C   UNL     1       7.139   4.046  12.166  0.00  0.00    +0.000 A 
ATOM     10  C   UNL     1       7.744   4.879  13.109  0.00  0.00    +0.000 A 
ATOM     11  C   UNL     1       7.111   5.102  14.335  0.00  0.00    +0.000 A 
BRANCH  11  12
ATOM     12  O   UNL     1       7.689   5.927  15.268  0.00  0.00    +0.000 OA
ATOM     13  H   UNL     1       6.987   6.428  15.714  0.00  0.00    +0.000 HD
ENDBRANCH  11  12
ENDBRANCH   3   5
BRANCH   2  14
ATOM     14  C   UNL     1       4.827   4.998  18.254  0.00  0.00    +0.000 C 
BRANCH  14  15
ATOM     15  C   UNL     1       3.615   4.105  18.361  0.00  0.00    +0.000 A 
ATOM     16  C   UNL     1       3.751   2.780  18.796  0.00  0.00    +0.000 A 
ATOM     17  C   UNL     1       2.632   1.953  18.915  0.00  0.00    +0.000 A 
ATOM     18  C   UNL     1       1.365   2.444  18.607  0.00  0.00    +0.000 A 
ATOM     19  C   UNL     1       1.214   3.764  18.190  0.00  0.00    +0.000 A 
ATOM     20  C   UNL     1       2.332   4.593  18.073  0.00  0.00    +0.000 A 
ENDBRANCH  14  15
ENDBRANCH   2  14
TORSDOF 4
ENDMDL
MODEL 7
REMARK VINA RESULT:      -7.0      2.951      6.687
REMARK  Name = 
REMARK  4 active torsions:
REMARK  status: ('A' for Active; 'I' for Inactive)
REMARK    1  A    between atoms: C_2  and  C_3
REMARK    2  A    between atoms: C_3  and  C_4
REMARK    3  A    between atoms: N_10  and  C_11
REMARK    4  A    between atoms: C_17  and  O_18
REMARK                            x       y       z     vdW  Elec       q    Type
REMARK                         _______ _______ _______ _____ _____    ______ ____
ROOT
ATOM      1  O   UNL     1       4.859   5.848  16.589  0.00  0.00    +0.000 OA
ATOM      2  C   UNL     1       5.617   4.935  16.917  0.00  0.00    +0.000 C 
ATOM      3  N   UNL     1       5.329   3.942  17.840  0.00  0.00    +0.000 N 
ATOM      4  H   UNL     1       5.976   3.166  17.945  0.00  0.00    +0.000 HD
ENDROOT
BRANCH   3   5
ATOM      5  C   UNL     1       4.105   3.778  18.532  0.00  0.00    +0.000 A 
ATOM      6  C   UNL     1       3.500   4.800  19.265  0.00  0.00    +0.000 A 
ATOM      7  C   UNL     1       2.260   4.593  19.868  0.00  0.00    +0.000 A 
ATOM      8 CL   UNL     1       1.523   5.868  20.760  0.00  0.00    +0.000 Cl
ATOM      9  C   UNL     1       1.609   3.366  19.753  0.00  0.00    +0.000 A 
ATOM     10  C   UNL     1       2.218   2.323  19.054  0.00  0.00    +0.000 A 
ATOM     11  C   UNL     1       3.466   2.530  18.460  0.00  0.00    +0.000 A 
BRANCH  11  12
ATOM     12  O   UNL     1       4.072   1.516  17.760  0.00  0.00    +0.000 OA
ATOM     13  H   UNL     1       3.382   0.944  17.385  0.00  0.00    +0.000 HD
ENDBRANCH  11  12
ENDBRANCH   3   5
BRANCH   2  14
ATOM     14  C   UNL     1       6.979   4.808  16.259  0.00  0.00    +0.000 C 
BRANCH  14  15
ATOM     15  C   UNL     1       6.910   4.567  14.771  0.00  0.00    +0.000 A 
ATOM     16  C   UNL     1       5.981   3.660  14.245  0.00  0.00    +0.000 A 
ATOM     17  C   UNL     1       5.899   3.446  12.868  0.00  0.00    +0.000 A 
ATOM     18  C   UNL     1       6.740   4.141  12.001  0.00  0.00    +0.000 A 
ATOM     19  C   UNL     1       7.657   5.057  12.510  0.00  0.00    +0.000 A 
ATOM     20  C   UNL     1       7.739   5.275  13.887  0.00  0.00    +0.000 A 
ENDBRANCH  14  15
ENDBRANCH   2  14
TORSDOF 4
ENDMDL
MODEL 8
REMARK VINA RESULT:      -7.0      2.073      2.597
REMARK  Name = 
REMARK  4 active torsions:
REMARK  status: ('A' for Active; 'I' for Inactive)
REMARK    1  A    between atoms: C_2  and  C_3
REMARK    2  A    between atoms: C_3  and  C_4
REMARK    3  A    between atoms: N_10  and  C_11
REMARK    4  A    between atoms: C_17  and  O_18
REMARK                            x       y       z     vdW  Elec       q    Type
REMARK                         _______ _______ _______ _____ _____    ______ ____
ROOT
ATOM      1  O   UNL     1       4.662   3.294  17.072  0.00  0.00    +0.000 OA
ATOM      2  C   UNL     1       4.495   4.506  16.936  0.00  0.00    +0.000 C 
ATOM      3  N   UNL     1       4.951   5.267  15.872  0.00  0.00    +0.000 N 
ATOM      4  H   UNL     1       4.652   6.235  15.795  0.00  0.00    +0.000 HD
ENDROOT
BRANCH   3   5
ATOM      5  C   UNL     1       5.647   4.782  14.738  0.00  0.00    +0.000 A 
ATOM      6  C   UNL     1       5.061   3.952  13.781  0.00  0.00    +0.000 A 
ATOM      7  C   UNL     1       5.782   3.564  12.652  0.00  0.00    +0.000 A 
ATOM      8 CL   UNL     1       5.041   2.549  11.475  0.00  0.00    +0.000 Cl
ATOM      9  C   UNL     1       7.094   3.992  12.464  0.00  0.00    +0.000 A 
ATOM     10  C   UNL     1       7.707   4.793  13.430  0.00  0.00    +0.000 A 
ATOM     11  C   UNL     1       6.985   5.171  14.566  0.00  0.00    +0.000 A 
BRANCH  11  12
ATOM     12  O   UNL     1       7.571   5.967  15.520  0.00  0.00    +0.000 OA
ATOM     13  H   UNL     1       8.121   6.630  15.073  0.00  0.00    +0.000 HD
ENDBRANCH  11  12
ENDBRANCH   3   5
BRANCH   2  14
ATOM     14  C   UNL     1       3.695   5.281  17.967  0.00  0.00    +0.000 C 
BRANCH  14  15
ATOM     15  C   UNL     1       2.797   4.410  18.812  0.00  0.00    +0.000 A 
ATOM     16  C   UNL     1       3.112   4.166  20.155  0.00  0.00    +0.000 A 
ATOM     17  C   UNL     1       2.276   3.377  20.948  0.00  0.00    +0.000 A 
ATOM     18  C   UNL     1       1.114   2.829  20.409  0.00  0.00    +0.000 A 
ATOM     19  C   UNL     1       0.782   3.077  19.079  0.00  0.00    +0.000 A 
ATOM     20  C   UNL     1       1.615   3.868  18.285  0.00  0.00    +0.000 A 
ENDBRANCH  14  15
ENDBRANCH   2  14
TORSDOF 4
ENDMDL
MODEL 9
REMARK VINA RESULT:      -7.0      1.855      2.425
REMARK  Name = 
REMARK  4 active torsions:
REMARK  status: ('A' for Active; 'I' for Inactive)
REMARK    1  A    between atoms: C_2  and  C_3
REMARK    2  A    between atoms: C_3  and  C_4
REMARK    3  A    between atoms: N_10  and  C_11
REMARK    4  A    between atoms: C_17  and  O_18
REMARK                            x       y       z     vdW  Elec       q    Type
REMARK                         _______ _______ _______ _____ _____    ______ ____
ROOT
ATOM      1  O   UNL     1       4.077   5.281  16.922  0.00  0.00    +0.000 OA
ATOM      2  C   UNL     1       4.881   4.501  17.432  0.00  0.00    +0.000 C 
ATOM      3  N   UNL     1       5.933   3.885  16.774  0.00  0.00    +0.000 N 
ATOM      4  H   UNL     1       6.611   3.356  17.315  0.00  0.00    +0.000 HD
ENDROOT
BRANCH   3   5
ATOM      5  C   UNL     1       6.293   4.076  15.418  0.00  0.00    +0.000 A 
ATOM      6  C   UNL     1       5.783   3.300  14.376  0.00  0.00    +0.000 A 
ATOM      7  C   UNL     1       6.127   3.584  13.055  0.00  0.00    +0.000 A 
ATOM      8 CL   UNL     1       5.480   2.624  11.781  0.00  0.00    +0.000 Cl
ATOM      9  C   UNL     1       6.985   4.640  12.755  0.00  0.00    +0.000 A 
ATOM     10  C   UNL     1       7.533   5.402  13.787  0.00  0.00    +0.000 A 
ATOM     11  C   UNL     1       7.195   5.108  15.112  0.00  0.00    +0.000 A 
BRANCH  11  12
ATOM     12  O   UNL     1       7.718   5.856  16.138  0.00  0.00    +0.000 OA
ATOM     13  H   UNL     1       6.989   6.311  16.590  0.00  0.00    +0.000 HD
ENDBRANCH  11  12
ENDBRANCH   3   5
BRANCH   2  14
ATOM     14  C   UNL     1       4.790   4.179  18.913  0.00  0.00    +0.000 C 
BRANCH  14  15
ATOM     15  C   UNL     1       3.388   3.870  19.377  0.00  0.00    +0.000 A 
ATOM     16  C   UNL     1       2.691   4.785  20.177  0.00  0.00    +0.000 A 
ATOM     17  C   UNL     1       1.386   4.513  20.594  0.00  0.00    +0.000 A 
ATOM     18  C   UNL     1       0.763   3.327  20.213  0.00  0.00    +0.000 A 
ATOM     19  C   UNL     1       1.439   2.416  19.405  0.00  0.00    +0.000 A 
ATOM     20  C   UNL     1       2.742   2.687  18.983  0.00  0.00    +0.000 A 
ENDBRANCH  14  15
ENDBRANCH   2  14
TORSDOF 4
ENDMDL
