MODEL 1
REMARK VINA RESULT:      -6.7      0.000      0.000
REMARK  Name = 
REMARK  14 active torsions:
REMARK  status: ('A' for Active; 'I' for Inactive)
REMARK    1  A    between atoms: C_1  and  C_2
REMARK    2  A    between atoms: C_2  and  C_3
REMARK    3  A    between atoms: C_3  and  C_4
REMARK    4  A    between atoms: C_4  and  C_5
REMARK    5  A    between atoms: C_5  and  C_6
REMARK    6  A    between atoms: C_6  and  C_7
REMARK    7  A    between atoms: C_7  and  C_8
REMARK    8  A    between atoms: C_8  and  C_9
REMARK    9  A    between atoms: C_9  and  C_10
REMARK   10  A    between atoms: C_10  and  C_11
REMARK   11  A    between atoms: C_11  and  C_12
REMARK   12  A    between atoms: C_12  and  N_13
REMARK   13  A    between atoms: C_14  and  C_16
REMARK   14  A    between atoms: C_17  and  C_18
REMARK                            x       y       z     vdW  Elec       q    Type
REMARK                         _______ _______ _______ _____ _____    ______ ____
ROOT
ATOM      1  C   UNL     1       7.106   5.186  18.197  0.00  0.00    +0.000 C 
ENDROOT
BRANCH   1   2
ATOM      2  N   UNL     1       7.822   6.313  18.749  0.00  0.00    +0.000 N 
ATOM      3  C   UNL     1       7.876   7.503  18.072  0.00  0.00    +0.000 C 
ATOM      4  O   UNL     1       7.341   7.699  16.982  0.00  0.00    +0.000 OA
ATOM      5  H   UNL     1       8.289   6.203  19.640  0.00  0.00    +0.000 HD
BRANCH   3   6
ATOM      6  C   UNL     1       8.658   8.552  18.765  0.00  0.00    +0.000 C 
ATOM      7  C   UNL     1       8.757   9.768  18.200  0.00  0.00    +0.000 C 
BRANCH   7   8
ATOM      8  C   UNL     1       9.605  10.858  18.703  0.00  0.00    +0.000 A 
ATOM      9  C   UNL     1      10.300  11.658  17.786  0.00  0.00    +0.000 A 
ATOM     10  C   UNL     1      11.222  12.608  18.235  0.00  0.00    +0.000 A 
ATOM     11  C   UNL     1      11.423  12.800  19.598  0.00  0.00    +0.000 A 
ATOM     12  C   UNL     1      10.698  12.047  20.517  0.00  0.00    +0.000 A 
ATOM     13  C   UNL     1       9.794  11.084  20.071  0.00  0.00    +0.000 A 
ENDBRANCH   7   8
ENDBRANCH   3   6
ENDBRANCH   1   2
BRANCH   1  14
ATOM     14  C   UNL     1       5.678   5.076  18.728  0.00  0.00    +0.000 C 
BRANCH  14  15
ATOM     15  C   UNL     1       5.017   3.772  18.273  0.00  0.00    +0.000 C 
BRANCH  15  16
ATOM     16  C   UNL     1       4.256   3.961  16.964  0.00  0.00    +0.000 C 
BRANCH  16  17
ATOM     17  C   UNL     1       2.813   3.492  17.092  0.00  0.00    +0.000 C 
BRANCH  17  18
ATOM     18  C   UNL     1       2.594   2.810  18.436  0.00  0.00    +0.000 C 
BRANCH  18  19
ATOM     19  C   UNL     1       1.153   2.989  18.893  0.00  0.00    +0.000 C 
BRANCH  19  20
ATOM     20  C   UNL     1       1.104   3.376  20.365  0.00  0.00    +0.000 C 
BRANCH  20  21
ATOM     21  C   UNL     1       2.181   4.408  20.681  0.00  0.00    +0.000 C 
BRANCH  21  22
ATOM     22  C   UNL     1       1.632   5.818  20.511  0.00  0.00    +0.000 C 
BRANCH  22  24
ATOM     23  C   UNL     1       2.233   6.808  18.291  0.00  0.00    +0.000 C 
ATOM     24  C   UNL     1       2.619   6.699  19.754  0.00  0.00    +0.000 C 
ENDBRANCH  22  24
ENDBRANCH  21  22
ENDBRANCH  20  21
ENDBRANCH  19  20
ENDBRANCH  18  19
ENDBRANCH  17  18
ENDBRANCH  16  17
ENDBRANCH  15  16
ENDBRANCH  14  15
ENDBRANCH   1  14
TORSDOF 13
ENDMDL
MODEL 2
REMARK VINA RESULT:      -6.6      0.813      2.154
REMARK  Name = 
REMARK  14 active torsions:
REMARK  status: ('A' for Active; 'I' for Inactive)
REMARK    1  A    between atoms: C_1  and  C_2
REMARK    2  A    between atoms: C_2  and  C_3
REMARK    3  A    between atoms: C_3  and  C_4
REMARK    4  A    between atoms: C_4  and  C_5
REMARK    5  A    between atoms: C_5  and  C_6
REMARK    6  A    between atoms: C_6  and  C_7
REMARK    7  A    between atoms: C_7  and  C_8
REMARK    8  A    between atoms: C_8  and  C_9
REMARK    9  A    between atoms: C_9  and  C_10
REMARK   10  A    between atoms: C_10  and  C_11
REMARK   11  A    between atoms: C_11  and  C_12
REMARK   12  A    between atoms: C_12  and  N_13
REMARK   13  A    between atoms: C_14  and  C_16
REMARK   14  A    between atoms: C_17  and  C_18
REMARK                            x       y       z     vdW  Elec       q    Type
REMARK                         _______ _______ _______ _____ _____    ______ ____
ROOT
ATOM      1  C   UNL     1       7.357   5.388  17.991  0.00  0.00    +0.000 C 
ENDROOT
BRANCH   1   2
ATOM      2  N   UNL     1       7.984   6.526  18.622  0.00  0.00    +0.000 N 
ATOM      3  C   UNL     1       7.988   7.750  18.005  0.00  0.00    +0.000 C 
ATOM      4  O   UNL     1       7.480   7.967  16.906  0.00  0.00    +0.000 OA
ATOM      5  H   UNL     1       8.426   6.401  19.524  0.00  0.00    +0.000 HD
BRANCH   3   6
ATOM      6  C   UNL     1       8.681   8.807  18.776  0.00  0.00    +0.000 C 
ATOM      7  C   UNL     1       8.884  10.004  18.197  0.00  0.00    +0.000 C 
BRANCH   7   8
ATOM      8  C   UNL     1       9.670  11.096  18.788  0.00  0.00    +0.000 A 
ATOM      9  C   UNL     1      10.386  11.954  17.943  0.00  0.00    +0.000 A 
ATOM     10  C   UNL     1      11.253  12.911  18.478  0.00  0.00    +0.000 A 
ATOM     11  C   UNL     1      11.377  13.051  19.857  0.00  0.00    +0.000 A 
ATOM     12  C   UNL     1      10.630  12.239  20.705  0.00  0.00    +0.000 A 
ATOM     13  C   UNL     1       9.780  11.270  20.173  0.00  0.00    +0.000 A 
ENDBRANCH   7   8
ENDBRANCH   3   6
ENDBRANCH   1   2
BRANCH   1  14
ATOM     14  C   UNL     1       5.903   5.201  18.419  0.00  0.00    +0.000 C 
BRANCH  14  15
ATOM     15  C   UNL     1       4.939   5.694  17.336  0.00  0.00    +0.000 C 
BRANCH  15  16
ATOM     16  C   UNL     1       3.516   5.824  17.874  0.00  0.00    +0.000 C 
BRANCH  16  17
ATOM     17  C   UNL     1       3.494   5.763  19.395  0.00  0.00    +0.000 C 
BRANCH  17  18
ATOM     18  C   UNL     1       2.267   6.483  19.938  0.00  0.00    +0.000 C 
BRANCH  18  19
ATOM     19  C   UNL     1       1.384   5.515  20.713  0.00  0.00    +0.000 C 
BRANCH  19  20
ATOM     20  C   UNL     1       2.191   4.305  21.166  0.00  0.00    +0.000 C 
BRANCH  20  21
ATOM     21  C   UNL     1       1.341   3.041  21.098  0.00  0.00    +0.000 C 
BRANCH  21  22
ATOM     22  C   UNL     1       1.123   2.623  19.650  0.00  0.00    +0.000 C 
BRANCH  22  24
ATOM     23  C   UNL     1       2.506   2.349  17.581  0.00  0.00    +0.000 C 
ATOM     24  C   UNL     1       2.394   2.024  19.059  0.00  0.00    +0.000 C 
ENDBRANCH  22  24
ENDBRANCH  21  22
ENDBRANCH  20  21
ENDBRANCH  19  20
ENDBRANCH  18  19
ENDBRANCH  17  18
ENDBRANCH  16  17
ENDBRANCH  15  16
ENDBRANCH  14  15
ENDBRANCH   1  14
TORSDOF 13
ENDMDL
MODEL 3
REMARK VINA RESULT:      -6.5      0.918      1.968
REMARK  Name = 
REMARK  14 active torsions:
REMARK  status: ('A' for Active; 'I' for Inactive)
REMARK    1  A    between atoms: C_1  and  C_2
REMARK    2  A    between atoms: C_2  and  C_3
REMARK    3  A    between atoms: C_3  and  C_4
REMARK    4  A    between atoms: C_4  and  C_5
REMARK    5  A    between atoms: C_5  and  C_6
REMARK    6  A    between atoms: C_6  and  C_7
REMARK    7  A    between atoms: C_7  and  C_8
REMARK    8  A    between atoms: C_8  and  C_9
REMARK    9  A    between atoms: C_9  and  C_10
REMARK   10  A    between atoms: C_10  and  C_11
REMARK   11  A    between atoms: C_11  and  C_12
REMARK   12  A    between atoms: C_12  and  N_13
REMARK   13  A    between atoms: C_14  and  C_16
REMARK   14  A    between atoms: C_17  and  C_18
REMARK                            x       y       z     vdW  Elec       q    Type
REMARK                         _______ _______ _______ _____ _____    ______ ____
ROOT
ATOM      1  C   UNL     1       6.825   5.102  18.328  0.00  0.00    +0.000 C 
ENDROOT
BRANCH   1   2
ATOM      2  N   UNL     1       7.583   6.220  18.839  0.00  0.00    +0.000 N 
ATOM      3  C   UNL     1       7.803   7.327  18.063  0.00  0.00    +0.000 C 
ATOM      4  O   UNL     1       7.388   7.452  16.912  0.00  0.00    +0.000 OA
ATOM      5  H   UNL     1       7.956   6.165  19.779  0.00  0.00    +0.000 HD
BRANCH   3   6
ATOM      6  C   UNL     1       8.608   8.376  18.729  0.00  0.00    +0.000 C 
ATOM      7  C   UNL     1       8.579   9.627  18.236  0.00  0.00    +0.000 C 
BRANCH   7   8
ATOM      8  C   UNL     1       9.425  10.732  18.708  0.00  0.00    +0.000 A 
ATOM      9  C   UNL     1       9.686  10.851  20.080  0.00  0.00    +0.000 A 
ATOM     10  C   UNL     1      10.368  11.967  20.575  0.00  0.00    +0.000 A 
ATOM     11  C   UNL     1      10.834  12.946  19.703  0.00  0.00    +0.000 A 
ATOM     12  C   UNL     1      10.626  12.810  18.334  0.00  0.00    +0.000 A 
ATOM     13  C   UNL     1       9.928  11.708  17.840  0.00  0.00    +0.000 A 
ENDBRANCH   7   8
ENDBRANCH   3   6
ENDBRANCH   1   2
BRANCH   1  14
ATOM     14  C   UNL     1       5.572   4.811  19.152  0.00  0.00    +0.000 C 
BRANCH  14  15
ATOM     15  C   UNL     1       4.452   5.803  18.828  0.00  0.00    +0.000 C 
BRANCH  15  16
ATOM     16  C   UNL     1       3.706   5.406  17.557  0.00  0.00    +0.000 C 
BRANCH  16  17
ATOM     17  C   UNL     1       4.015   3.968  17.164  0.00  0.00    +0.000 C 
BRANCH  17  18
ATOM     18  C   UNL     1       2.728   3.164  17.032  0.00  0.00    +0.000 C 
BRANCH  18  19
ATOM     19  C   UNL     1       1.614   3.811  17.842  0.00  0.00    +0.000 C 
BRANCH  19  20
ATOM     20  C   UNL     1       0.871   2.761  18.659  0.00  0.00    +0.000 C 
BRANCH  20  21
ATOM     21  C   UNL     1       0.427   3.342  19.996  0.00  0.00    +0.000 C 
BRANCH  21  22
ATOM     22  C   UNL     1       1.359   4.466  20.424  0.00  0.00    +0.000 C 
BRANCH  22  24
ATOM     23  C   UNL     1       2.066   2.614  21.954  0.00  0.00    +0.000 C 
ATOM     24  C   UNL     1       2.464   3.940  21.334  0.00  0.00    +0.000 C 
ENDBRANCH  22  24
ENDBRANCH  21  22
ENDBRANCH  20  21
ENDBRANCH  19  20
ENDBRANCH  18  19
ENDBRANCH  17  18
ENDBRANCH  16  17
ENDBRANCH  15  16
ENDBRANCH  14  15
ENDBRANCH   1  14
TORSDOF 13
ENDMDL
MODEL 4
REMARK VINA RESULT:      -6.3      1.399      2.994
REMARK  Name = 
REMARK  14 active torsions:
REMARK  status: ('A' for Active; 'I' for Inactive)
REMARK    1  A    between atoms: C_1  and  C_2
REMARK    2  A    between atoms: C_2  and  C_3
REMARK    3  A    between atoms: C_3  and  C_4
REMARK    4  A    between atoms: C_4  and  C_5
REMARK    5  A    between atoms: C_5  and  C_6
REMARK    6  A    between atoms: C_6  and  C_7
REMARK    7  A    between atoms: C_7  and  C_8
REMARK    8  A    between atoms: C_8  and  C_9
REMARK    9  A    between atoms: C_9  and  C_10
REMARK   10  A    between atoms: C_10  and  C_11
REMARK   11  A    between atoms: C_11  and  C_12
REMARK   12  A    between atoms: C_12  and  N_13
REMARK   13  A    between atoms: C_14  and  C_16
REMARK   14  A    between atoms: C_17  and  C_18
REMARK                            x       y       z     vdW  Elec       q    Type
REMARK                         _______ _______ _______ _____ _____    ______ ____
ROOT
ATOM      1  C   UNL     1       4.903   5.774  16.819  0.00  0.00    +0.000 C 
ENDROOT
BRANCH   1   2
ATOM      2  N   UNL     1       5.812   6.721  17.424  0.00  0.00    +0.000 N 
ATOM      3  C   UNL     1       7.166   6.522  17.365  0.00  0.00    +0.000 C 
ATOM      4  O   UNL     1       7.696   5.557  16.816  0.00  0.00    +0.000 OA
ATOM      5  H   UNL     1       5.428   7.529  17.898  0.00  0.00    +0.000 HD
BRANCH   3   6
ATOM      6  C   UNL     1       7.956   7.574  18.043  0.00  0.00    +0.000 C 
ATOM      7  C   UNL     1       7.731   8.861  17.725  0.00  0.00    +0.000 C 
BRANCH   7   8
ATOM      8  C   UNL     1       8.527   9.995  18.214  0.00  0.00    +0.000 A 
ATOM      9  C   UNL     1       9.336   9.821  19.345  0.00  0.00    +0.000 A 
ATOM     10  C   UNL     1       9.994  10.914  19.918  0.00  0.00    +0.000 A 
ATOM     11  C   UNL     1       9.889  12.176  19.341  0.00  0.00    +0.000 A 
ATOM     12  C   UNL     1       9.131  12.348  18.187  0.00  0.00    +0.000 A 
ATOM     13  C   UNL     1       8.457  11.264  17.626  0.00  0.00    +0.000 A 
ENDBRANCH   7   8
ENDBRANCH   3   6
ENDBRANCH   1   2
BRANCH   1  14
ATOM     14  C   UNL     1       3.561   5.696  17.546  0.00  0.00    +0.000 C 
BRANCH  14  15
ATOM     15  C   UNL     1       3.167   7.055  18.129  0.00  0.00    +0.000 C 
BRANCH  15  16
ATOM     16  C   UNL     1       2.535   6.907  19.510  0.00  0.00    +0.000 C 
BRANCH  16  17
ATOM     17  C   UNL     1       1.793   5.583  19.637  0.00  0.00    +0.000 C 
BRANCH  17  18
ATOM     18  C   UNL     1       2.203   4.865  20.916  0.00  0.00    +0.000 C 
BRANCH  18  19
ATOM     19  C   UNL     1       1.426   3.564  21.066  0.00  0.00    +0.000 C 
BRANCH  19  20
ATOM     20  C   UNL     1       0.707   3.220  19.768  0.00  0.00    +0.000 C 
BRANCH  20  21
ATOM     21  C   UNL     1       1.281   1.945  19.162  0.00  0.00    +0.000 C 
BRANCH  21  22
ATOM     22  C   UNL     1       2.304   2.280  18.086  0.00  0.00    +0.000 C 
BRANCH  22  24
ATOM     23  C   UNL     1       4.516   2.545  19.230  0.00  0.00    +0.000 C 
ATOM     24  C   UNL     1       3.648   1.627  18.390  0.00  0.00    +0.000 C 
ENDBRANCH  22  24
ENDBRANCH  21  22
ENDBRANCH  20  21
ENDBRANCH  19  20
ENDBRANCH  18  19
ENDBRANCH  17  18
ENDBRANCH  16  17
ENDBRANCH  15  16
ENDBRANCH  14  15
ENDBRANCH   1  14
TORSDOF 13
ENDMDL
MODEL 5
REMARK VINA RESULT:      -6.3      1.050      2.392
REMARK  Name = 
REMARK  14 active torsions:
REMARK  status: ('A' for Active; 'I' for Inactive)
REMARK    1  A    between atoms: C_1  and  C_2
REMARK    2  A    between atoms: C_2  and  C_3
REMARK    3  A    between atoms: C_3  and  C_4
REMARK    4  A    between atoms: C_4  and  C_5
REMARK    5  A    between atoms: C_5  and  C_6
REMARK    6  A    between atoms: C_6  and  C_7
REMARK    7  A    between atoms: C_7  and  C_8
REMARK    8  A    between atoms: C_8  and  C_9
REMARK    9  A    between atoms: C_9  and  C_10
REMARK   10  A    between atoms: C_10  and  C_11
REMARK   11  A    between atoms: C_11  and  C_12
REMARK   12  A    between atoms: C_12  and  N_13
REMARK   13  A    between atoms: C_14  and  C_16
REMARK   14  A    between atoms: C_17  and  C_18
REMARK                            x       y       z     vdW  Elec       q    Type
REMARK                         _______ _______ _______ _____ _____    ______ ____
ROOT
ATOM      1  C   UNL     1       7.014   5.064  18.090  0.00  0.00    +0.000 C 
ENDROOT
BRANCH   1   2
ATOM      2  N   UNL     1       7.746   6.187  18.628  0.00  0.00    +0.000 N 
ATOM      3  C   UNL     1       7.744   7.395  17.982  0.00  0.00    +0.000 C 
ATOM      4  O   UNL     1       7.142   7.611  16.931  0.00  0.00    +0.000 OA
ATOM      5  H   UNL     1       8.268   6.061  19.487  0.00  0.00    +0.000 HD
BRANCH   3   6
ATOM      6  C   UNL     1       8.552   8.437  18.655  0.00  0.00    +0.000 C 
ATOM      7  C   UNL     1       8.561   9.681  18.146  0.00  0.00    +0.000 C 
BRANCH   7   8
ATOM      8  C   UNL     1       9.417  10.775  18.626  0.00  0.00    +0.000 A 
ATOM      9  C   UNL     1       9.821  10.784  19.968  0.00  0.00    +0.000 A 
ATOM     10  C   UNL     1      10.516  11.880  20.489  0.00  0.00    +0.000 A 
ATOM     11  C   UNL     1      10.852  12.951  19.668  0.00  0.00    +0.000 A 
ATOM     12  C   UNL     1      10.501  12.928  18.321  0.00  0.00    +0.000 A 
ATOM     13  C   UNL     1       9.790  11.845  17.804  0.00  0.00    +0.000 A 
ENDBRANCH   7   8
ENDBRANCH   3   6
ENDBRANCH   1   2
BRANCH   1  14
ATOM     14  C   UNL     1       5.908   4.577  19.024  0.00  0.00    +0.000 C 
BRANCH  14  15
ATOM     15  C   UNL     1       4.770   5.596  19.116  0.00  0.00    +0.000 C 
BRANCH  15  16
ATOM     16  C   UNL     1       4.043   5.741  17.781  0.00  0.00    +0.000 C 
BRANCH  16  17
ATOM     17  C   UNL     1       2.554   5.976  17.988  0.00  0.00    +0.000 C 
BRANCH  17  18
ATOM     18  C   UNL     1       1.765   4.719  17.645  0.00  0.00    +0.000 C 
BRANCH  18  19
ATOM     19  C   UNL     1       2.710   3.582  17.284  0.00  0.00    +0.000 C 
BRANCH  19  20
ATOM     20  C   UNL     1       2.131   2.246  17.732  0.00  0.00    +0.000 C 
BRANCH  20  21
ATOM     21  C   UNL     1       2.961   1.660  18.868  0.00  0.00    +0.000 C 
BRANCH  21  22
ATOM     22  C   UNL     1       3.056   2.647  20.022  0.00  0.00    +0.000 C 
BRANCH  22  24
ATOM     23  C   UNL     1       1.539   2.434  22.002  0.00  0.00    +0.000 C 
ATOM     24  C   UNL     1       1.676   2.962  20.586  0.00  0.00    +0.000 C 
ENDBRANCH  22  24
ENDBRANCH  21  22
ENDBRANCH  20  21
ENDBRANCH  19  20
ENDBRANCH  18  19
ENDBRANCH  17  18
ENDBRANCH  16  17
ENDBRANCH  15  16
ENDBRANCH  14  15
ENDBRANCH   1  14
TORSDOF 13
ENDMDL
MODEL 6
REMARK VINA RESULT:      -6.2      1.379      1.977
REMARK  Name = 
REMARK  14 active torsions:
REMARK  status: ('A' for Active; 'I' for Inactive)
REMARK    1  A    between atoms: C_1  and  C_2
REMARK    2  A    between atoms: C_2  and  C_3
REMARK    3  A    between atoms: C_3  and  C_4
REMARK    4  A    between atoms: C_4  and  C_5
REMARK    5  A    between atoms: C_5  and  C_6
REMARK    6  A    between atoms: C_6  and  C_7
REMARK    7  A    between atoms: C_7  and  C_8
REMARK    8  A    between atoms: C_8  and  C_9
REMARK    9  A    between atoms: C_9  and  C_10
REMARK   10  A    between atoms: C_10  and  C_11
REMARK   11  A    between atoms: C_11  and  C_12
REMARK   12  A    between atoms: C_12  and  N_13
REMARK   13  A    between atoms: C_14  and  C_16
REMARK   14  A    between atoms: C_17  and  C_18
REMARK                            x       y       z     vdW  Elec       q    Type
REMARK                         _______ _______ _______ _____ _____    ______ ____
ROOT
ATOM      1  C   UNL     1       6.966   4.697  16.440  0.00  0.00    +0.000 C 
ENDROOT
BRANCH   1   2
ATOM      2  N   UNL     1       7.340   5.949  17.055  0.00  0.00    +0.000 N 
ATOM      3  C   UNL     1       7.795   5.982  18.347  0.00  0.00    +0.000 C 
ATOM      4  O   UNL     1       7.915   4.985  19.059  0.00  0.00    +0.000 OA
ATOM      5  H   UNL     1       7.252   6.801  16.516  0.00  0.00    +0.000 HD
BRANCH   3   6
ATOM      6  C   UNL     1       8.124   7.341  18.833  0.00  0.00    +0.000 C 
ATOM      7  C   UNL     1       8.195   8.348  17.944  0.00  0.00    +0.000 C 
BRANCH   7   8
ATOM      8  C   UNL     1       8.639   9.712  18.261  0.00  0.00    +0.000 A 
ATOM      9  C   UNL     1       9.424   9.924  19.403  0.00  0.00    +0.000 A 
ATOM     10  C   UNL     1       9.744  11.224  19.808  0.00  0.00    +0.000 A 
ATOM     11  C   UNL     1       9.325  12.316  19.055  0.00  0.00    +0.000 A 
ATOM     12  C   UNL     1       8.590  12.113  17.890  0.00  0.00    +0.000 A 
ATOM     13  C   UNL     1       8.253  10.819  17.496  0.00  0.00    +0.000 A 
ENDBRANCH   7   8
ENDBRANCH   3   6
ENDBRANCH   1   2
BRANCH   1  14
ATOM     14  C   UNL     1       5.587   4.750  15.784  0.00  0.00    +0.000 C 
BRANCH  14  15
ATOM     15  C   UNL     1       4.481   4.912  16.830  0.00  0.00    +0.000 C 
BRANCH  15  16
ATOM     16  C   UNL     1       4.566   3.830  17.903  0.00  0.00    +0.000 C 
BRANCH  16  17
ATOM     17  C   UNL     1       3.524   2.744  17.673  0.00  0.00    +0.000 C 
BRANCH  17  18
ATOM     18  C   UNL     1       3.237   2.000  18.971  0.00  0.00    +0.000 C 
BRANCH  18  19
ATOM     19  C   UNL     1       1.738   1.945  19.230  0.00  0.00    +0.000 C 
BRANCH  19  20
ATOM     20  C   UNL     1       1.135   3.342  19.173  0.00  0.00    +0.000 C 
BRANCH  20  21
ATOM     21  C   UNL     1       1.061   3.949  20.570  0.00  0.00    +0.000 C 
BRANCH  21  22
ATOM     22  C   UNL     1       2.212   4.920  20.790  0.00  0.00    +0.000 C 
BRANCH  22  24
ATOM     23  C   UNL     1       2.495   6.812  19.175  0.00  0.00    +0.000 C 
ATOM     24  C   UNL     1       1.799   6.344  20.439  0.00  0.00    +0.000 C 
ENDBRANCH  22  24
ENDBRANCH  21  22
ENDBRANCH  20  21
ENDBRANCH  19  20
ENDBRANCH  18  19
ENDBRANCH  17  18
ENDBRANCH  16  17
ENDBRANCH  15  16
ENDBRANCH  14  15
ENDBRANCH   1  14
TORSDOF 13
ENDMDL
MODEL 7
REMARK VINA RESULT:      -6.0      1.314      1.999
REMARK  Name = 
REMARK  14 active torsions:
REMARK  status: ('A' for Active; 'I' for Inactive)
REMARK    1  A    between atoms: C_1  and  C_2
REMARK    2  A    between atoms: C_2  and  C_3
REMARK    3  A    between atoms: C_3  and  C_4
REMARK    4  A    between atoms: C_4  and  C_5
REMARK    5  A    between atoms: C_5  and  C_6
REMARK    6  A    between atoms: C_6  and  C_7
REMARK    7  A    between atoms: C_7  and  C_8
REMARK    8  A    between atoms: C_8  and  C_9
REMARK    9  A    between atoms: C_9  and  C_10
REMARK   10  A    between atoms: C_10  and  C_11
REMARK   11  A    between atoms: C_11  and  C_12
REMARK   12  A    between atoms: C_12  and  N_13
REMARK   13  A    between atoms: C_14  and  C_16
REMARK   14  A    between atoms: C_17  and  C_18
REMARK                            x       y       z     vdW  Elec       q    Type
REMARK                         _______ _______ _______ _____ _____    ______ ____
ROOT
ATOM      1  C   UNL     1       6.118   6.711  17.172  0.00  0.00    +0.000 C 
ENDROOT
BRANCH   1   2
ATOM      2  N   UNL     1       6.828   7.968  17.206  0.00  0.00    +0.000 N 
ATOM      3  C   UNL     1       7.919   8.130  18.018  0.00  0.00    +0.000 C 
ATOM      4  O   UNL     1       8.363   7.252  18.757  0.00  0.00    +0.000 OA
ATOM      5  H   UNL     1       6.499   8.729  16.625  0.00  0.00    +0.000 HD
BRANCH   3   6
ATOM      6  C   UNL     1       8.525   9.479  17.947  0.00  0.00    +0.000 C 
ATOM      7  C   UNL     1       9.198   9.945  19.014  0.00  0.00    +0.000 C 
BRANCH   7   8
ATOM      8  C   UNL     1       9.733  11.309  19.135  0.00  0.00    +0.000 A 
ATOM      9  C   UNL     1       9.706  12.152  18.016  0.00  0.00    +0.000 A 
ATOM     10  C   UNL     1      10.332  13.401  18.057  0.00  0.00    +0.000 A 
ATOM     11  C   UNL     1      10.948  13.838  19.227  0.00  0.00    +0.000 A 
ATOM     12  C   UNL     1      10.933  13.029  20.360  0.00  0.00    +0.000 A 
ATOM     13  C   UNL     1      10.327  11.775  20.314  0.00  0.00    +0.000 A 
ENDBRANCH   7   8
ENDBRANCH   3   6
ENDBRANCH   1   2
BRANCH   1  14
ATOM     14  C   UNL     1       6.777   5.684  16.252  0.00  0.00    +0.000 C 
BRANCH  14  15
ATOM     15  C   UNL     1       5.795   5.177  15.194  0.00  0.00    +0.000 C 
BRANCH  15  16
ATOM     16  C   UNL     1       5.255   3.795  15.552  0.00  0.00    +0.000 C 
BRANCH  16  17
ATOM     17  C   UNL     1       4.788   3.744  17.001  0.00  0.00    +0.000 C 
BRANCH  17  18
ATOM     18  C   UNL     1       3.328   4.165  17.104  0.00  0.00    +0.000 C 
BRANCH  18  19
ATOM     19  C   UNL     1       2.451   2.961  17.420  0.00  0.00    +0.000 C 
BRANCH  19  20
ATOM     20  C   UNL     1       2.860   2.337  18.747  0.00  0.00    +0.000 C 
BRANCH  20  21
ATOM     21  C   UNL     1       1.638   2.115  19.631  0.00  0.00    +0.000 C 
BRANCH  21  22
ATOM     22  C   UNL     1       0.960   3.441  19.944  0.00  0.00    +0.000 C 
BRANCH  22  24
ATOM     23  C   UNL     1       2.030   5.659  20.396  0.00  0.00    +0.000 C 
ATOM     24  C   UNL     1       1.788   4.259  20.928  0.00  0.00    +0.000 C 
ENDBRANCH  22  24
ENDBRANCH  21  22
ENDBRANCH  20  21
ENDBRANCH  19  20
ENDBRANCH  18  19
ENDBRANCH  17  18
ENDBRANCH  16  17
ENDBRANCH  15  16
ENDBRANCH  14  15
ENDBRANCH   1  14
TORSDOF 13
ENDMDL
MODEL 8
REMARK VINA RESULT:      -6.0      1.161      1.755
REMARK  Name = 
REMARK  14 active torsions:
REMARK  status: ('A' for Active; 'I' for Inactive)
REMARK    1  A    between atoms: C_1  and  C_2
REMARK    2  A    between atoms: C_2  and  C_3
REMARK    3  A    between atoms: C_3  and  C_4
REMARK    4  A    between atoms: C_4  and  C_5
REMARK    5  A    between atoms: C_5  and  C_6
REMARK    6  A    between atoms: C_6  and  C_7
REMARK    7  A    between atoms: C_7  and  C_8
REMARK    8  A    between atoms: C_8  and  C_9
REMARK    9  A    between atoms: C_9  and  C_10
REMARK   10  A    between atoms: C_10  and  C_11
REMARK   11  A    between atoms: C_11  and  C_12
REMARK   12  A    between atoms: C_12  and  N_13
REMARK   13  A    between atoms: C_14  and  C_16
REMARK   14  A    between atoms: C_17  and  C_18
REMARK                            x       y       z     vdW  Elec       q    Type
REMARK                         _______ _______ _______ _____ _____    ______ ____
ROOT
ATOM      1  C   UNL     1       7.244   4.730  17.183  0.00  0.00    +0.000 C 
ENDROOT
BRANCH   1   2
ATOM      2  N   UNL     1       7.952   5.831  17.793  0.00  0.00    +0.000 N 
ATOM      3  C   UNL     1       7.495   7.115  17.656  0.00  0.00    +0.000 C 
ATOM      4  O   UNL     1       6.484   7.420  17.025  0.00  0.00    +0.000 OA
ATOM      5  H   UNL     1       8.797   5.637  18.316  0.00  0.00    +0.000 HD
BRANCH   3   6
ATOM      6  C   UNL     1       8.339   8.128  18.328  0.00  0.00    +0.000 C 
ATOM      7  C   UNL     1       8.142   9.428  18.047  0.00  0.00    +0.000 C 
BRANCH   7   8
ATOM      8  C   UNL     1       8.988  10.527  18.533  0.00  0.00    +0.000 A 
ATOM      9  C   UNL     1       9.162  11.659  17.726  0.00  0.00    +0.000 A 
ATOM     10  C   UNL     1      10.070  12.657  18.096  0.00  0.00    +0.000 A 
ATOM     11  C   UNL     1      10.774  12.555  19.292  0.00  0.00    +0.000 A 
ATOM     12  C   UNL     1      10.568  11.459  20.125  0.00  0.00    +0.000 A 
ATOM     13  C   UNL     1       9.679  10.454  19.748  0.00  0.00    +0.000 A 
ENDBRANCH   7   8
ENDBRANCH   3   6
ENDBRANCH   1   2
BRANCH   1  14
ATOM     14  C   UNL     1       6.642   5.093  15.827  0.00  0.00    +0.000 C 
BRANCH  14  15
ATOM     15  C   UNL     1       5.472   4.171  15.475  0.00  0.00    +0.000 C 
BRANCH  15  16
ATOM     16  C   UNL     1       4.831   3.582  16.728  0.00  0.00    +0.000 C 
BRANCH  16  17
ATOM     17  C   UNL     1       3.714   4.476  17.248  0.00  0.00    +0.000 C 
BRANCH  17  18
ATOM     18  C   UNL     1       2.372   3.763  17.149  0.00  0.00    +0.000 C 
BRANCH  18  19
ATOM     19  C   UNL     1       2.391   2.480  17.969  0.00  0.00    +0.000 C 
BRANCH  19  20
ATOM     20  C   UNL     1       1.014   2.205  18.559  0.00  0.00    +0.000 C 
BRANCH  20  21
ATOM     21  C   UNL     1       0.824   2.985  19.855  0.00  0.00    +0.000 C 
BRANCH  21  22
ATOM     22  C   UNL     1       2.012   2.773  20.783  0.00  0.00    +0.000 C 
BRANCH  22  24
ATOM     23  C   UNL     1       2.215   5.259  20.568  0.00  0.00    +0.000 C 
ATOM     24  C   UNL     1       2.387   4.069  21.493  0.00  0.00    +0.000 C 
ENDBRANCH  22  24
ENDBRANCH  21  22
ENDBRANCH  20  21
ENDBRANCH  19  20
ENDBRANCH  18  19
ENDBRANCH  17  18
ENDBRANCH  16  17
ENDBRANCH  15  16
ENDBRANCH  14  15
ENDBRANCH   1  14
TORSDOF 13
ENDMDL
MODEL 9
REMARK VINA RESULT:      -6.0      1.430      1.860
REMARK  Name = 
REMARK  14 active torsions:
REMARK  status: ('A' for Active; 'I' for Inactive)
REMARK    1  A    between atoms: C_1  and  C_2
REMARK    2  A    between atoms: C_2  and  C_3
REMARK    3  A    between atoms: C_3  and  C_4
REMARK    4  A    between atoms: C_4  and  C_5
REMARK    5  A    between atoms: C_5  and  C_6
REMARK    6  A    between atoms: C_6  and  C_7
REMARK    7  A    between atoms: C_7  and  C_8
REMARK    8  A    between atoms: C_8  and  C_9
REMARK    9  A    between atoms: C_9  and  C_10
REMARK   10  A    between atoms: C_10  and  C_11
REMARK   11  A    between atoms: C_11  and  C_12
REMARK   12  A    between atoms: C_12  and  N_13
REMARK   13  A    between atoms: C_14  and  C_16
REMARK   14  A    between atoms: C_17  and  C_18
REMARK                            x       y       z     vdW  Elec       q    Type
REMARK                         _______ _______ _______ _____ _____    ______ ____
ROOT
ATOM      1  C   UNL     1       6.032   6.197  17.515  0.00  0.00    +0.000 C 
ENDROOT
BRANCH   1   2
ATOM      2  N   UNL     1       6.707   7.442  17.232  0.00  0.00    +0.000 N 
ATOM      3  C   UNL     1       7.856   7.779  17.898  0.00  0.00    +0.000 C 
ATOM      4  O   UNL     1       8.382   7.075  18.759  0.00  0.00    +0.000 OA
ATOM      5  H   UNL     1       6.310   8.064  16.538  0.00  0.00    +0.000 HD
BRANCH   3   6
ATOM      6  C   UNL     1       8.415   9.091  17.502  0.00  0.00    +0.000 C 
ATOM      7  C   UNL     1       8.873   9.917  18.460  0.00  0.00    +0.000 C 
BRANCH   7   8
ATOM      8  C   UNL     1       9.329  11.294  18.228  0.00  0.00    +0.000 A 
ATOM      9  C   UNL     1      10.692  11.592  18.362  0.00  0.00    +0.000 A 
ATOM     10  C   UNL     1      11.136  12.916  18.287  0.00  0.00    +0.000 A 
ATOM     11  C   UNL     1      10.234  13.944  18.033  0.00  0.00    +0.000 A 
ATOM     12  C   UNL     1       8.886  13.652  17.846  0.00  0.00    +0.000 A 
ATOM     13  C   UNL     1       8.438  12.335  17.941  0.00  0.00    +0.000 A 
ENDBRANCH   7   8
ENDBRANCH   3   6
ENDBRANCH   1   2
BRANCH   1  14
ATOM     14  C   UNL     1       4.750   6.021  16.702  0.00  0.00    +0.000 C 
BRANCH  14  15
ATOM     15  C   UNL     1       3.545   5.773  17.612  0.00  0.00    +0.000 C 
BRANCH  15  16
ATOM     16  C   UNL     1       2.947   4.388  17.381  0.00  0.00    +0.000 C 
BRANCH  16  17
ATOM     17  C   UNL     1       3.959   3.293  17.686  0.00  0.00    +0.000 C 
BRANCH  17  18
ATOM     18  C   UNL     1       3.258   1.951  17.849  0.00  0.00    +0.000 C 
BRANCH  18  19
ATOM     19  C   UNL     1       2.216   2.028  18.957  0.00  0.00    +0.000 C 
BRANCH  19  20
ATOM     20  C   UNL     1       2.875   2.386  20.283  0.00  0.00    +0.000 C 
BRANCH  20  21
ATOM     21  C   UNL     1       1.840   2.921  21.265  0.00  0.00    +0.000 C 
BRANCH  21  22
ATOM     22  C   UNL     1       1.226   4.212  20.741  0.00  0.00    +0.000 C 
BRANCH  22  24
ATOM     23  C   UNL     1       1.526   6.687  20.520  0.00  0.00    +0.000 C 
ATOM     24  C   UNL     1       2.194   5.379  20.898  0.00  0.00    +0.000 C 
ENDBRANCH  22  24
ENDBRANCH  21  22
ENDBRANCH  20  21
ENDBRANCH  19  20
ENDBRANCH  18  19
ENDBRANCH  17  18
ENDBRANCH  16  17
ENDBRANCH  15  16
ENDBRANCH  14  15
ENDBRANCH   1  14
TORSDOF 13
ENDMDL
