MODEL 1
REMARK VINA RESULT:      -7.5      0.000      0.000
REMARK  Name = 
REMARK  7 active torsions:
REMARK  status: ('A' for Active; 'I' for Inactive)
REMARK    1  A    between atoms: C_1  and  O_2
REMARK    2  A    between atoms: O_2  and  C_3
REMARK    3  A    between atoms: C_8  and  O_9
REMARK    4  A    between atoms: O_9  and  C_10
REMARK    5  A    between atoms: C_11  and  C_12
REMARK    6  A    between atoms: C_17  and  O_18
REMARK    7  A    between atoms: O_18  and  C_19
REMARK                            x       y       z     vdW  Elec       q    Type
REMARK                         _______ _______ _______ _____ _____    ______ ____
ROOT
ATOM      1  C   UNL     1       1.669   6.606  20.363  0.00  0.00    +0.000 A 
ATOM      2  C   UNL     1       1.759   5.263  20.794  0.00  0.00    +0.000 A 
ATOM      3  C   UNL     1       2.668   4.380  20.193  0.00  0.00    +0.000 A 
ATOM      4  C   UNL     1       3.521   4.826  19.173  0.00  0.00    +0.000 A 
ATOM      5  C   UNL     1       3.438   6.168  18.762  0.00  0.00    +0.000 A 
ATOM      6  C   UNL     1       2.521   7.056  19.328  0.00  0.00    +0.000 A 
ATOM      7  C   UNL     1       4.562   3.862  18.640  0.00  0.00    +0.000 C 
ATOM      8  N   UNL     1       4.842   2.811  19.347  0.00  0.00    +0.000 NA
ATOM      9  C   UNL     1       4.237   2.538  20.645  0.00  0.00    +0.000 C 
ATOM     10  C   UNL     1       2.761   2.938  20.624  0.00  0.00    +0.000 C 
ENDROOT
BRANCH   7  11
ATOM     11  C   UNL     1       5.335   4.120  17.374  0.00  0.00    +0.000 A 
ATOM     12  C   UNL     1       4.711   3.961  16.118  0.00  0.00    +0.000 A 
ATOM     13  C   UNL     1       5.376   4.262  14.932  0.00  0.00    +0.000 A 
ATOM     14  C   UNL     1       6.691   4.708  14.967  0.00  0.00    +0.000 A 
ATOM     15  C   UNL     1       7.354   4.833  16.185  0.00  0.00    +0.000 A 
ATOM     16  C   UNL     1       6.697   4.533  17.401  0.00  0.00    +0.000 A 
BRANCH  16  17
ATOM     17  O   UNL     1       7.343   4.658  18.593  0.00  0.00    +0.000 OA
ATOM     18  C   UNL     1       7.752   5.846  19.169  0.00  0.00    +0.000 C 
ENDBRANCH  16  17
ENDBRANCH   7  11
BRANCH   1  20
ATOM     19  C   UNL     1       1.118   8.573  21.700  0.00  0.00    +0.000 C 
ATOM     20  O   UNL     1       0.791   7.472  20.935  0.00  0.00    +0.000 OA
ENDBRANCH   1  20
BRANCH   6  21
ATOM     21  O   UNL     1       2.579   8.335  18.862  0.00  0.00    +0.000 OA
ATOM     22  C   UNL     1       1.888   8.928  17.824  0.00  0.00    +0.000 C 
ENDBRANCH   6  21
TORSDOF 4
ENDMDL
MODEL 2
REMARK VINA RESULT:      -6.9      2.381      6.391
REMARK  Name = 
REMARK  7 active torsions:
REMARK  status: ('A' for Active; 'I' for Inactive)
REMARK    1  A    between atoms: C_1  and  O_2
REMARK    2  A    between atoms: O_2  and  C_3
REMARK    3  A    between atoms: C_8  and  O_9
REMARK    4  A    between atoms: O_9  and  C_10
REMARK    5  A    between atoms: C_11  and  C_12
REMARK    6  A    between atoms: C_17  and  O_18
REMARK    7  A    between atoms: O_18  and  C_19
REMARK                            x       y       z     vdW  Elec       q    Type
REMARK                         _______ _______ _______ _____ _____    ______ ____
ROOT
ATOM      1  C   UNL     1       6.986   5.129  14.260  0.00  0.00    +0.000 A 
ATOM      2  C   UNL     1       7.487   5.718  15.444  0.00  0.00    +0.000 A 
ATOM      3  C   UNL     1       6.844   5.511  16.672  0.00  0.00    +0.000 A 
ATOM      4  C   UNL     1       5.707   4.691  16.748  0.00  0.00    +0.000 A 
ATOM      5  C   UNL     1       5.227   4.094  15.570  0.00  0.00    +0.000 A 
ATOM      6  C   UNL     1       5.836   4.310  14.333  0.00  0.00    +0.000 A 
ATOM      7  C   UNL     1       5.121   4.408  18.117  0.00  0.00    +0.000 C 
ATOM      8  N   UNL     1       5.856   4.647  19.159  0.00  0.00    +0.000 NA
ATOM      9  C   UNL     1       7.228   5.130  19.074  0.00  0.00    +0.000 C 
ATOM     10  C   UNL     1       7.350   6.151  17.940  0.00  0.00    +0.000 C 
ENDROOT
BRANCH   7  11
ATOM     11  C   UNL     1       3.763   3.787  18.306  0.00  0.00    +0.000 A 
ATOM     12  C   UNL     1       3.646   2.403  18.556  0.00  0.00    +0.000 A 
ATOM     13  C   UNL     1       2.410   1.811  18.807  0.00  0.00    +0.000 A 
ATOM     14  C   UNL     1       1.255   2.582  18.792  0.00  0.00    +0.000 A 
ATOM     15  C   UNL     1       1.327   3.943  18.504  0.00  0.00    +0.000 A 
ATOM     16  C   UNL     1       2.571   4.564  18.247  0.00  0.00    +0.000 A 
BRANCH  16  17
ATOM     17  O   UNL     1       2.643   5.894  17.968  0.00  0.00    +0.000 OA
ATOM     18  C   UNL     1       2.560   6.918  18.892  0.00  0.00    +0.000 C 
ENDBRANCH  16  17
ENDBRANCH   7  11
BRANCH   1  20
ATOM     19  C   UNL     1       8.824   5.926  12.865  0.00  0.00    +0.000 C 
ATOM     20  O   UNL     1       7.599   5.323  13.063  0.00  0.00    +0.000 OA
ENDBRANCH   1  20
BRANCH   6  21
ATOM     21  O   UNL     1       5.287   3.636  13.283  0.00  0.00    +0.000 OA
ATOM     22  C   UNL     1       5.900   3.051  12.192  0.00  0.00    +0.000 C 
ENDBRANCH   6  21
TORSDOF 4
ENDMDL
MODEL 3
REMARK VINA RESULT:      -6.9      2.226      3.731
REMARK  Name = 
REMARK  7 active torsions:
REMARK  status: ('A' for Active; 'I' for Inactive)
REMARK    1  A    between atoms: C_1  and  O_2
REMARK    2  A    between atoms: O_2  and  C_3
REMARK    3  A    between atoms: C_8  and  O_9
REMARK    4  A    between atoms: O_9  and  C_10
REMARK    5  A    between atoms: C_11  and  C_12
REMARK    6  A    between atoms: C_17  and  O_18
REMARK    7  A    between atoms: O_18  and  C_19
REMARK                            x       y       z     vdW  Elec       q    Type
REMARK                         _______ _______ _______ _____ _____    ______ ____
ROOT
ATOM      1  C   UNL     1       1.693   3.869  20.220  0.00  0.00    +0.000 A 
ATOM      2  C   UNL     1       1.649   5.282  20.256  0.00  0.00    +0.000 A 
ATOM      3  C   UNL     1       2.443   6.043  19.387  0.00  0.00    +0.000 A 
ATOM      4  C   UNL     1       3.275   5.412  18.449  0.00  0.00    +0.000 A 
ATOM      5  C   UNL     1       3.299   4.007  18.408  0.00  0.00    +0.000 A 
ATOM      6  C   UNL     1       2.537   3.230  19.283  0.00  0.00    +0.000 A 
ATOM      7  C   UNL     1       4.023   6.281  17.459  0.00  0.00    +0.000 C 
ATOM      8  N   UNL     1       3.627   7.505  17.297  0.00  0.00    +0.000 NA
ATOM      9  C   UNL     1       2.474   8.068  17.988  0.00  0.00    +0.000 C 
ATOM     10  C   UNL     1       2.427   7.550  19.427  0.00  0.00    +0.000 C 
ENDROOT
BRANCH   7  11
ATOM     11  C   UNL     1       5.144   5.755  16.602  0.00  0.00    +0.000 A 
ATOM     12  C   UNL     1       4.861   5.164  15.351  0.00  0.00    +0.000 A 
ATOM     13  C   UNL     1       5.880   4.734  14.503  0.00  0.00    +0.000 A 
ATOM     14  C   UNL     1       7.207   4.861  14.892  0.00  0.00    +0.000 A 
ATOM     15  C   UNL     1       7.522   5.398  16.139  0.00  0.00    +0.000 A 
ATOM     16  C   UNL     1       6.503   5.840  17.015  0.00  0.00    +0.000 A 
BRANCH  16  17
ATOM     17  O   UNL     1       6.809   6.367  18.232  0.00  0.00    +0.000 OA
ATOM     18  C   UNL     1       7.619   5.778  19.185  0.00  0.00    +0.000 C 
ENDBRANCH  16  17
ENDBRANCH   7  11
BRANCH   1  20
ATOM     19  C   UNL     1       1.385   2.379  22.129  0.00  0.00    +0.000 C 
ATOM     20  O   UNL     1       0.930   3.119  21.058  0.00  0.00    +0.000 OA
ENDBRANCH   1  20
BRANCH   6  21
ATOM     21  O   UNL     1       2.628   1.882  19.103  0.00  0.00    +0.000 OA
ATOM     22  C   UNL     1       3.653   1.132  18.562  0.00  0.00    +0.000 C 
ENDBRANCH   6  21
TORSDOF 4
ENDMDL
MODEL 4
REMARK VINA RESULT:      -6.7      3.091      6.306
REMARK  Name = 
REMARK  7 active torsions:
REMARK  status: ('A' for Active; 'I' for Inactive)
REMARK    1  A    between atoms: C_1  and  O_2
REMARK    2  A    between atoms: O_2  and  C_3
REMARK    3  A    between atoms: C_8  and  O_9
REMARK    4  A    between atoms: O_9  and  C_10
REMARK    5  A    between atoms: C_11  and  C_12
REMARK    6  A    between atoms: C_17  and  O_18
REMARK    7  A    between atoms: O_18  and  C_19
REMARK                            x       y       z     vdW  Elec       q    Type
REMARK                         _______ _______ _______ _____ _____    ______ ____
ROOT
ATOM      1  C   UNL     1       7.045   5.032  14.304  0.00  0.00    +0.000 A 
ATOM      2  C   UNL     1       7.454   5.800  15.418  0.00  0.00    +0.000 A 
ATOM      3  C   UNL     1       6.772   5.707  16.639  0.00  0.00    +0.000 A 
ATOM      4  C   UNL     1       5.687   4.828  16.780  0.00  0.00    +0.000 A 
ATOM      5  C   UNL     1       5.297   4.055  15.673  0.00  0.00    +0.000 A 
ATOM      6  C   UNL     1       5.947   4.152  14.440  0.00  0.00    +0.000 A 
ATOM      7  C   UNL     1       5.059   4.683  18.152  0.00  0.00    +0.000 C 
ATOM      8  N   UNL     1       5.731   5.102  19.180  0.00  0.00    +0.000 NA
ATOM      9  C   UNL     1       7.072   5.663  19.081  0.00  0.00    +0.000 C 
ATOM     10  C   UNL     1       7.179   6.536  17.830  0.00  0.00    +0.000 C 
ENDROOT
BRANCH   7  11
ATOM     11  C   UNL     1       3.736   4.000  18.371  0.00  0.00    +0.000 A 
ATOM     12  C   UNL     1       2.548   4.583  17.879  0.00  0.00    +0.000 A 
ATOM     13  C   UNL     1       1.318   3.942  18.001  0.00  0.00    +0.000 A 
ATOM     14  C   UNL     1       1.237   2.711  18.638  0.00  0.00    +0.000 A 
ATOM     15  C   UNL     1       2.381   2.126  19.176  0.00  0.00    +0.000 A 
ATOM     16  C   UNL     1       3.640   2.760  19.063  0.00  0.00    +0.000 A 
BRANCH  16  17
ATOM     17  O   UNL     1       4.759   2.188  19.586  0.00  0.00    +0.000 OA
ATOM     18  C   UNL     1       4.857   1.597  20.832  0.00  0.00    +0.000 C 
ENDBRANCH  16  17
ENDBRANCH   7  11
BRANCH   1  20
ATOM     19  C   UNL     1       8.745   5.959  12.818  0.00  0.00    +0.000 C 
ATOM     20  O   UNL     1       7.697   5.113  13.114  0.00  0.00    +0.000 OA
ENDBRANCH   1  20
BRANCH   6  21
ATOM     21  O   UNL     1       5.489   3.314  13.468  0.00  0.00    +0.000 OA
ATOM     22  C   UNL     1       4.955   3.608  12.229  0.00  0.00    +0.000 C 
ENDBRANCH   6  21
TORSDOF 4
ENDMDL
MODEL 5
REMARK VINA RESULT:      -6.4      5.065      8.098
REMARK  Name = 
REMARK  7 active torsions:
REMARK  status: ('A' for Active; 'I' for Inactive)
REMARK    1  A    between atoms: C_1  and  O_2
REMARK    2  A    between atoms: O_2  and  C_3
REMARK    3  A    between atoms: C_8  and  O_9
REMARK    4  A    between atoms: O_9  and  C_10
REMARK    5  A    between atoms: C_11  and  C_12
REMARK    6  A    between atoms: C_17  and  O_18
REMARK    7  A    between atoms: O_18  and  C_19
REMARK                            x       y       z     vdW  Elec       q    Type
REMARK                         _______ _______ _______ _____ _____    ______ ____
ROOT
ATOM      1  C   UNL     1      -3.888  11.405  17.503  0.00  0.00    +0.000 A 
ATOM      2  C   UNL     1      -3.502  12.154  18.638  0.00  0.00    +0.000 A 
ATOM      3  C   UNL     1      -2.274  11.912  19.269  0.00  0.00    +0.000 A 
ATOM      4  C   UNL     1      -1.397  10.938  18.766  0.00  0.00    +0.000 A 
ATOM      5  C   UNL     1      -1.781  10.210  17.626  0.00  0.00    +0.000 A 
ATOM      6  C   UNL     1      -3.011  10.418  16.999  0.00  0.00    +0.000 A 
ATOM      7  C   UNL     1      -0.036  10.798  19.416  0.00  0.00    +0.000 C 
ATOM      8  N   UNL     1       0.387  11.768  20.166  0.00  0.00    +0.000 NA
ATOM      9  C   UNL     1      -0.364  12.999  20.377  0.00  0.00    +0.000 C 
ATOM     10  C   UNL     1      -1.856  12.684  20.495  0.00  0.00    +0.000 C 
ENDROOT
BRANCH   7  11
ATOM     11  C   UNL     1       0.870   9.624  19.158  0.00  0.00    +0.000 A 
ATOM     12  C   UNL     1       1.526   9.496  17.914  0.00  0.00    +0.000 A 
ATOM     13  C   UNL     1       2.427   8.461  17.670  0.00  0.00    +0.000 A 
ATOM     14  C   UNL     1       2.679   7.513  18.653  0.00  0.00    +0.000 A 
ATOM     15  C   UNL     1       2.016   7.582  19.876  0.00  0.00    +0.000 A 
ATOM     16  C   UNL     1       1.098   8.623  20.145  0.00  0.00    +0.000 A 
BRANCH  16  17
ATOM     17  O   UNL     1       0.451   8.693  21.341  0.00  0.00    +0.000 OA
ATOM     18  C   UNL     1       1.005   9.112  22.535  0.00  0.00    +0.000 C 
ENDBRANCH  16  17
ENDBRANCH   7  11
BRANCH   1  20
ATOM     19  C   UNL     1      -6.248  12.029  17.491  0.00  0.00    +0.000 C 
ATOM     20  O   UNL     1      -5.077  11.628  16.883  0.00  0.00    +0.000 OA
ENDBRANCH   1  20
BRANCH   6  21
ATOM     21  O   UNL     1      -3.234   9.669  15.881  0.00  0.00    +0.000 OA
ATOM     22  C   UNL     1      -3.203  10.039  14.551  0.00  0.00    +0.000 C 
ENDBRANCH   6  21
TORSDOF 4
ENDMDL
MODEL 6
REMARK VINA RESULT:      -6.2      2.015      5.981
REMARK  Name = 
REMARK  7 active torsions:
REMARK  status: ('A' for Active; 'I' for Inactive)
REMARK    1  A    between atoms: C_1  and  O_2
REMARK    2  A    between atoms: O_2  and  C_3
REMARK    3  A    between atoms: C_8  and  O_9
REMARK    4  A    between atoms: O_9  and  C_10
REMARK    5  A    between atoms: C_11  and  C_12
REMARK    6  A    between atoms: C_17  and  O_18
REMARK    7  A    between atoms: O_18  and  C_19
REMARK                            x       y       z     vdW  Elec       q    Type
REMARK                         _______ _______ _______ _____ _____    ______ ____
ROOT
ATOM      1  C   UNL     1       6.455   5.038  16.182  0.00  0.00    +0.000 A 
ATOM      2  C   UNL     1       5.578   3.937  16.311  0.00  0.00    +0.000 A 
ATOM      3  C   UNL     1       4.354   4.074  16.983  0.00  0.00    +0.000 A 
ATOM      4  C   UNL     1       3.972   5.315  17.514  0.00  0.00    +0.000 A 
ATOM      5  C   UNL     1       4.842   6.409  17.365  0.00  0.00    +0.000 A 
ATOM      6  C   UNL     1       6.076   6.287  16.723  0.00  0.00    +0.000 A 
ATOM      7  C   UNL     1       2.591   5.435  18.127  0.00  0.00    +0.000 C 
ATOM      8  N   UNL     1       1.717   4.517  17.851  0.00  0.00    +0.000 NA
ATOM      9  C   UNL     1       1.986   3.405  16.947  0.00  0.00    +0.000 C 
ATOM     10  C   UNL     1       3.417   2.905  17.151  0.00  0.00    +0.000 C 
ENDROOT
BRANCH   7  11
ATOM     11  C   UNL     1       2.176   6.612  18.968  0.00  0.00    +0.000 A 
ATOM     12  C   UNL     1       1.960   7.871  18.366  0.00  0.00    +0.000 A 
ATOM     13  C   UNL     1       1.505   8.961  19.105  0.00  0.00    +0.000 A 
ATOM     14  C   UNL     1       1.276   8.830  20.468  0.00  0.00    +0.000 A 
ATOM     15  C   UNL     1       1.522   7.616  21.104  0.00  0.00    +0.000 A 
ATOM     16  C   UNL     1       1.984   6.496  20.374  0.00  0.00    +0.000 A 
BRANCH  16  17
ATOM     17  O   UNL     1       2.223   5.308  20.994  0.00  0.00    +0.000 OA
ATOM     18  C   UNL     1       1.376   4.215  20.998  0.00  0.00    +0.000 C 
ENDBRANCH  16  17
ENDBRANCH   7  11
BRANCH   1  20
ATOM     19  C   UNL     1       7.837   4.991  14.171  0.00  0.00    +0.000 C 
ATOM     20  O   UNL     1       7.644   4.918  15.534  0.00  0.00    +0.000 OA
ENDBRANCH   1  20
BRANCH   6  21
ATOM     21  O   UNL     1       6.798   7.438  16.616  0.00  0.00    +0.000 OA
ATOM     22  C   UNL     1       7.729   7.980  17.481  0.00  0.00    +0.000 C 
ENDBRANCH   6  21
TORSDOF 4
ENDMDL
MODEL 7
REMARK VINA RESULT:      -6.0      7.559     11.183
REMARK  Name = 
REMARK  7 active torsions:
REMARK  status: ('A' for Active; 'I' for Inactive)
REMARK    1  A    between atoms: C_1  and  O_2
REMARK    2  A    between atoms: O_2  and  C_3
REMARK    3  A    between atoms: C_8  and  O_9
REMARK    4  A    between atoms: O_9  and  C_10
REMARK    5  A    between atoms: C_11  and  C_12
REMARK    6  A    between atoms: C_17  and  O_18
REMARK    7  A    between atoms: O_18  and  C_19
REMARK                            x       y       z     vdW  Elec       q    Type
REMARK                         _______ _______ _______ _____ _____    ______ ____
ROOT
ATOM      1  C   UNL     1      -5.511  13.996  23.294  0.00  0.00    +0.000 A 
ATOM      2  C   UNL     1      -4.487  14.673  23.996  0.00  0.00    +0.000 A 
ATOM      3  C   UNL     1      -3.158  14.234  23.919  0.00  0.00    +0.000 A 
ATOM      4  C   UNL     1      -2.821  13.129  23.122  0.00  0.00    +0.000 A 
ATOM      5  C   UNL     1      -3.842  12.473  22.413  0.00  0.00    +0.000 A 
ATOM      6  C   UNL     1      -5.176  12.878  22.497  0.00  0.00    +0.000 A 
ATOM      7  C   UNL     1      -1.355  12.768  22.984  0.00  0.00    +0.000 C 
ATOM      8  N   UNL     1      -0.472  13.657  23.320  0.00  0.00    +0.000 NA
ATOM      9  C   UNL     1      -0.821  14.995  23.780  0.00  0.00    +0.000 C 
ATOM     10  C   UNL     1      -2.057  14.929  24.679  0.00  0.00    +0.000 C 
ENDROOT
BRANCH   7  11
ATOM     11  C   UNL     1      -0.893  11.461  22.398  0.00  0.00    +0.000 A 
ATOM     12  C   UNL     1      -0.780  10.318  23.218  0.00  0.00    +0.000 A 
ATOM     13  C   UNL     1      -0.425   9.078  22.693  0.00  0.00    +0.000 A 
ATOM     14  C   UNL     1      -0.151   8.951  21.337  0.00  0.00    +0.000 A 
ATOM     15  C   UNL     1      -0.208  10.066  20.505  0.00  0.00    +0.000 A 
ATOM     16  C   UNL     1      -0.566  11.335  21.018  0.00  0.00    +0.000 A 
BRANCH  16  17
ATOM     17  O   UNL     1      -0.625  12.425  20.206  0.00  0.00    +0.000 OA
ATOM     18  C   UNL     1      -1.490  12.593  19.141  0.00  0.00    +0.000 C 
ENDBRANCH  16  17
ENDBRANCH   7  11
BRANCH   1  20
ATOM     19  C   UNL     1      -7.755  13.963  24.252  0.00  0.00    +0.000 C 
ATOM     20  O   UNL     1      -6.803  14.411  23.360  0.00  0.00    +0.000 OA
ENDBRANCH   1  20
BRANCH   6  21
ATOM     21  O   UNL     1      -6.052  12.175  21.725  0.00  0.00    +0.000 OA
ATOM     22  C   UNL     1      -6.658  12.525  20.535  0.00  0.00    +0.000 C 
ENDBRANCH   6  21
TORSDOF 4
ENDMDL
MODEL 8
REMARK VINA RESULT:      -5.9      2.576      6.240
REMARK  Name = 
REMARK  7 active torsions:
REMARK  status: ('A' for Active; 'I' for Inactive)
REMARK    1  A    between atoms: C_1  and  O_2
REMARK    2  A    between atoms: O_2  and  C_3
REMARK    3  A    between atoms: C_8  and  O_9
REMARK    4  A    between atoms: O_9  and  C_10
REMARK    5  A    between atoms: C_11  and  C_12
REMARK    6  A    between atoms: C_17  and  O_18
REMARK    7  A    between atoms: O_18  and  C_19
REMARK                            x       y       z     vdW  Elec       q    Type
REMARK                         _______ _______ _______ _____ _____    ______ ____
ROOT
ATOM      1  C   UNL     1       6.805   5.182  14.733  0.00  0.00    +0.000 A 
ATOM      2  C   UNL     1       7.561   5.748  15.785  0.00  0.00    +0.000 A 
ATOM      3  C   UNL     1       7.056   5.773  17.093  0.00  0.00    +0.000 A 
ATOM      4  C   UNL     1       5.803   5.212  17.381  0.00  0.00    +0.000 A 
ATOM      5  C   UNL     1       5.066   4.635  16.332  0.00  0.00    +0.000 A 
ATOM      6  C   UNL     1       5.539   4.623  15.018  0.00  0.00    +0.000 A 
ATOM      7  C   UNL     1       5.357   5.163  18.828  0.00  0.00    +0.000 C 
ATOM      8  N   UNL     1       6.254   5.328  19.751  0.00  0.00    +0.000 NA
ATOM      9  C   UNL     1       7.671   5.513  19.462  0.00  0.00    +0.000 C 
ATOM     10  C   UNL     1       7.837   6.394  18.223  0.00  0.00    +0.000 C 
ENDROOT
BRANCH   7  11
ATOM     11  C   UNL     1       3.941   4.849  19.231  0.00  0.00    +0.000 A 
ATOM     12  C   UNL     1       3.077   5.886  19.645  0.00  0.00    +0.000 A 
ATOM     13  C   UNL     1       1.741   5.639  19.955  0.00  0.00    +0.000 A 
ATOM     14  C   UNL     1       1.239   4.346  19.882  0.00  0.00    +0.000 A 
ATOM     15  C   UNL     1       2.074   3.292  19.521  0.00  0.00    +0.000 A 
ATOM     16  C   UNL     1       3.433   3.520  19.203  0.00  0.00    +0.000 A 
BRANCH  16  17
ATOM     17  O   UNL     1       4.249   2.490  18.847  0.00  0.00    +0.000 OA
ATOM     18  C   UNL     1       3.840   1.210  18.526  0.00  0.00    +0.000 C 
ENDBRANCH  16  17
ENDBRANCH   7  11
BRANCH   1  20
ATOM     19  C   UNL     1       8.411   5.798  13.000  0.00  0.00    +0.000 C 
ATOM     20  O   UNL     1       7.282   5.152  13.460  0.00  0.00    +0.000 OA
ENDBRANCH   1  20
BRANCH   6  21
ATOM     21  O   UNL     1       4.738   3.994  14.111  0.00  0.00    +0.000 OA
ATOM     22  C   UNL     1       5.049   3.470  12.873  0.00  0.00    +0.000 C 
ENDBRANCH   6  21
TORSDOF 4
ENDMDL
MODEL 9
REMARK VINA RESULT:      -5.9      2.732      4.440
REMARK  Name = 
REMARK  7 active torsions:
REMARK  status: ('A' for Active; 'I' for Inactive)
REMARK    1  A    between atoms: C_1  and  O_2
REMARK    2  A    between atoms: O_2  and  C_3
REMARK    3  A    between atoms: C_8  and  O_9
REMARK    4  A    between atoms: O_9  and  C_10
REMARK    5  A    between atoms: C_11  and  C_12
REMARK    6  A    between atoms: C_17  and  O_18
REMARK    7  A    between atoms: O_18  and  C_19
REMARK                            x       y       z     vdW  Elec       q    Type
REMARK                         _______ _______ _______ _____ _____    ______ ____
ROOT
ATOM      1  C   UNL     1       3.979   4.258  19.176  0.00  0.00    +0.000 A 
ATOM      2  C   UNL     1       5.185   4.969  19.375  0.00  0.00    +0.000 A 
ATOM      3  C   UNL     1       6.037   5.246  18.297  0.00  0.00    +0.000 A 
ATOM      4  C   UNL     1       5.691   4.842  16.998  0.00  0.00    +0.000 A 
ATOM      5  C   UNL     1       4.483   4.151  16.806  0.00  0.00    +0.000 A 
ATOM      6  C   UNL     1       3.633   3.843  17.870  0.00  0.00    +0.000 A 
ATOM      7  C   UNL     1       6.591   5.267  15.855  0.00  0.00    +0.000 C 
ATOM      8  N   UNL     1       7.432   6.233  16.064  0.00  0.00    +0.000 NA
ATOM      9  C   UNL     1       7.520   6.954  17.327  0.00  0.00    +0.000 C 
ATOM     10  C   UNL     1       7.338   5.982  18.494  0.00  0.00    +0.000 C 
ENDROOT
BRANCH   7  11
ATOM     11  C   UNL     1       6.487   4.672  14.476  0.00  0.00    +0.000 A 
ATOM     12  C   UNL     1       5.432   3.788  14.164  0.00  0.00    +0.000 A 
ATOM     13  C   UNL     1       5.266   3.278  12.878  0.00  0.00    +0.000 A 
ATOM     14  C   UNL     1       6.163   3.620  11.875  0.00  0.00    +0.000 A 
ATOM     15  C   UNL     1       7.243   4.454  12.157  0.00  0.00    +0.000 A 
ATOM     16  C   UNL     1       7.430   4.982  13.455  0.00  0.00    +0.000 A 
BRANCH  16  17
ATOM     17  O   UNL     1       8.483   5.800  13.732  0.00  0.00    +0.000 OA
ATOM     18  C   UNL     1       9.464   6.182  12.836  0.00  0.00    +0.000 C 
ENDBRANCH  16  17
ENDBRANCH   7  11
BRANCH   1  20
ATOM     19  C   UNL     1       2.247   4.858  20.788  0.00  0.00    +0.000 C 
ATOM     20  O   UNL     1       3.144   3.982  20.213  0.00  0.00    +0.000 OA
ENDBRANCH   1  20
BRANCH   6  21
ATOM     21  O   UNL     1       2.476   3.205  17.532  0.00  0.00    +0.000 OA
ATOM     22  C   UNL     1       1.823   2.167  18.166  0.00  0.00    +0.000 C 
ENDBRANCH   6  21
TORSDOF 4
ENDMDL
