MODEL 1
REMARK VINA RESULT:      -7.1      0.000      0.000
REMARK  Name = 
REMARK  1 active torsions:
REMARK  status: ('A' for Active; 'I' for Inactive)
REMARK    1  A    between atoms: C_6  and  C_7
REMARK                            x       y       z     vdW  Elec       q    Type
REMARK                         _______ _______ _______ _____ _____    ______ ____
ROOT
ATOM      1  C   UNL     1       7.561   6.873  17.784  0.00  0.00    +0.000 A 
ATOM      2  C   UNL     1       7.804   6.130  18.938  0.00  0.00    +0.000 A 
ATOM      3  N   UNL     1       6.898   5.368  19.602  0.00  0.00    +0.000 NA
ATOM      4  C   UNL     1       5.691   5.396  19.009  0.00  0.00    +0.000 A 
ATOM      5  N   UNL     1       4.566   4.734  19.407  0.00  0.00    +0.000 N 
ATOM      6  C   UNL     1       3.567   5.018  18.502  0.00  0.00    +0.000 A 
ATOM      7  N   UNL     1       3.995   5.852  17.571  0.00  0.00    +0.000 NA
ATOM      8  C   UNL     1       5.312   6.087  17.867  0.00  0.00    +0.000 A 
ATOM      9  C   UNL     1       6.281   6.864  17.223  0.00  0.00    +0.000 A 
ATOM     10  H   UNL     1       4.508   4.130  20.210  0.00  0.00    +0.000 HD
ENDROOT
BRANCH   6  11
ATOM     11  C   UNL     1       2.207   4.415  18.594  0.00  0.00    +0.000 C 
ATOM     12  C   UNL     1       2.173   2.962  18.128  0.00  0.00    +0.000 C 
ATOM     13  C   UNL     1       0.894   2.410  18.745  0.00  0.00    +0.000 C 
ATOM     14  C   UNL     1       0.678   3.199  20.035  0.00  0.00    +0.000 C 
ATOM     15  C   UNL     1       1.718   4.315  20.039  0.00  0.00    +0.000 C 
ENDBRANCH   6  11
TORSDOF 1
ENDMDL
MODEL 2
REMARK VINA RESULT:      -6.8      1.392      5.453
REMARK  Name = 
REMARK  1 active torsions:
REMARK  status: ('A' for Active; 'I' for Inactive)
REMARK    1  A    between atoms: C_6  and  C_7
REMARK                            x       y       z     vdW  Elec       q    Type
REMARK                         _______ _______ _______ _____ _____    ______ ____
ROOT
ATOM      1  C   UNL     1       1.087   2.930  18.554  0.00  0.00    +0.000 A 
ATOM      2  C   UNL     1       1.914   1.923  19.050  0.00  0.00    +0.000 A 
ATOM      3  N   UNL     1       3.271   1.944  19.071  0.00  0.00    +0.000 NA
ATOM      4  C   UNL     1       3.761   3.083  18.549  0.00  0.00    +0.000 A 
ATOM      5  N   UNL     1       5.075   3.432  18.431  0.00  0.00    +0.000 N 
ATOM      6  C   UNL     1       5.130   4.690  17.872  0.00  0.00    +0.000 A 
ATOM      7  N   UNL     1       3.918   5.139  17.600  0.00  0.00    +0.000 NA
ATOM      8  C   UNL     1       3.059   4.159  18.024  0.00  0.00    +0.000 A 
ATOM      9  C   UNL     1       1.662   4.085  18.018  0.00  0.00    +0.000 A 
ATOM     10  H   UNL     1       5.851   2.864  18.731  0.00  0.00    +0.000 HD
ENDROOT
BRANCH   6  11
ATOM     11  C   UNL     1       6.414   5.413  17.648  0.00  0.00    +0.000 C 
ATOM     12  C   UNL     1       6.208   6.838  17.141  0.00  0.00    +0.000 C 
ATOM     13  C   UNL     1       7.530   7.530  17.449  0.00  0.00    +0.000 C 
ATOM     14  C   UNL     1       8.091   6.828  18.684  0.00  0.00    +0.000 C 
ATOM     15  C   UNL     1       7.189   5.627  18.949  0.00  0.00    +0.000 C 
ENDBRANCH   6  11
TORSDOF 1
ENDMDL
MODEL 3
REMARK VINA RESULT:      -6.8      0.759      1.586
REMARK  Name = 
REMARK  1 active torsions:
REMARK  status: ('A' for Active; 'I' for Inactive)
REMARK    1  A    between atoms: C_6  and  C_7
REMARK                            x       y       z     vdW  Elec       q    Type
REMARK                         _______ _______ _______ _____ _____    ______ ____
ROOT
ATOM      1  C   UNL     1       7.888   6.485  18.517  0.00  0.00    +0.000 A 
ATOM      2  C   UNL     1       7.384   7.120  17.382  0.00  0.00    +0.000 A 
ATOM      3  N   UNL     1       6.126   6.989  16.888  0.00  0.00    +0.000 NA
ATOM      4  C   UNL     1       5.380   6.156  17.634  0.00  0.00    +0.000 A 
ATOM      5  N   UNL     1       4.075   5.815  17.427  0.00  0.00    +0.000 N 
ATOM      6  C   UNL     1       3.694   4.964  18.440  0.00  0.00    +0.000 A 
ATOM      7  N   UNL     1       4.703   4.722  19.259  0.00  0.00    +0.000 NA
ATOM      8  C   UNL     1       5.751   5.462  18.778  0.00  0.00    +0.000 A 
ATOM      9  C   UNL     1       7.060   5.625  19.243  0.00  0.00    +0.000 A 
ATOM     10  H   UNL     1       3.503   6.160  16.673  0.00  0.00    +0.000 HD
ENDROOT
BRANCH   6  11
ATOM     11  C   UNL     1       2.307   4.433  18.563  0.00  0.00    +0.000 C 
ATOM     12  C   UNL     1       2.199   2.964  18.162  0.00  0.00    +0.000 C 
ATOM     13  C   UNL     1       0.898   2.504  18.807  0.00  0.00    +0.000 C 
ATOM     14  C   UNL     1       0.727   3.360  20.061  0.00  0.00    +0.000 C 
ATOM     15  C   UNL     1       1.820   4.423  20.013  0.00  0.00    +0.000 C 
ENDBRANCH   6  11
TORSDOF 1
ENDMDL
MODEL 4
REMARK VINA RESULT:      -6.8      0.767      1.247
REMARK  Name = 
REMARK  1 active torsions:
REMARK  status: ('A' for Active; 'I' for Inactive)
REMARK    1  A    between atoms: C_6  and  C_7
REMARK                            x       y       z     vdW  Elec       q    Type
REMARK                         _______ _______ _______ _____ _____    ______ ____
ROOT
ATOM      1  C   UNL     1       7.325   7.115  17.501  0.00  0.00    +0.000 A 
ATOM      2  C   UNL     1       7.951   6.515  18.593  0.00  0.00    +0.000 A 
ATOM      3  N   UNL     1       7.425   5.538  19.376  0.00  0.00    +0.000 NA
ATOM      4  C   UNL     1       6.191   5.186  18.974  0.00  0.00    +0.000 A 
ATOM      5  N   UNL     1       5.389   4.231  19.528  0.00  0.00    +0.000 N 
ATOM      6  C   UNL     1       4.228   4.174  18.790  0.00  0.00    +0.000 A 
ATOM      7  N   UNL     1       4.241   5.068  17.818  0.00  0.00    +0.000 NA
ATOM      8  C   UNL     1       5.455   5.696  17.913  0.00  0.00    +0.000 A 
ATOM      9  C   UNL     1       6.038   6.707  17.142  0.00  0.00    +0.000 A 
ATOM     10  H   UNL     1       5.635   3.662  20.321  0.00  0.00    +0.000 HD
ENDROOT
BRANCH   6  11
ATOM     11  C   UNL     1       3.141   3.196  19.079  0.00  0.00    +0.000 C 
ATOM     12  C   UNL     1       2.427   3.480  20.398  0.00  0.00    +0.000 C 
ATOM     13  C   UNL     1       1.106   2.732  20.266  0.00  0.00    +0.000 C 
ATOM     14  C   UNL     1       0.781   2.715  18.774  0.00  0.00    +0.000 C 
ATOM     15  C   UNL     1       2.006   3.277  18.058  0.00  0.00    +0.000 C 
ENDBRANCH   6  11
TORSDOF 1
ENDMDL
MODEL 5
REMARK VINA RESULT:      -6.8      1.269      2.035
REMARK  Name = 
REMARK  1 active torsions:
REMARK  status: ('A' for Active; 'I' for Inactive)
REMARK    1  A    between atoms: C_6  and  C_7
REMARK                            x       y       z     vdW  Elec       q    Type
REMARK                         _______ _______ _______ _____ _____    ______ ____
ROOT
ATOM      1  C   UNL     1       8.097   6.962  18.518  0.00  0.00    +0.000 A 
ATOM      2  C   UNL     1       7.411   7.474  17.418  0.00  0.00    +0.000 A 
ATOM      3  N   UNL     1       6.269   6.970  16.884  0.00  0.00    +0.000 NA
ATOM      4  C   UNL     1       5.842   5.884  17.554  0.00  0.00    +0.000 A 
ATOM      5  N   UNL     1       4.725   5.145  17.292  0.00  0.00    +0.000 N 
ATOM      6  C   UNL     1       4.649   4.145  18.235  0.00  0.00    +0.000 A 
ATOM      7  N   UNL     1       5.680   4.194  19.060  0.00  0.00    +0.000 NA
ATOM      8  C   UNL     1       6.422   5.273  18.656  0.00  0.00    +0.000 A 
ATOM      9  C   UNL     1       7.602   5.826  19.164  0.00  0.00    +0.000 A 
ATOM     10  H   UNL     1       4.072   5.334  16.549  0.00  0.00    +0.000 HD
ENDROOT
BRANCH   6  11
ATOM     11  C   UNL     1       3.517   3.177  18.288  0.00  0.00    +0.000 C 
ATOM     12  C   UNL     1       3.192   2.726  19.709  0.00  0.00    +0.000 C 
ATOM     13  C   UNL     1       1.774   2.179  19.604  0.00  0.00    +0.000 C 
ATOM     14  C   UNL     1       1.107   2.962  18.475  0.00  0.00    +0.000 C 
ATOM     15  C   UNL     1       2.201   3.803  17.825  0.00  0.00    +0.000 C 
ENDBRANCH   6  11
TORSDOF 1
ENDMDL
MODEL 6
REMARK VINA RESULT:      -6.6      1.321      5.569
REMARK  Name = 
REMARK  1 active torsions:
REMARK  status: ('A' for Active; 'I' for Inactive)
REMARK    1  A    between atoms: C_6  and  C_7
REMARK                            x       y       z     vdW  Elec       q    Type
REMARK                         _______ _______ _______ _____ _____    ______ ____
ROOT
ATOM      1  C   UNL     1       0.863   3.312  20.062  0.00  0.00    +0.000 A 
ATOM      2  C   UNL     1       0.988   2.524  18.918  0.00  0.00    +0.000 A 
ATOM      3  N   UNL     1       2.008   2.572  18.024  0.00  0.00    +0.000 NA
ATOM      4  C   UNL     1       2.930   3.490  18.366  0.00  0.00    +0.000 A 
ATOM      5  N   UNL     1       4.082   3.784  17.698  0.00  0.00    +0.000 N 
ATOM      6  C   UNL     1       4.745   4.760  18.408  0.00  0.00    +0.000 A 
ATOM      7  N   UNL     1       4.054   5.121  19.474  0.00  0.00    +0.000 NA
ATOM      8  C   UNL     1       2.932   4.335  19.467  0.00  0.00    +0.000 A 
ATOM      9  C   UNL     1       1.854   4.252  20.355  0.00  0.00    +0.000 A 
ATOM     10  H   UNL     1       4.386   3.335  16.849  0.00  0.00    +0.000 HD
ENDROOT
BRANCH   6  11
ATOM     11  C   UNL     1       6.077   5.286  17.995  0.00  0.00    +0.000 C 
ATOM     12  C   UNL     1       5.990   6.657  17.330  0.00  0.00    +0.000 C 
ATOM     13  C   UNL     1       7.406   7.209  17.445  0.00  0.00    +0.000 C 
ATOM     14  C   UNL     1       7.995   6.591  18.711  0.00  0.00    +0.000 C 
ATOM     15  C   UNL     1       6.989   5.552  19.194  0.00  0.00    +0.000 C 
ENDBRANCH   6  11
TORSDOF 1
ENDMDL
MODEL 7
REMARK VINA RESULT:      -6.5      1.310      5.497
REMARK  Name = 
REMARK  1 active torsions:
REMARK  status: ('A' for Active; 'I' for Inactive)
REMARK    1  A    between atoms: C_6  and  C_7
REMARK                            x       y       z     vdW  Elec       q    Type
REMARK                         _______ _______ _______ _____ _____    ______ ____
ROOT
ATOM      1  C   UNL     1       1.143   2.765  19.958  0.00  0.00    +0.000 A 
ATOM      2  C   UNL     1       1.132   3.922  20.736  0.00  0.00    +0.000 A 
ATOM      3  N   UNL     1       2.096   4.878  20.758  0.00  0.00    +0.000 NA
ATOM      4  C   UNL     1       3.104   4.590  19.915  0.00  0.00    +0.000 A 
ATOM      5  N   UNL     1       4.219   5.341  19.683  0.00  0.00    +0.000 N 
ATOM      6  C   UNL     1       4.973   4.696  18.729  0.00  0.00    +0.000 A 
ATOM      7  N   UNL     1       4.407   3.557  18.369  0.00  0.00    +0.000 NA
ATOM      8  C   UNL     1       3.243   3.484  19.089  0.00  0.00    +0.000 A 
ATOM      9  C   UNL     1       2.226   2.523  19.109  0.00  0.00    +0.000 A 
ATOM     10  H   UNL     1       4.421   6.223  20.126  0.00  0.00    +0.000 HD
ENDROOT
BRANCH   6  11
ATOM     11  C   UNL     1       6.240   5.264  18.189  0.00  0.00    +0.000 C 
ATOM     12  C   UNL     1       6.021   6.556  17.406  0.00  0.00    +0.000 C 
ATOM     13  C   UNL     1       7.399   7.206  17.382  0.00  0.00    +0.000 C 
ATOM     14  C   UNL     1       8.098   6.752  18.662  0.00  0.00    +0.000 C 
ATOM     15  C   UNL     1       7.195   5.702  19.300  0.00  0.00    +0.000 C 
ENDBRANCH   6  11
TORSDOF 1
ENDMDL
MODEL 8
REMARK VINA RESULT:      -6.5      1.465      5.656
REMARK  Name = 
REMARK  1 active torsions:
REMARK  status: ('A' for Active; 'I' for Inactive)
REMARK    1  A    between atoms: C_6  and  C_7
REMARK                            x       y       z     vdW  Elec       q    Type
REMARK                         _______ _______ _______ _____ _____    ______ ____
ROOT
ATOM      1  C   UNL     1       1.887   2.130  19.579  0.00  0.00    +0.000 A 
ATOM      2  C   UNL     1       1.466   2.490  18.299  0.00  0.00    +0.000 A 
ATOM      3  N   UNL     1       2.146   3.281  17.430  0.00  0.00    +0.000 NA
ATOM      4  C   UNL     1       3.318   3.695  17.942  0.00  0.00    +0.000 A 
ATOM      5  N   UNL     1       4.247   4.486  17.331  0.00  0.00    +0.000 N 
ATOM      6  C   UNL     1       5.307   4.640  18.197  0.00  0.00    +0.000 A 
ATOM      7  N   UNL     1       5.080   4.013  19.338  0.00  0.00    +0.000 NA
ATOM      8  C   UNL     1       3.856   3.415  19.190  0.00  0.00    +0.000 A 
ATOM      9  C   UNL     1       3.113   2.602  20.053  0.00  0.00    +0.000 A 
ATOM     10  H   UNL     1       4.162   4.859  16.400  0.00  0.00    +0.000 HD
ENDROOT
BRANCH   6  11
ATOM     11  C   UNL     1       6.534   5.403  17.834  0.00  0.00    +0.000 C 
ATOM     12  C   UNL     1       6.223   6.783  17.260  0.00  0.00    +0.000 C 
ATOM     13  C   UNL     1       7.529   7.550  17.425  0.00  0.00    +0.000 C 
ATOM     14  C   UNL     1       8.213   6.953  18.653  0.00  0.00    +0.000 C 
ATOM     15  C   UNL     1       7.391   5.733  19.057  0.00  0.00    +0.000 C 
ENDBRANCH   6  11
TORSDOF 1
ENDMDL
MODEL 9
REMARK VINA RESULT:      -6.4      2.209      5.268
REMARK  Name = 
REMARK  1 active torsions:
REMARK  status: ('A' for Active; 'I' for Inactive)
REMARK    1  A    between atoms: C_6  and  C_7
REMARK                            x       y       z     vdW  Elec       q    Type
REMARK                         _______ _______ _______ _____ _____    ______ ____
ROOT
ATOM      1  C   UNL     1       1.059   3.667  20.408  0.00  0.00    +0.000 A 
ATOM      2  C   UNL     1       2.041   2.995  21.134  0.00  0.00    +0.000 A 
ATOM      3  N   UNL     1       3.289   2.691  20.696  0.00  0.00    +0.000 NA
ATOM      4  C   UNL     1       3.497   3.124  19.440  0.00  0.00    +0.000 A 
ATOM      5  N   UNL     1       4.641   2.996  18.706  0.00  0.00    +0.000 N 
ATOM      6  C   UNL     1       4.432   3.604  17.489  0.00  0.00    +0.000 A 
ATOM      7  N   UNL     1       3.203   4.081  17.402  0.00  0.00    +0.000 NA
ATOM      8  C   UNL     1       2.615   3.800  18.608  0.00  0.00    +0.000 A 
ATOM      9  C   UNL     1       1.338   4.083  19.104  0.00  0.00    +0.000 A 
ATOM     10  H   UNL     1       5.485   2.553  19.030  0.00  0.00    +0.000 HD
ENDROOT
BRANCH   6  11
ATOM     11  C   UNL     1       5.496   3.705  16.450  0.00  0.00    +0.000 C 
ATOM     12  C   UNL     1       5.026   4.430  15.192  0.00  0.00    +0.000 C 
ATOM     13  C   UNL     1       6.320   4.855  14.510  0.00  0.00    +0.000 C 
ATOM     14  C   UNL     1       7.337   5.059  15.631  0.00  0.00    +0.000 C 
ATOM     15  C   UNL     1       6.674   4.564  16.913  0.00  0.00    +0.000 C 
ENDBRANCH   6  11
TORSDOF 1
ENDMDL
