MODEL 1
REMARK VINA RESULT:      -7.9      0.000      0.000
REMARK  Name = 
REMARK  3 active torsions:
REMARK  status: ('A' for Active; 'I' for Inactive)
REMARK    1  A    between atoms: C_2  and  C_3
REMARK    2  A    between atoms: C_3  and  C_4
REMARK    3  A    between atoms: C_4  and  C_5
REMARK                            x       y       z     vdW  Elec       q    Type
REMARK                         _______ _______ _______ _____ _____    ______ ____
ROOT
ATOM      1  C   UNL     1       5.872   3.867  15.977  0.00  0.00    +0.000 C 
ENDROOT
BRANCH   1   3
ATOM      2  O   UNL     1       7.060   5.259  14.391  0.00  0.00    +0.000 OA
ATOM      3  C   UNL     1       6.838   4.966  15.572  0.00  0.00    +0.000 C 
ATOM      4  N   UNL     1       7.476   5.689  16.545  0.00  0.00    +0.000 N 
ATOM      5  C   UNL     1       7.339   5.461  17.894  0.00  0.00    +0.000 A 
ATOM      6  N   UNL     1       6.642   4.551  18.529  0.00  0.00    +0.000 NA
ATOM      7  N   UNL     1       6.848   4.757  19.868  0.00  0.00    +0.000 NA
ATOM      8  N   UNL     1       7.649   5.791  20.066  0.00  0.00    +0.000 NA
ATOM      9  N   UNL     1       7.954   6.234  18.839  0.00  0.00    +0.000 N 
ATOM     10  H   UNL     1       8.071   6.430  16.202  0.00  0.00    +0.000 HD
ATOM     11  H   UNL     1       8.521   7.062  18.736  0.00  0.00    +0.000 HD
ENDBRANCH   1   3
BRANCH   1  12
ATOM     12  C   UNL     1       4.425   4.344  15.991  0.00  0.00    +0.000 C 
BRANCH  12  13
ATOM     13  C   UNL     1       3.648   3.775  17.156  0.00  0.00    +0.000 A 
ATOM     14  C   UNL     1       3.626   2.379  17.373  0.00  0.00    +0.000 A 
ATOM     15  C   UNL     1       2.953   1.831  18.469  0.00  0.00    +0.000 A 
ATOM     16  C   UNL     1       2.328   2.695  19.339  0.00  0.00    +0.000 A 
ATOM     17  C   UNL     1       2.324   4.066  19.135  0.00  0.00    +0.000 A 
ATOM     18  C   UNL     1       2.968   4.626  18.044  0.00  0.00    +0.000 A 
ATOM     19  C   UNL     1       1.522   4.710  20.199  0.00  0.00    +0.000 C 
ATOM     20  C   UNL     1       1.481   3.549  21.193  0.00  0.00    +0.000 C 
ATOM     21  O   UNL     1       1.657   2.307  20.472  0.00  0.00    +0.000 OA
ENDBRANCH  12  13
ENDBRANCH   1  12
TORSDOF 3
ENDMDL
MODEL 2
REMARK VINA RESULT:      -7.9      2.378      3.469
REMARK  Name = 
REMARK  3 active torsions:
REMARK  status: ('A' for Active; 'I' for Inactive)
REMARK    1  A    between atoms: C_2  and  C_3
REMARK    2  A    between atoms: C_3  and  C_4
REMARK    3  A    between atoms: C_4  and  C_5
REMARK                            x       y       z     vdW  Elec       q    Type
REMARK                         _______ _______ _______ _____ _____    ______ ____
ROOT
ATOM      1  C   UNL     1       6.006   4.524  16.463  0.00  0.00    +0.000 C 
ENDROOT
BRANCH   1   3
ATOM      2  O   UNL     1       7.538   6.360  16.842  0.00  0.00    +0.000 OA
ATOM      3  C   UNL     1       7.053   5.544  16.050  0.00  0.00    +0.000 C 
ATOM      4  N   UNL     1       7.506   5.554  14.758  0.00  0.00    +0.000 N 
ATOM      5  C   UNL     1       7.043   4.718  13.769  0.00  0.00    +0.000 A 
ATOM      6  N   UNL     1       6.109   3.800  13.809  0.00  0.00    +0.000 NA
ATOM      7  N   UNL     1       6.034   3.254  12.555  0.00  0.00    +0.000 NA
ATOM      8  N   UNL     1       6.920   3.813  11.747  0.00  0.00    +0.000 NA
ATOM      9  N   UNL     1       7.553   4.722  12.500  0.00  0.00    +0.000 N 
ATOM     10  H   UNL     1       8.231   6.231  14.567  0.00  0.00    +0.000 HD
ATOM     11  H   UNL     1       8.321   5.247  12.108  0.00  0.00    +0.000 HD
ENDBRANCH   1   3
BRANCH   1  12
ATOM     12  C   UNL     1       4.640   5.158  16.695  0.00  0.00    +0.000 C 
BRANCH  12  13
ATOM     13  C   UNL     1       3.766   4.317  17.597  0.00  0.00    +0.000 A 
ATOM     14  C   UNL     1       3.751   2.911  17.452  0.00  0.00    +0.000 A 
ATOM     15  C   UNL     1       2.987   2.107  18.303  0.00  0.00    +0.000 A 
ATOM     16  C   UNL     1       2.264   2.727  19.298  0.00  0.00    +0.000 A 
ATOM     17  C   UNL     1       2.253   4.105  19.446  0.00  0.00    +0.000 A 
ATOM     18  C   UNL     1       2.988   4.919  18.600  0.00  0.00    +0.000 A 
ATOM     19  C   UNL     1       1.340   4.464  20.554  0.00  0.00    +0.000 C 
ATOM     20  C   UNL     1       1.226   3.090  21.215  0.00  0.00    +0.000 C 
ATOM     21  O   UNL     1       1.495   2.069  20.224  0.00  0.00    +0.000 OA
ENDBRANCH  12  13
ENDBRANCH   1  12
TORSDOF 3
ENDMDL
MODEL 3
REMARK VINA RESULT:      -7.8      3.117      4.505
REMARK  Name = 
REMARK  3 active torsions:
REMARK  status: ('A' for Active; 'I' for Inactive)
REMARK    1  A    between atoms: C_2  and  C_3
REMARK    2  A    between atoms: C_3  and  C_4
REMARK    3  A    between atoms: C_4  and  C_5
REMARK                            x       y       z     vdW  Elec       q    Type
REMARK                         _______ _______ _______ _____ _____    ______ ____
ROOT
ATOM      1  C   UNL     1       5.397   5.397  15.010  0.00  0.00    +0.000 C 
ENDROOT
BRANCH   1   3
ATOM      2  O   UNL     1       7.699   5.076  15.689  0.00  0.00    +0.000 OA
ATOM      3  C   UNL     1       6.785   4.790  14.907  0.00  0.00    +0.000 C 
ATOM      4  N   UNL     1       7.042   3.866  13.929  0.00  0.00    +0.000 N 
ATOM      5  C   UNL     1       6.128   3.468  12.981  0.00  0.00    +0.000 A 
ATOM      6  N   UNL     1       4.895   3.863  12.780  0.00  0.00    +0.000 NA
ATOM      7  N   UNL     1       4.421   3.155  11.708  0.00  0.00    +0.000 NA
ATOM      8  N   UNL     1       5.340   2.318  11.256  0.00  0.00    +0.000 NA
ATOM      9  N   UNL     1       6.403   2.506  12.049  0.00  0.00    +0.000 N 
ATOM     10  H   UNL     1       7.973   3.475  13.947  0.00  0.00    +0.000 HD
ATOM     11  H   UNL     1       7.223   1.932  11.928  0.00  0.00    +0.000 HD
ENDBRANCH   1   3
BRANCH   1  12
ATOM     12  C   UNL     1       5.202   6.176  16.305  0.00  0.00    +0.000 C 
BRANCH  12  13
ATOM     13  C   UNL     1       4.131   5.567  17.181  0.00  0.00    +0.000 A 
ATOM     14  C   UNL     1       3.379   6.390  18.050  0.00  0.00    +0.000 A 
ATOM     15  C   UNL     1       2.352   5.860  18.836  0.00  0.00    +0.000 A 
ATOM     16  C   UNL     1       2.086   4.514  18.725  0.00  0.00    +0.000 A 
ATOM     17  C   UNL     1       2.823   3.687  17.892  0.00  0.00    +0.000 A 
ATOM     18  C   UNL     1       3.856   4.191  17.120  0.00  0.00    +0.000 A 
ATOM     19  C   UNL     1       2.339   2.296  18.041  0.00  0.00    +0.000 C 
ATOM     20  C   UNL     1       1.002   2.588  18.723  0.00  0.00    +0.000 C 
ATOM     21  O   UNL     1       1.092   3.859  19.408  0.00  0.00    +0.000 OA
ENDBRANCH  12  13
ENDBRANCH   1  12
TORSDOF 3
ENDMDL
MODEL 4
REMARK VINA RESULT:      -7.8      1.808      2.715
REMARK  Name = 
REMARK  3 active torsions:
REMARK  status: ('A' for Active; 'I' for Inactive)
REMARK    1  A    between atoms: C_2  and  C_3
REMARK    2  A    between atoms: C_3  and  C_4
REMARK    3  A    between atoms: C_4  and  C_5
REMARK                            x       y       z     vdW  Elec       q    Type
REMARK                         _______ _______ _______ _____ _____    ______ ____
ROOT
ATOM      1  C   UNL     1       4.843   7.347  17.391  0.00  0.00    +0.000 C 
ENDROOT
BRANCH   1   3
ATOM      2  O   UNL     1       4.623   7.238  14.982  0.00  0.00    +0.000 OA
ATOM      3  C   UNL     1       5.192   6.836  16.004  0.00  0.00    +0.000 C 
ATOM      4  N   UNL     1       6.193   5.912  15.863  0.00  0.00    +0.000 N 
ATOM      5  C   UNL     1       6.896   5.366  16.910  0.00  0.00    +0.000 A 
ATOM      6  N   UNL     1       6.771   5.557  18.201  0.00  0.00    +0.000 NA
ATOM      7  N   UNL     1       7.712   4.772  18.812  0.00  0.00    +0.000 NA
ATOM      8  N   UNL     1       8.426   4.112  17.914  0.00  0.00    +0.000 NA
ATOM      9  N   UNL     1       7.923   4.482  16.729  0.00  0.00    +0.000 N 
ATOM     10  H   UNL     1       6.398   5.650  14.909  0.00  0.00    +0.000 HD
ATOM     11  H   UNL     1       8.348   4.142  15.880  0.00  0.00    +0.000 HD
ENDBRANCH   1   3
BRANCH   1  12
ATOM     12  C   UNL     1       3.340   7.502  17.589  0.00  0.00    +0.000 C 
BRANCH  12  13
ATOM     13  C   UNL     1       2.754   6.377  18.412  0.00  0.00    +0.000 A 
ATOM     14  C   UNL     1       2.382   6.607  19.756  0.00  0.00    +0.000 A 
ATOM     15  C   UNL     1       1.796   5.597  20.524  0.00  0.00    +0.000 A 
ATOM     16  C   UNL     1       1.576   4.377  19.925  0.00  0.00    +0.000 A 
ATOM     17  C   UNL     1       1.948   4.128  18.613  0.00  0.00    +0.000 A 
ATOM     18  C   UNL     1       2.548   5.109  17.843  0.00  0.00    +0.000 A 
ATOM     19  C   UNL     1       1.638   2.718  18.284  0.00  0.00    +0.000 C 
ATOM     20  C   UNL     1       0.684   2.415  19.440  0.00  0.00    +0.000 C 
ATOM     21  O   UNL     1       0.983   3.304  20.541  0.00  0.00    +0.000 OA
ENDBRANCH  12  13
ENDBRANCH   1  12
TORSDOF 3
ENDMDL
MODEL 5
REMARK VINA RESULT:      -7.8      2.353      3.427
REMARK  Name = 
REMARK  3 active torsions:
REMARK  status: ('A' for Active; 'I' for Inactive)
REMARK    1  A    between atoms: C_2  and  C_3
REMARK    2  A    between atoms: C_3  and  C_4
REMARK    3  A    between atoms: C_4  and  C_5
REMARK                            x       y       z     vdW  Elec       q    Type
REMARK                         _______ _______ _______ _____ _____    ______ ____
ROOT
ATOM      1  C   UNL     1       6.995   5.048  18.384  0.00  0.00    +0.000 C 
ENDROOT
BRANCH   1   3
ATOM      2  O   UNL     1       7.967   7.260  18.222  0.00  0.00    +0.000 OA
ATOM      3  C   UNL     1       7.502   6.272  17.641  0.00  0.00    +0.000 C 
ATOM      4  N   UNL     1       7.474   6.285  16.273  0.00  0.00    +0.000 N 
ATOM      5  C   UNL     1       6.969   5.266  15.499  0.00  0.00    +0.000 A 
ATOM      6  N   UNL     1       6.409   4.136  15.855  0.00  0.00    +0.000 NA
ATOM      7  N   UNL     1       6.080   3.475  14.700  0.00  0.00    +0.000 NA
ATOM      8  N   UNL     1       6.444   4.177  13.639  0.00  0.00    +0.000 NA
ATOM      9  N   UNL     1       7.001   5.290  14.133  0.00  0.00    +0.000 N 
ATOM     10  H   UNL     1       7.865   7.113  15.846  0.00  0.00    +0.000 HD
ATOM     11  H   UNL     1       7.407   5.966  13.502  0.00  0.00    +0.000 HD
ENDBRANCH   1   3
BRANCH   1  12
ATOM     12  C   UNL     1       5.983   5.406  19.466  0.00  0.00    +0.000 C 
BRANCH  12  13
ATOM     13  C   UNL     1       4.583   4.964  19.106  0.00  0.00    +0.000 A 
ATOM     14  C   UNL     1       3.847   5.678  18.133  0.00  0.00    +0.000 A 
ATOM     15  C   UNL     1       2.569   5.263  17.749  0.00  0.00    +0.000 A 
ATOM     16  C   UNL     1       2.057   4.128  18.335  0.00  0.00    +0.000 A 
ATOM     17  C   UNL     1       2.756   3.423  19.303  0.00  0.00    +0.000 A 
ATOM     18  C   UNL     1       4.015   3.830  19.711  0.00  0.00    +0.000 A 
ATOM     19  C   UNL     1       1.920   2.299  19.779  0.00  0.00    +0.000 C 
ATOM     20  C   UNL     1       0.899   2.270  18.641  0.00  0.00    +0.000 C 
ATOM     21  O   UNL     1       0.833   3.583  18.038  0.00  0.00    +0.000 OA
ENDBRANCH  12  13
ENDBRANCH   1  12
TORSDOF 3
ENDMDL
MODEL 6
REMARK VINA RESULT:      -7.8      3.634      5.035
REMARK  Name = 
REMARK  3 active torsions:
REMARK  status: ('A' for Active; 'I' for Inactive)
REMARK    1  A    between atoms: C_2  and  C_3
REMARK    2  A    between atoms: C_3  and  C_4
REMARK    3  A    between atoms: C_4  and  C_5
REMARK                            x       y       z     vdW  Elec       q    Type
REMARK                         _______ _______ _______ _____ _____    ______ ____
ROOT
ATOM      1  C   UNL     1       4.076   5.133  18.424  0.00  0.00    +0.000 C 
ENDROOT
BRANCH   1   3
ATOM      2  O   UNL     1       5.142   3.587  19.953  0.00  0.00    +0.000 OA
ATOM      3  C   UNL     1       5.191   4.212  18.887  0.00  0.00    +0.000 C 
ATOM      4  N   UNL     1       6.291   4.038  18.090  0.00  0.00    +0.000 N 
ATOM      5  C   UNL     1       6.487   4.681  16.891  0.00  0.00    +0.000 A 
ATOM      6  N   UNL     1       5.744   5.571  16.280  0.00  0.00    +0.000 NA
ATOM      7  N   UNL     1       6.390   5.895  15.116  0.00  0.00    +0.000 NA
ATOM      8  N   UNL     1       7.512   5.206  14.995  0.00  0.00    +0.000 NA
ATOM      9  N   UNL     1       7.574   4.446  16.096  0.00  0.00    +0.000 N 
ATOM     10  H   UNL     1       6.972   3.380  18.442  0.00  0.00    +0.000 HD
ATOM     11  H   UNL     1       8.330   3.786  16.204  0.00  0.00    +0.000 HD
ENDBRANCH   1   3
BRANCH   1  12
ATOM     12  C   UNL     1       3.125   5.503  19.556  0.00  0.00    +0.000 C 
BRANCH  12  13
ATOM     13  C   UNL     1       2.503   6.867  19.356  0.00  0.00    +0.000 A 
ATOM     14  C   UNL     1       2.558   7.486  18.087  0.00  0.00    +0.000 A 
ATOM     15  C   UNL     1       1.951   8.726  17.864  0.00  0.00    +0.000 A 
ATOM     16  C   UNL     1       1.284   9.315  18.914  0.00  0.00    +0.000 A 
ATOM     17  C   UNL     1       1.233   8.731  20.170  0.00  0.00    +0.000 A 
ATOM     18  C   UNL     1       1.844   7.513  20.416  0.00  0.00    +0.000 A 
ATOM     19  C   UNL     1       0.503   9.630  21.091  0.00  0.00    +0.000 C 
ATOM     20  C   UNL     1      -0.169  10.529  20.053  0.00  0.00    +0.000 C 
ATOM     21  O   UNL     1       0.616  10.511  18.838  0.00  0.00    +0.000 OA
ENDBRANCH  12  13
ENDBRANCH   1  12
TORSDOF 3
ENDMDL
MODEL 7
REMARK VINA RESULT:      -7.7      0.881      1.568
REMARK  Name = 
REMARK  3 active torsions:
REMARK  status: ('A' for Active; 'I' for Inactive)
REMARK    1  A    between atoms: C_2  and  C_3
REMARK    2  A    between atoms: C_3  and  C_4
REMARK    3  A    between atoms: C_4  and  C_5
REMARK                            x       y       z     vdW  Elec       q    Type
REMARK                         _______ _______ _______ _____ _____    ______ ____
ROOT
ATOM      1  C   UNL     1       6.002   4.003  16.030  0.00  0.00    +0.000 C 
ENDROOT
BRANCH   1   3
ATOM      2  O   UNL     1       7.059   5.438  14.391  0.00  0.00    +0.000 OA
ATOM      3  C   UNL     1       6.893   5.147  15.582  0.00  0.00    +0.000 C 
ATOM      4  N   UNL     1       7.524   5.914  16.524  0.00  0.00    +0.000 N 
ATOM      5  C   UNL     1       7.445   5.696  17.880  0.00  0.00    +0.000 A 
ATOM      6  N   UNL     1       6.819   4.758  18.547  0.00  0.00    +0.000 NA
ATOM      7  N   UNL     1       7.059   4.989  19.876  0.00  0.00    +0.000 NA
ATOM      8  N   UNL     1       7.809   6.066  20.036  0.00  0.00    +0.000 NA
ATOM      9  N   UNL     1       8.048   6.512  18.796  0.00  0.00    +0.000 N 
ATOM     10  H   UNL     1       8.066   6.683  16.155  0.00  0.00    +0.000 HD
ATOM     11  H   UNL     1       8.566   7.368  18.665  0.00  0.00    +0.000 HD
ENDBRANCH   1   3
BRANCH   1  12
ATOM     12  C   UNL     1       4.523   4.301  15.811  0.00  0.00    +0.000 C 
BRANCH  12  13
ATOM     13  C   UNL     1       3.766   4.420  17.113  0.00  0.00    +0.000 A 
ATOM     14  C   UNL     1       3.521   5.695  17.671  0.00  0.00    +0.000 A 
ATOM     15  C   UNL     1       2.783   5.835  18.851  0.00  0.00    +0.000 A 
ATOM     16  C   UNL     1       2.289   4.694  19.441  0.00  0.00    +0.000 A 
ATOM     17  C   UNL     1       2.533   3.434  18.918  0.00  0.00    +0.000 A 
ATOM     18  C   UNL     1       3.277   3.273  17.762  0.00  0.00    +0.000 A 
ATOM     19  C   UNL     1       1.927   2.417  19.807  0.00  0.00    +0.000 C 
ATOM     20  C   UNL     1       0.994   3.331  20.602  0.00  0.00    +0.000 C 
ATOM     21  O   UNL     1       1.525   4.677  20.581  0.00  0.00    +0.000 OA
ENDBRANCH  12  13
ENDBRANCH   1  12
TORSDOF 3
ENDMDL
MODEL 8
REMARK VINA RESULT:      -7.7      2.786      3.921
REMARK  Name = 
REMARK  3 active torsions:
REMARK  status: ('A' for Active; 'I' for Inactive)
REMARK    1  A    between atoms: C_2  and  C_3
REMARK    2  A    between atoms: C_3  and  C_4
REMARK    3  A    between atoms: C_4  and  C_5
REMARK                            x       y       z     vdW  Elec       q    Type
REMARK                         _______ _______ _______ _____ _____    ______ ____
ROOT
ATOM      1  C   UNL     1       5.148   5.519  15.355  0.00  0.00    +0.000 C 
ENDROOT
BRANCH   1   3
ATOM      2  O   UNL     1       7.478   5.722  15.983  0.00  0.00    +0.000 OA
ATOM      3  C   UNL     1       6.634   5.239  15.218  0.00  0.00    +0.000 C 
ATOM      4  N   UNL     1       7.070   4.399  14.228  0.00  0.00    +0.000 N 
ATOM      5  C   UNL     1       6.248   3.808  13.298  0.00  0.00    +0.000 A 
ATOM      6  N   UNL     1       4.954   3.917  13.126  0.00  0.00    +0.000 NA
ATOM      7  N   UNL     1       4.627   3.124  12.058  0.00  0.00    +0.000 NA
ATOM      8  N   UNL     1       5.700   2.514  11.581  0.00  0.00    +0.000 NA
ATOM      9  N   UNL     1       6.710   2.935  12.353  0.00  0.00    +0.000 N 
ATOM     10  H   UNL     1       8.065   4.226  14.224  0.00  0.00    +0.000 HD
ATOM     11  H   UNL     1       7.636   2.559  12.210  0.00  0.00    +0.000 HD
ENDBRANCH   1   3
BRANCH   1  12
ATOM     12  C   UNL     1       4.768   5.950  16.767  0.00  0.00    +0.000 C 
BRANCH  12  13
ATOM     13  C   UNL     1       3.860   4.950  17.444  0.00  0.00    +0.000 A 
ATOM     14  C   UNL     1       3.849   3.604  17.014  0.00  0.00    +0.000 A 
ATOM     15  C   UNL     1       3.051   2.650  17.653  0.00  0.00    +0.000 A 
ATOM     16  C   UNL     1       2.291   3.060  18.725  0.00  0.00    +0.000 A 
ATOM     17  C   UNL     1       2.276   4.378  19.152  0.00  0.00    +0.000 A 
ATOM     18  C   UNL     1       3.044   5.342  18.519  0.00  0.00    +0.000 A 
ATOM     19  C   UNL     1       1.321   4.511  20.275  0.00  0.00    +0.000 C 
ATOM     20  C   UNL     1       1.181   3.032  20.635  0.00  0.00    +0.000 C 
ATOM     21  O   UNL     1       1.486   2.233  19.468  0.00  0.00    +0.000 OA
ENDBRANCH  12  13
ENDBRANCH   1  12
TORSDOF 3
ENDMDL
MODEL 9
REMARK VINA RESULT:      -7.7      2.314      3.217
REMARK  Name = 
REMARK  3 active torsions:
REMARK  status: ('A' for Active; 'I' for Inactive)
REMARK    1  A    between atoms: C_2  and  C_3
REMARK    2  A    between atoms: C_3  and  C_4
REMARK    3  A    between atoms: C_4  and  C_5
REMARK                            x       y       z     vdW  Elec       q    Type
REMARK                         _______ _______ _______ _____ _____    ______ ____
ROOT
ATOM      1  C   UNL     1       5.951   5.335  17.781  0.00  0.00    +0.000 C 
ENDROOT
BRANCH   1   3
ATOM      2  O   UNL     1       7.630   7.047  18.119  0.00  0.00    +0.000 OA
ATOM      3  C   UNL     1       7.094   6.238  17.352  0.00  0.00    +0.000 C 
ATOM      4  N   UNL     1       7.579   6.146  16.075  0.00  0.00    +0.000 N 
ATOM      5  C   UNL     1       7.069   5.307  15.112  0.00  0.00    +0.000 A 
ATOM      6  N   UNL     1       6.057   4.476  15.168  0.00  0.00    +0.000 NA
ATOM      7  N   UNL     1       5.966   3.879  13.938  0.00  0.00    +0.000 NA
ATOM      8  N   UNL     1       6.918   4.318  13.132  0.00  0.00    +0.000 NA
ATOM      9  N   UNL     1       7.609   5.205  13.860  0.00  0.00    +0.000 N 
ATOM     10  H   UNL     1       8.366   6.747  15.874  0.00  0.00    +0.000 HD
ATOM     11  H   UNL     1       8.430   5.641  13.467  0.00  0.00    +0.000 HD
ENDBRANCH   1   3
BRANCH   1  12
ATOM     12  C   UNL     1       4.606   6.048  17.747  0.00  0.00    +0.000 C 
BRANCH  12  13
ATOM     13  C   UNL     1       3.510   5.233  18.394  0.00  0.00    +0.000 A 
ATOM     14  C   UNL     1       2.473   4.691  17.603  0.00  0.00    +0.000 A 
ATOM     15  C   UNL     1       1.474   3.895  18.170  0.00  0.00    +0.000 A 
ATOM     16  C   UNL     1       1.543   3.641  19.521  0.00  0.00    +0.000 A 
ATOM     17  C   UNL     1       2.543   4.176  20.318  0.00  0.00    +0.000 A 
ATOM     18  C   UNL     1       3.530   4.983  19.777  0.00  0.00    +0.000 A 
ATOM     19  C   UNL     1       2.308   3.774  21.723  0.00  0.00    +0.000 C 
ATOM     20  C   UNL     1       1.322   2.632  21.475  0.00  0.00    +0.000 C 
ATOM     21  O   UNL     1       0.654   2.854  20.211  0.00  0.00    +0.000 OA
ENDBRANCH  12  13
ENDBRANCH   1  12
TORSDOF 3
ENDMDL
